REMARK  4 active torsions:
REMARK  status: ('A' for Active; 'I' for Inactive)
REMARK    1  A    between atoms: C_2  and  C_1 
REMARK       I    between atoms: N_3  and  C_2 
REMARK    2  A    between atoms: C_6  and  N_3 
REMARK    3  A    between atoms: O_4  and  C_8 
REMARK    4  A    between atoms: C_5  and  O_4 
ROOT
ATOM      1  C   UNL d   1      -0.514  -1.493  -1.604  0.00  0.00     0.069 A 
ATOM      2  C   UNL d   1      -1.147  -1.320  -0.361  0.00  0.00     0.102 A 
ATOM      3  C   UNL d   1      -0.808  -2.625  -2.371  0.00  0.00     0.032 A 
ATOM      4  C   UNL d   1      -1.974  -2.323   0.148  0.00  0.00     0.039 A 
ATOM      5  C   UNL d   1      -2.221  -3.475  -0.601  0.00  0.00     0.003 A 
ATOM      6  C   UNL d   1      -1.655  -3.615  -1.867  0.00  0.00     0.002 A 
ENDROOT
BRANCH   2   7
ATOM      7  O   UNL d   1      -0.997  -0.202   0.425  0.00  0.00    -0.307 OA
BRANCH   7   8
ATOM      8  C   UNL d   1      -1.209   1.058  -0.117  0.00  0.00     0.098 A 
ATOM      9  C   UNL d   1      -0.641   2.143   0.576  0.00  0.00     0.069 A 
ATOM     10  C   UNL d   1      -0.741   3.439   0.068  0.00  0.00     0.050 A 
ATOM     11 CL   UNL d   1       0.227   1.910   2.051  0.00  0.00    -0.081 Cl
ATOM     12  C   UNL d   1      -1.412   3.663  -1.129  0.00  0.00     0.035 A 
ATOM     13  C   UNL d   1      -2.018   2.602  -1.803  0.00  0.00     0.026 A 
ATOM     14 CL   UNL d   1      -1.497   5.249  -1.782  0.00  0.00    -0.084 Cl
ATOM     15  C   UNL d   1      -1.938   1.305  -1.284  0.00  0.00     0.041 A 
ENDBRANCH   7   8
ENDBRANCH   2   7
BRANCH   1  16
ATOM     16  N   UNL d   1       0.460  -0.566  -2.032  0.00  0.00    -0.321 N 
ATOM     17  C   UNL d   1       0.579  -0.112  -3.343  0.00  0.00     0.277 C 
ATOM     18  O   UNL d   1      -0.279  -0.360  -4.197  0.00  0.00    -0.268 OA
ATOM     19  H   UNL d   1       0.899  -0.011  -1.303  0.00  0.00     0.169 HD
BRANCH  17  20
ATOM     20  C   UNL d   1       1.792   0.805  -3.636  0.00  0.00     0.269 C 
ATOM     21 CL   UNL d   1       3.037   0.676  -2.358  0.00  0.00    -0.073 Cl
ATOM     22 CL   UNL d   1       1.214   2.488  -3.712  0.00  0.00    -0.073 Cl
ATOM     23 CL   UNL d   1       2.506   0.319  -5.195  0.00  0.00    -0.073 Cl
ENDBRANCH  17  20
ENDBRANCH   1  16
TORSDOF 4
