REMARK  3 active torsions:
REMARK  status: ('A' for Active; 'I' for Inactive)
REMARK    1  A    between atoms: C_2  and  C_1 
REMARK    2  A    between atoms: N_7  and  C_2 
REMARK    3  A    between atoms: O_10  and  N_3 
ROOT
ATOM      1  C   UNL d   1      -1.290   2.912  -0.009  0.00  0.00     0.047 A 
ATOM      2  C   UNL d   1      -1.304   4.317   0.067  0.00  0.00     0.049 A 
ATOM      3  C   UNL d   1      -2.519   2.235  -0.104  0.00  0.00     0.049 A 
ATOM      4 CL   UNL d   1      -2.662   0.518  -0.289  0.00  0.00    -0.083 Cl
ATOM      5 CL   UNL d   1       0.130   5.276   0.230  0.00  0.00    -0.083 Cl
ATOM      6  C   UNL d   1      -3.726   4.339  -0.039  0.00  0.00     0.003 A 
ATOM      7  C   UNL d   1      -3.726   2.950  -0.110  0.00  0.00     0.025 A 
ATOM      8  C   UNL d   1      -2.516   5.021   0.045  0.00  0.00     0.025 A 
ENDROOT
BRANCH   1   9
ATOM      9  C   UNL d   1      -0.000   2.155   0.004  0.00  0.00     0.111 C 
ATOM     10  N   UNL d   1       0.107   1.122   0.792  0.00  0.00    -0.257 N 
ATOM     11  HN  UNL d   1      -0.629   0.791   1.416  1.00  0.00     0.195 HD
BRANCH  10  12
ATOM     12  O   UNL d   1       1.373   0.525   0.667  0.00  0.00    -0.289 OA
ATOM     13  H   UNL d   1       1.241  -0.321   1.135  0.00  0.00     0.244 HD
ENDBRANCH  10  12
BRANCH   9  14
ATOM     14  N   UNL d   1       1.038   2.556  -0.804  0.00  0.00    -0.286 NA
ATOM     15  H   UNL d   1       1.196   3.558  -0.840  0.00  0.00     0.125 HD
ATOM     16  H   UNL d   1       1.882   2.056  -0.533  0.00  0.00     0.125 HD
ENDBRANCH   9  14
ENDBRANCH   1   9
TORSDOF 3
