REMARK  9 active torsions:
REMARK  status: ('A' for Active; 'I' for Inactive)
REMARK    1  A    between atoms: O_4  and  C_1 
REMARK    2  A    between atoms: C_5  and  O_4 
REMARK       I    between atoms: N_11  and  C_5 
REMARK    3  A    between atoms: S_12  and  C_6 
REMARK    4  A    between atoms: C_16  and  C_7 
REMARK    5  A    between atoms: C_25  and  C_10 
REMARK    6  A    between atoms: C_17  and  S_12 
REMARK    7  A    between atoms: C_14  and  C_16 
REMARK    8  A    between atoms: C_19  and  C_17 
REMARK    9  A    between atoms: C_28  and  C_25 
ROOT
ATOM      1  C   UNL d   1       1.038  -0.916  -0.209  0.00  0.00     0.163 C 
ATOM      2  N   UNL d   1       1.181   0.365  -0.580  0.00  0.00    -0.316 N 
ATOM      3  HN  UNL d   1       2.005   0.693  -1.085  1.00  0.00     0.170 HD
ATOM      4  C   UNL d   1       0.178   1.185  -0.248  0.00  0.00     0.146 C 
ATOM      5  C   UNL d   1      -0.047  -1.421   0.488  0.00  0.00     0.019 C 
ATOM      6  N   UNL d   1      -1.005   0.763   0.228  0.00  0.00    -0.340 N 
ATOM      7  HN  UNL d   1      -1.782   1.409   0.361  1.00  0.00     0.168 HD
ATOM      8  C   UNL d   1      -1.126  -0.554   0.524  0.00  0.00     0.022 C 
ENDROOT
BRANCH   4   9
ATOM      9  S   UNL d   1       0.391   2.922  -0.567  0.00  0.00    -0.089 SA
BRANCH   9  10
ATOM     10  C   UNL d   1      -0.599   3.629   0.791  0.00  0.00     0.121 C 
BRANCH  10  11
ATOM     11  C   UNL d   1      -0.569   5.148   0.792  0.00  0.00    -0.048 A 
ATOM     12  C   UNL d   1      -1.507   5.879   0.042  0.00  0.00     0.011 A 
ATOM     13  C   UNL d   1      -1.488   7.278   0.042  0.00  0.00     0.043 A 
ATOM     14  C   UNL d   1      -0.529   7.949   0.788  0.00  0.00     0.116 A 
ATOM     15  C   UNL d   1       0.411   7.253   1.533  0.00  0.00     0.043 A 
ATOM     16  F   UNL d   1      -0.514   9.293   0.792  0.00  0.00    -0.206 F 
ATOM     17  C   UNL d   1       0.395   5.852   1.534  0.00  0.00     0.011 A 
ENDBRANCH  10  11
ENDBRANCH   9  10
ENDBRANCH   4   9
BRANCH   1  18
ATOM     18  O   UNL d   1       1.879  -1.935  -0.776  0.00  0.00    -0.243 OA
BRANCH  18  19
ATOM     19  C   UNL d   1       2.821  -1.710  -1.769  0.00  0.00     0.368 C 
ATOM     20  N   UNL d   1       3.075  -2.850  -2.534  0.00  0.00    -0.336 N 
ATOM     21  C   UNL d   1       4.025  -2.776  -3.626  0.00  0.00     0.154 C 
ATOM     22  C   UNL d   1       2.377  -4.115  -2.368  0.00  0.00     0.154 C 
ATOM     23  O   UNL d   1       3.386  -0.637  -1.960  0.00  0.00    -0.238 OA
ENDBRANCH  18  19
ENDBRANCH   1  18
BRANCH   8  24
ATOM     24  C   UNL d   1      -2.546  -1.059   0.660  0.00  0.00     0.057 C 
BRANCH  24  25
ATOM     25  C   UNL d   1      -3.334  -0.910  -0.657  0.00  0.00     0.002 C 
ATOM     26  C   UNL d   1      -2.759  -1.691  -1.837  0.00  0.00     0.005 C 
ENDBRANCH  24  25
ENDBRANCH   8  24
BRANCH   5  27
ATOM     27  C   UNL d   1      -0.018  -2.777   1.139  0.00  0.00     0.071 C 
BRANCH  27  28
ATOM     28  C   UNL d   1      -0.001  -2.670   2.647  0.00  0.00    -0.032 C 
ATOM     29  C   UNL d   1      -0.851  -3.292   3.474  0.00  0.00     0.007 C 
ENDBRANCH  27  28
ENDBRANCH   5  27
TORSDOF 9
