REMARK  7 active torsions:
REMARK  status: ('A' for Active; 'I' for Inactive)
REMARK    1  A    between atoms: C_3  and  C_1 
REMARK       I    between atoms: N_11  and  C_1 
REMARK    2  A    between atoms: C_6  and  N_2 
REMARK    3  A    between atoms: S_5  and  C_14 
REMARK    4  A    between atoms: C_13  and  S_5 
REMARK    5  A    between atoms: C_12  and  C_6 
REMARK    6  A    between atoms: C_14  and  C_12 
REMARK    7  A    between atoms: O_21  and  C_12 
ROOT
ATOM      1  C   UNL d   1       3.416  -2.676  -3.225  0.00  0.00     0.304 C 
ENDROOT
BRANCH   1   2
ATOM      2  N   UNL d   1       2.115  -2.069  -2.825  0.00  0.00     0.091 N 
ATOM      3  C   UNL d   1       2.256  -0.622  -2.587  0.00  0.00     0.273 C 
ATOM      4  C   UNL d   1       0.938   0.035  -2.167  0.00  0.00     0.044 C 
ATOM      5  C   UNL d   1       0.286  -0.647  -0.964  0.00  0.00     0.081 C 
ATOM      6  C   UNL d   1       0.226  -2.159  -1.196  0.00  0.00     0.044 C 
ATOM      7  C   UNL d   1       1.582  -2.735  -1.622  0.00  0.00     0.273 C 
BRANCH   5   8
ATOM      8  C   UNL d   1       0.983  -0.298   0.345  0.00  0.00     0.219 C 
ATOM      9  O   UNL d   1       2.042   0.320   0.431  0.00  0.00    -0.273 OA
ATOM     10  N   UNL d   1       0.343  -0.712   1.476  0.00  0.00    -0.370 N 
ATOM     11  H   UNL d   1      -0.621  -1.016   1.469  0.00  0.00     0.159 HD
ATOM     12  H   UNL d   1       0.738  -0.410   2.359  0.00  0.00     0.159 HD
ENDBRANCH   5   8
ENDBRANCH   1   2
BRANCH   1  13
ATOM     13  C   UNL d   1       4.007  -2.166  -4.579  0.00  0.00     0.156 C 
BRANCH  13  14
ATOM     14  C   UNL d   1       5.372  -2.823  -4.879  0.00  0.00     0.113 C 
BRANCH  14  15
ATOM     15  S   UNL d   1       6.205  -2.012  -6.314  0.00  0.00    -0.127 SA
BRANCH  15  16
ATOM     16  C   UNL d   1       7.570  -3.115  -6.653  0.00  0.00     0.000 A 
ATOM     17  C   UNL d   1       7.966  -3.300  -7.988  0.00  0.00     0.021 A 
ATOM     18  C   UNL d   1       9.014  -4.168  -8.308  0.00  0.00     0.043 A 
ATOM     19  C   UNL d   1       9.678  -4.842  -7.291  0.00  0.00     0.116 A 
ATOM     20  C   UNL d   1       9.328  -4.641  -5.961  0.00  0.00     0.043 A 
ATOM     21  F   UNL d   1      10.669  -5.689  -7.593  0.00  0.00    -0.206 F 
ATOM     22  C   UNL d   1       8.282  -3.771  -5.643  0.00  0.00     0.021 A 
ENDBRANCH  15  16
ENDBRANCH  14  15
ENDBRANCH  13  14
BRANCH  13  23
ATOM     23  O   UNL d   1       3.096  -2.442  -5.651  0.00  0.00    -0.393 OA
ATOM     24  H   UNL d   1       2.765  -3.349  -5.540  0.00  0.00     0.210 HD
ENDBRANCH  13  23
ENDBRANCH   1  13
TORSDOF 7
