REMARK  7 active torsions:
REMARK  status: ('A' for Active; 'I' for Inactive)
REMARK    1  A    between atoms: C_10  and  C_1 
REMARK    2  A    between atoms: C_13  and  N_4 
REMARK    3  A    between atoms: C_8  and  C_11 
REMARK    4  A    between atoms: C_9  and  C_12 
REMARK    5  A    between atoms: C_14  and  C_13 
REMARK       I    between atoms: N_20  and  C_14 
REMARK       I    between atoms: C_15  and  N_19 
REMARK    6  A    between atoms: C_21  and  C_15 
REMARK    7  A    between atoms: N_19  and  N_20 
ROOT
ATOM      1  C   UNL d   1      -1.253   0.319   1.113  0.00  0.00     0.144 A 
ATOM      2  N   UNL d   1      -0.511   1.308   0.591  0.00  0.00    -0.268 N 
ATOM      3  HN  UNL d   1      -0.740   2.293   0.462  1.00  0.00     0.190 HD
ATOM      4  N   UNL d   1       0.619   0.643   0.283  0.00  0.00    -0.207 N 
ATOM      5  N   UNL d   1      -0.617  -0.899   1.046  0.00  0.00    -0.266 N 
ATOM      6  HN  UNL d   1      -0.995  -1.799   1.343  1.00  0.00     0.186 HD
ATOM      7  N   UNL d   1       0.583  -0.679   0.520  0.00  0.00    -0.002 NA
ENDROOT
BRANCH   4   8
ATOM      8  C   UNL d   1       1.822   1.401   0.028  0.00  0.00     0.271 C 
BRANCH   8   9
ATOM      9  C   UNL d   1       3.086   0.644  -0.252  0.00  0.00     0.257 C 
ATOM     10  N   UNL d   1       3.392  -0.446   0.530  0.00  0.00    -0.266 N 
ATOM     11  H   UNL d   1       2.690  -0.989   1.043  0.00  0.00     0.190 HD
ATOM     12  O   UNL d   1       3.909   1.079  -1.069  0.00  0.00    -0.270 OA
BRANCH  10  13
ATOM     13  N   UNL d   1       4.604  -1.092   0.245  0.00  0.00    -0.263 N 
ATOM     14  C   UNL d   1       5.191  -1.890   1.209  0.00  0.00     0.270 C 
ATOM     15  O   UNL d   1       4.641  -2.212   2.258  0.00  0.00    -0.266 OA
ATOM     16  H   UNL d   1       5.183  -0.610  -0.444  0.00  0.00     0.190 HD
BRANCH  14  17
ATOM     17  C   UNL d   1       6.587  -2.309   0.908  0.00  0.00     0.033 A 
ATOM     18  C   UNL d   1       7.478  -2.526   1.967  0.00  0.00     0.019 A 
ATOM     19  C   UNL d   1       8.807  -2.879   1.705  0.00  0.00     0.025 A 
ATOM     20  C   UNL d   1       9.239  -3.028   0.389  0.00  0.00     0.034 A 
ATOM     21  C   UNL d   1       8.355  -2.839  -0.671  0.00  0.00     0.025 A 
ATOM     22 CL   UNL d   1      10.878  -3.448   0.066  0.00  0.00    -0.084 Cl
ATOM     23  C   UNL d   1       7.028  -2.485  -0.413  0.00  0.00     0.019 A 
ENDBRANCH  14  17
ENDBRANCH  10  13
ENDBRANCH   8   9
ENDBRANCH   4   8
BRANCH   1  24
ATOM     24  C   UNL d   1      -2.507   0.554   1.819  0.00  0.00     0.012 A 
ATOM     25  C   UNL d   1      -3.005   1.865   1.932  0.00  0.00     0.031 A 
ATOM     26  C   UNL d   1      -4.127   2.157   2.719  0.00  0.00     0.049 A 
ATOM     27  C   UNL d   1      -4.772   1.105   3.385  0.00  0.00     0.032 A 
ATOM     28  C   UNL d   1      -4.314  -0.220   3.266  0.00  0.00     0.049 A 
ATOM     29  C   UNL d   1      -3.180  -0.484   2.477  0.00  0.00     0.031 A 
BRANCH  26  30
ATOM     30  C   UNL d   1      -4.603   3.581   2.891  0.00  0.00     0.417 C 
ATOM     31  F   UNL d   1      -3.928   4.479   2.123  0.00  0.00    -0.166 F 
ATOM     32  F   UNL d   1      -5.920   3.728   2.576  0.00  0.00    -0.166 F 
ATOM     33  F   UNL d   1      -4.472   4.014   4.175  0.00  0.00    -0.166 F 
ENDBRANCH  26  30
BRANCH  28  34
ATOM     34  C   UNL d   1      -5.018  -1.323   4.023  0.00  0.00     0.417 C 
ATOM     35  F   UNL d   1      -4.514  -2.562   3.778  0.00  0.00    -0.166 F 
ATOM     36  F   UNL d   1      -4.947  -1.147   5.371  0.00  0.00    -0.166 F 
ATOM     37  F   UNL d   1      -6.344  -1.390   3.723  0.00  0.00    -0.166 F 
ENDBRANCH  28  34
ENDBRANCH   1  24
TORSDOF 7
