REMARK  3 active torsions:
REMARK  status: ('A' for Active; 'I' for Inactive)
REMARK    1  A    between atoms: C_4  and  N_1 
REMARK    2  A    between atoms: C_5  and  C_7 
REMARK    3  A    between atoms: C_6  and  C_8 
ROOT
ATOM      1  C   UNL d   1       1.476   2.179  -0.985  0.00  0.00     0.046 A 
ATOM      2  C   UNL d   1       2.174   4.522  -0.884  0.00  0.00     0.050 A 
ATOM      3  C   UNL d   1       2.975   3.099  -2.697  0.00  0.00     0.050 A 
ATOM      4  C   UNL d   1       1.435   3.439  -0.374  0.00  0.00     0.046 A 
ATOM      5  C   UNL d   1       2.265   2.024  -2.139  0.00  0.00     0.046 A 
ATOM      6  C   UNL d   1       2.929   4.341  -2.054  0.00  0.00     0.032 A 
ENDROOT
BRANCH   1   7
ATOM      7  N   UNL d   1       0.691   1.058  -0.527  0.00  0.00    -0.252 N 
ATOM      8  C   UNL d   1       1.333  -0.187  -0.451  0.00  0.00     0.231 C 
ATOM      9  C   UNL d   1       0.462  -1.411  -0.309  0.00  0.00     0.108 C 
ATOM     10  O   UNL d   1       2.557  -0.340  -0.523  0.00  0.00    -0.273 OA
ATOM     11  C   UNL d   1      -0.817  -1.182   0.471  0.00  0.00    -0.001 C 
ATOM     12  C   UNL d   1      -1.515   0.047  -0.073  0.00  0.00     0.108 C 
ATOM     13  C   UNL d   1      -0.582  -1.092   1.979  0.00  0.00     0.011 C 
ATOM     14  C   UNL d   1      -0.632   1.276  -0.123  0.00  0.00     0.231 C 
ATOM     15  O   UNL d   1      -1.147   2.376   0.081  0.00  0.00    -0.273 OA
ENDBRANCH   1   7
BRANCH   2  16
ATOM     16  C   UNL d   1       2.162   5.872  -0.204  0.00  0.00     0.417 C 
ATOM     17  F   UNL d   1       1.470   5.894   0.968  0.00  0.00    -0.166 F 
ATOM     18  F   UNL d   1       3.417   6.306   0.096  0.00  0.00    -0.166 F 
ATOM     19  F   UNL d   1       1.612   6.840  -0.987  0.00  0.00    -0.166 F 
ENDBRANCH   2  16
BRANCH   3  20
ATOM     20  C   UNL d   1       3.749   2.930  -3.983  0.00  0.00     0.417 C 
ATOM     21  F   UNL d   1       3.679   1.674  -4.504  0.00  0.00    -0.166 F 
ATOM     22  F   UNL d   1       3.300   3.763  -4.963  0.00  0.00    -0.166 F 
ATOM     23  F   UNL d   1       5.072   3.207  -3.838  0.00  0.00    -0.166 F 
ENDBRANCH   3  20
TORSDOF 3
