REMARK  5 active torsions:
REMARK  status: ('A' for Active; 'I' for Inactive)
REMARK    1  A    between atoms: C_3  and  C_1 
REMARK       I    between atoms: N_4  and  C_1 
REMARK    2  A    between atoms: C_2  and  O_7 
REMARK    3  A    between atoms: C_8  and  C_2 
REMARK    4  A    between atoms: O_7  and  N_4 
REMARK    5  A    between atoms: C_9  and  C_10 
ROOT
ATOM      1  O   UNL d   1      -2.699  -0.724   2.576  0.00  0.00    -0.192 OA
ENDROOT
BRANCH   1   2
ATOM      2  C   UNL d   1      -1.687   0.154   2.340  0.00  0.00     0.315 C 
ATOM      3  O   UNL d   1      -1.214   0.398   1.240  0.00  0.00    -0.257 OA
BRANCH   2   4
ATOM      4  C   UNL d   1      -1.160   0.661   3.638  0.00  0.00     0.041 A 
ATOM      5  C   UNL d   1      -0.124   1.594   3.637  0.00  0.00     0.018 A 
ATOM      6  C   UNL d   1       0.513   1.949   4.838  0.00  0.00     0.009 A 
ATOM      7  C   UNL d   1       0.138   1.372   6.069  0.00  0.00    -0.051 A 
ATOM      8  C   UNL d   1      -0.943   0.471   6.047  0.00  0.00     0.009 A 
ATOM      9  C   UNL d   1      -1.582   0.121   4.855  0.00  0.00     0.018 A 
BRANCH   7  10
ATOM     10  C   UNL d   1       0.910   1.686   7.364  0.00  0.00    -0.024 C 
ATOM     11  C   UNL d   1       0.364   0.935   8.604  0.00  0.00     0.019 C 
ATOM     12  C   UNL d   1       2.389   1.274   7.201  0.00  0.00     0.019 C 
ATOM     13  C   UNL d   1       0.838   3.194   7.676  0.00  0.00     0.019 C 
ENDBRANCH   7  10
ENDBRANCH   2   4
ENDBRANCH   1   2
BRANCH   1  14
ATOM     14  N   UNL d   1      -2.830  -1.717   1.564  0.00  0.00    -0.221 N 
ATOM     15  C   UNL d   1      -3.311  -2.897   2.099  0.00  0.00     0.275 C 
ATOM     16  O   UNL d   1      -3.790  -2.987   3.228  0.00  0.00    -0.265 OA
ATOM     17  H   UNL d   1      -2.133  -1.679   0.825  0.00  0.00     0.198 HD
BRANCH  15  18
ATOM     18  C   UNL d   1      -3.192  -4.132   1.274  0.00  0.00     0.035 A 
ATOM     19  C   UNL d   1      -3.249  -5.367   1.943  0.00  0.00     0.042 A 
ATOM     20  C   UNL d   1      -3.183  -6.569   1.232  0.00  0.00     0.056 A 
ATOM     21 CL   UNL d   1      -3.257  -8.042   2.130  0.00  0.00    -0.083 Cl
ATOM     22  C   UNL d   1      -3.064  -6.544  -0.161  0.00  0.00     0.055 A 
ATOM     23  C   UNL d   1      -3.010  -5.317  -0.830  0.00  0.00     0.026 A 
ATOM     24 CL   UNL d   1      -2.989  -7.985  -1.110  0.00  0.00    -0.083 Cl
ATOM     25  C   UNL d   1      -3.075  -4.112  -0.119  0.00  0.00     0.019 A 
ENDBRANCH  15  18
ENDBRANCH   1  14
TORSDOF 5
