REMARK  1 active torsions:
REMARK  status: ('A' for Active; 'I' for Inactive)
REMARK    1  A    between atoms: C_6  and  N_1 
ROOT
ATOM      1  N   UNL d   1      -2.393  -0.778   0.036  0.00  0.00    -0.244 N 
ATOM      2  C   UNL d   1      -1.300  -1.606   0.193  0.00  0.00     0.267 A 
ATOM      3  C   UNL d   1      -1.984   0.532  -0.119  0.00  0.00     0.266 A 
ATOM      4  C   UNL d   1      -0.123  -0.765   0.127  0.00  0.00     0.064 A 
ATOM      5  C   UNL d   1      -0.525   0.534  -0.051  0.00  0.00     0.051 A 
ATOM      6  O   UNL d   1      -1.200  -2.814   0.321  0.00  0.00    -0.267 OA
ATOM      7  O   UNL d   1      -2.608   1.567  -0.265  0.00  0.00    -0.267 OA
ATOM      8  N   UNL d   1       2.144  -0.091   0.097  0.00  0.00    -0.374 N 
ATOM      9  HN  UNL d   1       3.139  -0.311   0.145  1.00  0.00     0.164 HD
ATOM     10  C   UNL d   1       1.208  -1.067   0.190  0.00  0.00     0.105 A 
ATOM     11  C   UNL d   1       0.383   1.567  -0.145  0.00  0.00     0.035 A 
ATOM     12  C   UNL d   1       1.715   1.195  -0.062  0.00  0.00     0.088 A 
ENDROOT
BRANCH   1  13
ATOM     13  C   UNL d   1      -3.745  -1.229  -0.009  0.00  0.00     0.046 A 
ATOM     14  C   UNL d   1      -4.104  -2.497   0.483  0.00  0.00     0.032 A 
ATOM     15  C   UNL d   1      -5.418  -2.972   0.393  0.00  0.00     0.026 A 
ATOM     16  C   UNL d   1      -6.398  -2.186  -0.199  0.00  0.00     0.034 A 
ATOM     17  C   UNL d   1      -6.077  -0.920  -0.676  0.00  0.00     0.026 A 
ATOM     18 CL   UNL d   1      -8.003  -2.783  -0.349  0.00  0.00    -0.084 Cl
ATOM     19  C   UNL d   1      -4.764  -0.442  -0.570  0.00  0.00     0.032 A 
ENDBRANCH   1  13
TORSDOF 1
