REMARK  3 active torsions:
REMARK  status: ('A' for Active; 'I' for Inactive)
REMARK    1  A    between atoms: C_10  and  C_11 
REMARK    2  A    between atoms: C_11  and  C_14 
REMARK    3  A    between atoms: O_21  and  C_12 
ROOT
ATOM      1  C   UNL d   1      -1.032  -1.673  -0.066  0.00  0.00     0.256 C 
ATOM      2  N   UNL d   1       0.312  -1.721  -0.330  0.00  0.00    -0.325 N 
ATOM      3  C   UNL d   1       1.118  -0.520  -0.266  0.00  0.00     0.143 C 
ATOM      4  C   UNL d   1      -1.632  -0.328  -0.140  0.00  0.00     0.065 A 
ATOM      5  O   UNL d   1       0.461   0.532  -1.004  0.00  0.00    -0.319 OA
ATOM      6  C   UNL d   1      -0.844   0.715  -0.626  0.00  0.00     0.087 A 
ATOM      7  O   UNL d   1      -1.676  -2.670   0.219  0.00  0.00    -0.267 OA
ATOM      8  C   UNL d   1       1.356  -0.072   1.198  0.00  0.00     0.062 C 
ATOM      9  C   UNL d   1       2.476  -0.766  -0.953  0.00  0.00     0.062 C 
ATOM     10  C   UNL d   1      -2.934  -0.087   0.299  0.00  0.00     0.020 A 
ATOM     11  C   UNL d   1       3.627   0.911   0.626  0.00  0.00    -0.010 C 
ATOM     12  C   UNL d   1       3.433   0.428  -0.827  0.00  0.00     0.010 C 
ATOM     13  C   UNL d   1       2.254   1.162   1.265  0.00  0.00     0.010 C 
ATOM     14  C   UNL d   1      -1.360   2.003  -0.710  0.00  0.00     0.038 A 
ATOM     15  C   UNL d   1      -3.439   1.214   0.253  0.00  0.00     0.001 A 
ATOM     16  C   UNL d   1      -2.655   2.255  -0.253  0.00  0.00     0.003 A 
ATOM     17  H   UNL d   1       0.737  -2.622  -0.155  0.00  0.00     0.165 HD
ENDROOT
BRANCH  11  18
ATOM     18  C   UNL d   1       4.505  -0.083   1.423  0.00  0.00     0.043 C 
BRANCH  18  19
ATOM     19  C   UNL d   1       4.741   0.281   2.871  0.00  0.00    -0.058 A 
ATOM     20  C   UNL d   1       4.263  -0.550   3.895  0.00  0.00     0.010 A 
ATOM     21  C   UNL d   1       4.491  -0.239   5.239  0.00  0.00     0.037 A 
ATOM     22  C   UNL d   1       5.201   0.911   5.579  0.00  0.00     0.068 A 
ATOM     23  C   UNL d   1       5.699   1.731   4.566  0.00  0.00     0.037 A 
ATOM     24  C   UNL d   1       5.465   1.426   3.221  0.00  0.00     0.010 A 
BRANCH  22  25
ATOM     25  O   UNL d   1       5.509   1.298   6.854  0.00  0.00    -0.356 OA
ATOM     26  C   UNL d   1       4.567   0.920   7.853  0.00  0.00     0.210 C 
ENDBRANCH  22  25
ENDBRANCH  18  19
ENDBRANCH  11  18
TORSDOF 3
