REMARK  2 active torsions:
REMARK  status: ('A' for Active; 'I' for Inactive)
REMARK    1  A    between atoms: N_6  and  N_1 
REMARK       I    between atoms: C_3  and  N_6 
REMARK       I    between atoms: N_9  and  C_3 
REMARK    2  A    between atoms: C_4  and  C_5 
ROOT
ATOM      1  N   UNL d   1       0.950  -0.020   0.081  0.00  0.00    -0.300 N 
ATOM      2  HN  UNL d   1       1.968  -0.075   0.101  1.00  0.00     0.186 HD
ATOM      3  C   UNL d   1       0.268  -0.770  -0.733  0.00  0.00     0.034 C 
ATOM      4  C   UNL d   1      -1.247  -0.744  -0.816  0.00  0.00     0.070 C 
ENDROOT
BRANCH   1   5
ATOM      5  N   UNL d   1       0.291   0.841   0.907  0.00  0.00    -0.252 N 
ATOM      6  C   UNL d   1       0.975   1.754   1.674  0.00  0.00     0.332 C 
ATOM      7  O   UNL d   1       0.423   2.512   2.459  0.00  0.00    -0.246 OA
ATOM      8  N   UNL d   1       2.314   1.748   1.475  0.00  0.00    -0.351 N 
ATOM      9  H   UNL d   1       2.675   1.046   0.841  0.00  0.00     0.160 HD
ATOM     10  H   UNL d   1       2.919   2.345   2.016  0.00  0.00     0.160 HD
ATOM     11  H   UNL d   1      -0.716   0.835   1.002  0.00  0.00     0.191 HD
ENDBRANCH   1   5
BRANCH   3  12
ATOM     12  C   UNL d   1       1.015  -1.718  -1.622  0.00  0.00     0.009 A 
ATOM     13  C   UNL d   1       2.273  -1.411  -2.170  0.00  0.00     0.046 A 
ATOM     14 CL   UNL d   1       3.063   0.119  -1.994  0.00  0.00    -0.083 Cl
ATOM     15  C   UNL d   1       2.947  -2.359  -2.953  0.00  0.00     0.025 A 
ATOM     16  C   UNL d   1       2.375  -3.605  -3.206  0.00  0.00     0.002 A 
ATOM     17  C   UNL d   1       1.127  -3.913  -2.674  0.00  0.00     0.001 A 
ATOM     18  C   UNL d   1       0.455  -2.982  -1.878  0.00  0.00     0.015 A 
ENDBRANCH   3  12
TORSDOF 2
