REMARK  7 active torsions:
REMARK  status: ('A' for Active; 'I' for Inactive)
REMARK    1  A    between atoms: N_4  and  C_1 
REMARK    2  A    between atoms: N_5  and  C_2 
REMARK    3  A    between atoms: N_14  and  C_3 
REMARK    4  A    between atoms: C_6  and  C_7 
REMARK    5  A    between atoms: C_19  and  N_14 
REMARK    6  A    between atoms: N_18  and  C_20 
REMARK    7  A    between atoms: C_20  and  C_19 
ROOT
ATOM      1  C   UNL d   1       1.399  -0.056  -0.028  0.00  0.00     0.132 A 
ATOM      2  C   UNL d   1      -0.735  -1.072  -0.010  0.00  0.00     0.132 A 
ATOM      3  C   UNL d   1       0.665  -1.259  -0.094  0.00  0.00     0.095 A 
ATOM      4  C   UNL d   1      -0.592   1.352   0.162  0.00  0.00     0.052 A 
ATOM      5  C   UNL d   1      -1.363   0.186   0.115  0.00  0.00     0.054 A 
ATOM      6  C   UNL d   1       0.797   1.219   0.093  0.00  0.00     0.054 A 
ENDROOT
BRANCH   3   7
ATOM      7  N   UNL d   1       1.176  -2.553  -0.175  0.00  0.00    -0.384 N 
ATOM      8  H   UNL d   1       0.982  -3.132   0.645  0.00  0.00     0.159 HD
BRANCH   7   9
ATOM      9  C   UNL d   1       2.449  -2.918  -0.805  0.00  0.00     0.150 C 
BRANCH   9  10
ATOM     10  C   UNL d   1       2.547  -4.449  -0.976  0.00  0.00     0.286 C 
BRANCH  10  11
ATOM     11  N   UNL d   1       2.575  -5.158   0.310  0.00  0.00     0.079 N 
ATOM     12  H   UNL d   1       2.743  -6.149   0.133  0.00  0.00     0.312 HD
ATOM     13  H   UNL d   1       1.659  -5.116   0.748  0.00  0.00     0.312 HD
ENDBRANCH  10  11
ENDBRANCH   9  10
ENDBRANCH   7   9
ENDBRANCH   3   7
BRANCH   2  14
ATOM     14  N   UNL d   1      -1.626  -2.222  -0.054  0.00  0.00    -0.113 N 
ATOM     15  O   UNL d   1      -1.659  -2.892  -1.091  0.00  0.00    -0.532 OA
ATOM     16  O   UNL d   1      -2.332  -2.413   0.951  0.00  0.00    -0.532 OA
ENDBRANCH   2  14
BRANCH   1  17
ATOM     17  N   UNL d   1       2.844  -0.034   0.029  0.00  0.00    -0.113 N 
ATOM     18  O   UNL d   1       3.448  -0.069  -1.053  0.00  0.00    -0.532 OA
ATOM     19  O   UNL d   1       3.356   0.099   1.145  0.00  0.00    -0.532 OA
ENDBRANCH   1  17
BRANCH   4  20
ATOM     20  C   UNL d   1      -1.224   2.718   0.308  0.00  0.00     0.417 C 
ATOM     21  F   UNL d   1      -2.580   2.684   0.350  0.00  0.00    -0.166 F 
ATOM     22  F   UNL d   1      -0.821   3.348   1.444  0.00  0.00    -0.166 F 
ATOM     23  F   UNL d   1      -0.895   3.545  -0.721  0.00  0.00    -0.166 F 
ENDBRANCH   4  20
TORSDOF 7
