REMARK  1 active torsions:
REMARK  status: ('A' for Active; 'I' for Inactive)
REMARK    1  A    between atoms: C_6  and  N_1 
ROOT
ATOM      1  N   UNL d   1       2.469  -0.588  -0.013  0.00  0.00    -0.254 N 
ATOM      2  C   UNL d   1       2.417   0.816  -0.006  0.00  0.00     0.186 A 
ATOM      3  C   UNL d   1       1.318  -1.405  -0.013  0.00  0.00     0.267 A 
ATOM      4  C   UNL d   1       0.009  -0.718   0.022  0.00  0.00     0.060 A 
ATOM      5  N   UNL d   1       1.172   1.385   0.038  0.00  0.00    -0.332 N 
ATOM      6  C   UNL d   1      -0.018   0.669   0.034  0.00  0.00     0.050 A 
ATOM      7  S   UNL d   1       3.692   1.910  -0.123  0.00  0.00    -0.040 SA
ATOM      8  O   UNL d   1       1.326  -2.635  -0.029  0.00  0.00    -0.267 OA
ATOM      9  C   UNL d   1      -1.192  -1.440   0.030  0.00  0.00     0.026 A 
ATOM     10  C   UNL d   1      -1.232   1.353   0.021  0.00  0.00     0.031 A 
ATOM     11  C   UNL d   1      -2.421  -0.765   0.031  0.00  0.00    -0.061 A 
ATOM     12  C   UNL d   1      -2.430   0.637   0.012  0.00  0.00     0.009 A 
ATOM     13  C   UNL d   1      -3.719  -1.518   0.017  0.00  0.00     0.048 C 
ATOM     14  H   UNL d   1       1.145   2.399   0.024  0.00  0.00     0.168 HD
ENDROOT
BRANCH   1  15
ATOM     15  C   UNL d   1       3.732  -1.263  -0.097  0.00  0.00     0.046 A 
ATOM     16  C   UNL d   1       4.706  -1.094   0.896  0.00  0.00     0.055 A 
ATOM     17  C   UNL d   1       5.971  -1.674   0.754  0.00  0.00     0.053 A 
ATOM     18 CL   UNL d   1       7.118  -1.398   2.017  0.00  0.00    -0.083 Cl
ATOM     19  C   UNL d   1       6.269  -2.432  -0.383  0.00  0.00     0.032 A 
ATOM     20  C   UNL d   1       5.286  -2.639  -1.356  0.00  0.00     0.023 A 
ATOM     21 BR   UNL d   1       7.979  -3.196  -0.690  0.00  0.00    -0.049 Br
ATOM     22  C   UNL d   1       4.019  -2.070  -1.206  0.00  0.00     0.031 A 
ENDBRANCH   1  15
TORSDOF 1
