REMARK  1 active torsions:
REMARK  status: ('A' for Active; 'I' for Inactive)
REMARK       I    between atoms: C_3  and  N_1 
REMARK    1  A    between atoms: C_6  and  C_3 
ROOT
ATOM      1  N   UNL d   1       0.881  -0.649  -0.042  0.00  0.00    -0.218 N 
ATOM      2  C   UNL d   1      -0.433  -1.084   0.152  0.00  0.00     0.078 C 
ATOM      3  C   UNL d   1       2.079  -1.412  -0.141  0.00  0.00     0.284 C 
ATOM      4  N   UNL d   1       0.928   0.715  -0.193  0.00  0.00    -0.302 N 
ATOM      5  HN  UNL d   1       1.756   1.307  -0.249  1.00  0.00     0.186 HD
ATOM      6  C   UNL d   1      -0.836  -2.406   0.561  0.00  0.00     0.033 A 
ATOM      7  C   UNL d   1      -1.233   0.026  -0.050  0.00  0.00     0.051 C 
ATOM      8  S   UNL d   1      -2.318  -3.091   0.029  0.00  0.00    -0.100 SA
ATOM      9  C   UNL d   1      -0.349   1.092  -0.250  0.00  0.00     0.110 C 
ATOM     10  O   UNL d   1       1.935  -2.582  -0.498  0.00  0.00    -0.265 OA
ATOM     11  C   UNL d   1      -0.186  -3.257   1.436  0.00  0.00     0.021 A 
ATOM     12  C   UNL d   1      -2.072  -4.514   0.945  0.00  0.00     0.050 A 
ATOM     13  C   UNL d   1      -0.892  -4.477   1.647  0.00  0.00     0.008 A 
ENDROOT
BRANCH   3  14
ATOM     14  C   UNL d   1       3.394  -0.856   0.193  0.00  0.00     0.074 A 
ATOM     15  S   UNL d   1       4.794  -1.804  -0.130  0.00  0.00    -0.097 SA
ATOM     16  C   UNL d   1       5.833  -0.654   0.587  0.00  0.00     0.050 A 
ATOM     17  C   UNL d   1       5.146   0.443   1.049  0.00  0.00     0.009 A 
ATOM     18  C   UNL d   1       3.742   0.328   0.819  0.00  0.00     0.025 A 
ENDBRANCH   3  14
TORSDOF 1
