REMARK  4 active torsions:
REMARK  status: ('A' for Active; 'I' for Inactive)
REMARK    1  A    between atoms: N_2  and  C_1 
REMARK    2  A    between atoms: C_9  and  C_3 
REMARK    3  A    between atoms: O_15  and  C_9 
REMARK    4  A    between atoms: C_18  and  O_15 
ROOT
ATOM      1  C   UNL d   1      -2.145  -0.952  -0.068  0.00  0.00     0.104 A 
ATOM      2  C   UNL d   1      -1.026  -1.775  -0.059  0.00  0.00     0.081 A 
ATOM      3  S   UNL d   1      -1.759   0.705  -0.145  0.00  0.00    -0.075 SA
ATOM      4  C   UNL d   1       0.184  -0.979  -0.025  0.00  0.00    -0.026 A 
ATOM      5  C   UNL d   1      -0.096   0.377  -0.060  0.00  0.00    -0.008 A 
ATOM      6  C   UNL d   1       1.605  -1.474  -0.024  0.00  0.00     0.041 C 
ATOM      7  C   UNL d   1       0.916   1.481  -0.012  0.00  0.00     0.047 C 
ATOM      8  C   UNL d   1       2.592  -0.380   0.411  0.00  0.00     0.005 C 
ATOM      9  C   UNL d   1       2.324   0.946  -0.309  0.00  0.00     0.005 C 
ENDROOT
BRANCH   1  10
ATOM     10  N   UNL d   1      -3.482  -1.270   0.053  0.00  0.00    -0.238 N 
ATOM     11  C   UNL d   1      -3.961  -2.164   0.965  0.00  0.00     0.255 A 
ATOM     12  C   UNL d   1      -5.386  -2.345   0.655  0.00  0.00     0.080 A 
ATOM     13  O   UNL d   1      -3.414  -2.702   1.911  0.00  0.00    -0.268 OA
ATOM     14  C   UNL d   1      -5.676  -1.593  -0.407  0.00  0.00     0.080 A 
ATOM     15  C   UNL d   1      -4.452  -0.888  -0.819  0.00  0.00     0.255 A 
ATOM     16  O   UNL d   1      -4.410  -0.181  -1.812  0.00  0.00    -0.268 OA
ENDBRANCH   1  10
BRANCH   2  17
ATOM     17  C   UNL d   1      -1.151  -3.234  -0.130  0.00  0.00     0.296 C 
ATOM     18  O   UNL d   1      -2.102  -3.790  -0.670  0.00  0.00    -0.259 OA
BRANCH  17  19
ATOM     19  O   UNL d   1      -0.139  -3.887   0.504  0.00  0.00    -0.318 OA
BRANCH  19  20
ATOM     20  C   UNL d   1      -0.402  -5.255   0.847  0.00  0.00     0.174 C 
ATOM     21  C   UNL d   1       0.502  -6.187   0.067  0.00  0.00     0.034 C 
ENDBRANCH  19  20
ENDBRANCH  17  19
ENDBRANCH   2  17
TORSDOF 4
