REMARK  3 active torsions:
REMARK  status: ('A' for Active; 'I' for Inactive)
REMARK    1  A    between atoms: N_8  and  C_4 
REMARK    2  A    between atoms: C_14  and  N_8 
REMARK    3  A    between atoms: C_12  and  C_13 
ROOT
ATOM      1  C   UNL d   1      -3.782  -0.132  -0.222  0.00  0.00     0.098 A 
ATOM      2  C   UNL d   1      -4.357   0.139   1.118  0.00  0.00     0.199 A 
ATOM      3  C   UNL d   1      -3.426   1.181  -0.841  0.00  0.00     0.199 A 
ATOM      4  C   UNL d   1      -3.647  -1.364  -0.744  0.00  0.00     0.112 C 
ATOM      5  C   UNL d   1      -4.418   1.595   1.246  0.00  0.00     0.029 A 
ATOM      6  C   UNL d   1      -3.853   2.203   0.129  0.00  0.00     0.029 A 
ATOM      7  C   UNL d   1      -3.032  -1.567  -2.027  0.00  0.00     0.113 C 
ATOM      8  N   UNL d   1      -2.518  -1.772  -3.045  0.00  0.00    -0.190 NA
ATOM      9  O   UNL d   1      -2.902   1.394  -1.910  0.00  0.00    -0.286 OA
ATOM     10  O   UNL d   1      -4.658  -0.660   1.983  0.00  0.00    -0.286 OA
ATOM     11  C   UNL d   1      -4.927   2.334   2.301  0.00  0.00     0.016 A 
ATOM     12  C   UNL d   1      -3.748   3.582   0.038  0.00  0.00     0.016 A 
ATOM     13  C   UNL d   1      -4.248   4.345   1.102  0.00  0.00     0.001 A 
ATOM     14  C   UNL d   1      -4.839   3.726   2.221  0.00  0.00     0.001 A 
ENDROOT
BRANCH   4  15
ATOM     15  N   UNL d   1      -3.973  -2.580  -0.129  0.00  0.00    -0.250 NA
ATOM     16  H   UNL d   1      -3.638  -2.578   0.840  0.00  0.00     0.134 HD
BRANCH  15  17
ATOM     17  C   UNL d   1      -5.316  -3.067  -0.052  0.00  0.00     0.013 A 
ATOM     18  C   UNL d   1      -6.333  -2.669  -0.920  0.00  0.00     0.024 A 
ATOM     19  C   UNL d   1      -7.641  -3.155  -0.761  0.00  0.00     0.010 A 
ATOM     20  C   UNL d   1      -7.977  -4.071   0.254  0.00  0.00    -0.051 A 
ATOM     21  C   UNL d   1      -6.922  -4.549   1.044  0.00  0.00     0.010 A 
ATOM     22  C   UNL d   1      -5.615  -4.065   0.884  0.00  0.00     0.024 A 
BRANCH  20  23
ATOM     23  C   UNL d   1      -9.445  -4.473   0.491  0.00  0.00    -0.024 C 
ATOM     24  C   UNL d   1      -9.643  -5.418   1.700  0.00  0.00     0.019 C 
ATOM     25  C   UNL d   1     -10.280  -3.203   0.775  0.00  0.00     0.019 C 
ATOM     26  C   UNL d   1     -10.027  -5.183  -0.748  0.00  0.00     0.019 C 
ENDBRANCH  20  23
ENDBRANCH  15  17
ENDBRANCH   4  15
TORSDOF 3
