REMARK  6 active torsions:
REMARK  status: ('A' for Active; 'I' for Inactive)
REMARK    1  A    between atoms: C_7  and  N_1 
REMARK    2  A    between atoms: C_2  and  C_3 
REMARK    3  A    between atoms: C_3  and  O_8 
REMARK    4  A    between atoms: O_8  and  N_4 
REMARK    5  A    between atoms: C_6  and  C_9 
REMARK    6  A    between atoms: N_16  and  C_6 
ROOT
ATOM      1  N   UNL d   1      -0.608   5.345   2.543  0.00  0.00    -0.246 N 
ATOM      2  HN  UNL d   1      -0.282   6.292   2.740  1.00  0.00     0.196 HD
ATOM      3  C   UNL d   1       0.081   4.466   1.876  0.00  0.00     0.109 C 
ENDROOT
BRANCH   1   4
ATOM      4  O   UNL d   1      -1.857   4.841   2.962  0.00  0.00    -0.193 OA
BRANCH   4   5
ATOM      5  C   UNL d   1      -2.474   5.761   3.766  0.00  0.00     0.321 C 
ATOM      6  O   UNL d   1      -2.032   6.836   4.141  0.00  0.00    -0.257 OA
BRANCH   5   7
ATOM      7  C   UNL d   1      -3.824   5.288   4.125  0.00  0.00     0.118 A 
ATOM      8  C   UNL d   1      -4.829   6.224   4.375  0.00  0.00     0.135 A 
ATOM      9  F   UNL d   1      -4.606   7.538   4.234  0.00  0.00    -0.205 F 
ATOM     10  C   UNL d   1      -6.111   5.823   4.760  0.00  0.00     0.043 A 
ATOM     11  C   UNL d   1      -6.402   4.468   4.900  0.00  0.00     0.006 A 
ATOM     12  C   UNL d   1      -5.409   3.523   4.652  0.00  0.00     0.043 A 
ATOM     13  C   UNL d   1      -4.130   3.935   4.269  0.00  0.00     0.135 A 
ATOM     14  F   UNL d   1      -3.201   2.988   4.066  0.00  0.00    -0.205 F 
ENDBRANCH   5   7
ENDBRANCH   4   5
ENDBRANCH   1   4
BRANCH   3  15
ATOM     15  C   UNL d   1       1.430   4.891   1.355  0.00  0.00     0.006 A 
ATOM     16  C   UNL d   1       2.221   4.033   0.581  0.00  0.00     0.050 A 
ATOM     17  C   UNL d   1       3.474   4.472   0.118  0.00  0.00     0.103 A 
ATOM     18  C   UNL d   1       3.937   5.763   0.403  0.00  0.00     0.036 A 
ATOM     19  C   UNL d   1       3.143   6.619   1.162  0.00  0.00     0.003 A 
ATOM     20  C   UNL d   1       1.901   6.185   1.637  0.00  0.00     0.015 A 
BRANCH  17  21
ATOM     21  N   UNL d   1       4.314   3.561  -0.670  0.00  0.00    -0.116 N 
ATOM     22  O   UNL d   1       3.900   2.406  -0.848  0.00  0.00    -0.532 OA
ATOM     23  O   UNL d   1       5.392   3.995  -1.101  0.00  0.00    -0.532 OA
ENDBRANCH  17  21
ENDBRANCH   3  15
BRANCH   3  24
ATOM     24  N   UNL d   1      -0.374   3.187   1.644  0.00  0.00    -0.286 NA
ATOM     25  H   UNL d   1      -1.180   2.961   2.219  0.00  0.00     0.125 HD
ATOM     26  H   UNL d   1       0.314   2.445   1.662  0.00  0.00     0.125 HD
ENDBRANCH   3  24
TORSDOF 6
