REMARK  4 active torsions:
REMARK  status: ('A' for Active; 'I' for Inactive)
REMARK    1  A    between atoms: C_2  and  C_1 
REMARK       I    between atoms: N_3  and  C_1 
REMARK    2  A    between atoms: C_4  and  N_3 
REMARK    3  A    between atoms: S_5  and  C_6 
REMARK    4  A    between atoms: C_10  and  S_5 
ROOT
ATOM      1  C   UNL d   1      -0.981   0.516  -0.996  0.00  0.00     0.052 C 
ATOM      2  C   UNL d   1      -1.504   1.504  -0.136  0.00  0.00     0.032 C 
ATOM      3  C   UNL d   1      -1.763   0.030  -2.054  0.00  0.00     0.031 C 
ATOM      4  C   UNL d   1      -2.867   1.827  -0.244  0.00  0.00     0.021 C 
ATOM      5  C   UNL d   1      -3.106   0.388  -2.165  0.00  0.00     0.002 C 
ATOM      6  C   UNL d   1      -3.668   1.256  -1.236  0.00  0.00     0.002 C 
ENDROOT
BRANCH   1   7
ATOM      7  N   UNL d   1       0.321  -0.027  -0.885  0.00  0.00    -0.322 N 
ATOM      8  C   UNL d   1       0.870  -0.440   0.321  0.00  0.00     0.262 C 
ATOM      9  O   UNL d   1       0.271  -0.530   1.384  0.00  0.00    -0.267 OA
ATOM     10  H   UNL d   1       0.697  -0.473  -1.714  0.00  0.00     0.169 HD
BRANCH   8  11
ATOM     11  C   UNL d   1       2.278  -0.880   0.262  0.00  0.00     0.109 A 
ATOM     12  C   UNL d   1       3.116  -0.656   1.355  0.00  0.00     0.135 A 
ATOM     13  F   UNL d   1       2.682  -0.009   2.447  0.00  0.00    -0.205 F 
ATOM     14  C   UNL d   1       4.447  -1.067   1.328  0.00  0.00     0.043 A 
ATOM     15  C   UNL d   1       4.956  -1.717   0.203  0.00  0.00     0.006 A 
ATOM     16  C   UNL d   1       4.127  -1.949  -0.893  0.00  0.00     0.043 A 
ATOM     17  C   UNL d   1       2.799  -1.529  -0.856  0.00  0.00     0.135 A 
ATOM     18  F   UNL d   1       2.027  -1.768  -1.930  0.00  0.00    -0.205 F 
ENDBRANCH   8  11
ENDBRANCH   1   7
BRANCH   2  19
ATOM     19  S   UNL d   1      -0.566   2.424   1.082  0.00  0.00    -0.088 SA
BRANCH  19  20
ATOM     20  C   UNL d   1       0.440   3.599   0.184  0.00  0.00     0.005 A 
ATOM     21  C   UNL d   1       0.823   4.757   0.876  0.00  0.00     0.019 A 
ATOM     22  C   UNL d   1       1.654   5.716   0.286  0.00  0.00     0.008 A 
ATOM     23  C   UNL d   1       2.134   5.534  -1.013  0.00  0.00    -0.062 A 
ATOM     24  C   UNL d   1       1.764   4.379  -1.708  0.00  0.00     0.008 A 
ATOM     25  C   UNL d   1       3.012   6.576  -1.641  0.00  0.00     0.048 C 
ATOM     26  C   UNL d   1       0.926   3.423  -1.114  0.00  0.00     0.019 A 
ENDBRANCH  19  20
ENDBRANCH   2  19
TORSDOF 4
