REMARK  7 active torsions:
REMARK  status: ('A' for Active; 'I' for Inactive)
REMARK    1  A    between atoms: C_5  and  C_1 
REMARK    2  A    between atoms: N_3  and  C_2 
REMARK       I    between atoms: C_4  and  N_3 
REMARK    3  A    between atoms: C_12  and  C_4 
REMARK    4  A    between atoms: C_6  and  C_13 
REMARK    5  A    between atoms: O_11  and  C_6 
REMARK    6  A    between atoms: S_10  and  C_12 
REMARK    7  A    between atoms: C_13  and  S_10 
ROOT
ATOM      1  N   UNL d   1       1.222  -2.716   0.124  0.00  0.00    -0.326 N 
ATOM      2  C   UNL d   1       0.728  -3.801   0.824  0.00  0.00     0.231 C 
ATOM      3  O   UNL d   1      -0.107  -3.744   1.729  0.00  0.00    -0.272 OA
ATOM      4  H   UNL d   1       2.168  -2.809  -0.234  0.00  0.00     0.169 HD
ENDROOT
BRANCH   1   5
ATOM      5  C   UNL d   1       0.663  -1.418   0.184  0.00  0.00     0.048 A 
ATOM      6  C   UNL d   1       1.468  -0.266   0.161  0.00  0.00     0.036 A 
ATOM      7  C   UNL d   1       0.877   1.006   0.075  0.00  0.00     0.017 A 
ATOM      8  C   UNL d   1      -0.509   1.137   0.028  0.00  0.00     0.001 A 
ATOM      9  C   UNL d   1      -1.312   0.001   0.072  0.00  0.00     0.002 A 
ATOM     10  C   UNL d   1      -0.731  -1.267   0.156  0.00  0.00     0.030 A 
BRANCH   6  11
ATOM     11  C   UNL d   1       2.945  -0.290   0.309  0.00  0.00     0.158 C 
ATOM     12  O   UNL d   1       3.633   0.459  -0.380  0.00  0.00    -0.293 OA
ATOM     13  C   UNL d   1       3.565  -1.195   1.344  0.00  0.00     0.097 C 
ENDBRANCH   6  11
ENDBRANCH   1   5
BRANCH   2  14
ATOM     14  C   UNL d   1       1.428  -5.108   0.505  0.00  0.00     0.177 C 
BRANCH  14  15
ATOM     15  S   UNL d   1       3.028  -5.194   1.371  0.00  0.00    -0.149 SA
BRANCH  15  16
ATOM     16  C   UNL d   1       2.502  -4.984   3.105  0.00  0.00     0.184 C 
BRANCH  16  17
ATOM     17  C   UNL d   1       1.532  -6.048   3.559  0.00  0.00     0.149 C 
ATOM     18  O   UNL d   1       1.869  -7.163   3.936  0.00  0.00    -0.649 OA
BRANCH  17  19
ATOM     19  O   UNL d   1       0.228  -5.683   3.498  0.00  0.00    -0.776 OA
ATOM     20  H   UNL d   1       0.039  -4.795   3.106  0.00  0.00     0.167 HD
ENDBRANCH  17  19
ENDBRANCH  16  17
ENDBRANCH  15  16
ENDBRANCH  14  15
ENDBRANCH   2  14
TORSDOF 7
