REMARK  6 active torsions:
REMARK  status: ('A' for Active; 'I' for Inactive)
REMARK    1  A    between atoms: C_2  and  C_1 
REMARK       I    between atoms: N_4  and  C_1 
REMARK    2  A    between atoms: O_5  and  C_3 
REMARK    3  A    between atoms: C_8  and  N_4 
REMARK    4  A    between atoms: C_12  and  O_5 
REMARK    5  A    between atoms: C_10  and  C_8 
REMARK    6  A    between atoms: C_11  and  C_10 
ROOT
ATOM      1  C   UNL d   1       2.122  -1.484  -0.529  0.00  0.00     0.083 A 
ATOM      2  C   UNL d   1       3.146  -2.429  -0.384  0.00  0.00     0.163 A 
ATOM      3  N   UNL d   1       4.346  -2.325  -1.028  0.00  0.00    -0.346 N 
ATOM      4  HN  UNL d   1       5.089  -3.004  -0.866  1.00  0.00     0.167 HD
ATOM      5  C   UNL d   1       2.337  -0.452  -1.458  0.00  0.00     0.023 A 
ATOM      6  C   UNL d   1       4.520  -1.299  -1.883  0.00  0.00     0.090 A 
ATOM      7  C   UNL d   1       3.543  -0.363  -2.152  0.00  0.00     0.018 A 
ENDROOT
BRANCH   1   8
ATOM      8  C   UNL d   1       0.862  -1.498   0.286  0.00  0.00     0.256 C 
ATOM      9  N   UNL d   1      -0.261  -0.960  -0.332  0.00  0.00    -0.348 N 
ATOM     10  H   UNL d   1      -0.174  -0.783  -1.325  0.00  0.00     0.163 HD
ATOM     11  O   UNL d   1       0.856  -1.949   1.425  0.00  0.00    -0.267 OA
BRANCH   9  12
ATOM     12  C   UNL d   1      -1.662  -1.000   0.157  0.00  0.00     0.026 C 
ATOM     13  C   UNL d   1      -2.560  -0.686  -1.057  0.00  0.00     0.038 C 
ATOM     14  C   UNL d   1      -2.017  -2.448   0.583  0.00  0.00     0.038 C 
BRANCH  12  15
ATOM     15  C   UNL d   1      -1.987  -0.072   1.384  0.00  0.00     0.038 C 
BRANCH  15  16
ATOM     16  C   UNL d   1      -1.953   1.494   1.359  0.00  0.00    -0.049 C 
ATOM     17  C   UNL d   1      -2.848   2.136   0.286  0.00  0.00     0.014 C 
ATOM     18  C   UNL d   1      -2.497   2.000   2.726  0.00  0.00     0.014 C 
ATOM     19  C   UNL d   1      -0.520   2.017   1.213  0.00  0.00     0.014 C 
ENDBRANCH  15  16
ENDBRANCH  12  15
ENDBRANCH   9  12
ENDBRANCH   1   8
BRANCH   2  20
ATOM     20  O   UNL d   1       2.959  -3.530   0.442  0.00  0.00    -0.293 OA
BRANCH  20  21
ATOM     21  C   UNL d   1       3.646  -4.701   0.174  0.00  0.00     0.077 A 
ATOM     22  C   UNL d   1       4.051  -5.456   1.277  0.00  0.00     0.037 A 
ATOM     23  C   UNL d   1       4.684  -6.699   1.105  0.00  0.00     0.003 A 
ATOM     24  C   UNL d   1       4.901  -7.190  -0.179  0.00  0.00     0.000 A 
ATOM     25  C   UNL d   1       4.493  -6.450  -1.285  0.00  0.00     0.003 A 
ATOM     26  C   UNL d   1       3.857  -5.213  -1.113  0.00  0.00     0.037 A 
ENDBRANCH  20  21
ENDBRANCH   2  20
TORSDOF 6
