REMARK  5 active torsions:
REMARK  status: ('A' for Active; 'I' for Inactive)
REMARK    1  A    between atoms: N_2  and  C_1 
REMARK    2  A    between atoms: N_10  and  C_1 
REMARK    3  A    between atoms: C_3  and  N_2 
REMARK    4  A    between atoms: N_6  and  N_10 
REMARK    5  A    between atoms: C_17  and  C_16 
ROOT
ATOM      1  N   UNL d   1       1.072  -0.482  -0.887  0.00  0.00    -0.277 N 
ATOM      2  H   UNL d   1       1.688  -1.244  -1.153  0.00  0.00     0.189 HD
ENDROOT
BRANCH   1   3
ATOM      3  N   UNL d   1      -0.088  -0.258  -1.574  0.00  0.00    -0.309 N 
ATOM      4  C   UNL d   1      -0.206  -0.958  -2.664  0.00  0.00     0.120 C 
ATOM      5  HN  UNL d   1      -0.800   0.401  -1.260  1.00  0.00     0.186 HD
BRANCH   4   6
ATOM      6  C   UNL d   1      -1.435  -0.921  -3.477  0.00  0.00    -0.004 A 
ATOM      7  C   UNL d   1      -1.516  -1.667  -4.643  0.00  0.00     0.100 A 
ATOM      8  N   UNL d   1      -2.636  -1.751  -5.401  0.00  0.00    -0.374 N 
ATOM      9  C   UNL d   1      -3.715  -1.058  -4.969  0.00  0.00     0.087 A 
ATOM     10  HN  UNL d   1      -2.665  -2.309  -6.255  1.00  0.00     0.164 HD
ATOM     11  C   UNL d   1      -3.719  -0.270  -3.828  0.00  0.00     0.018 A 
ATOM     12  C   UNL d   1      -2.553  -0.197  -3.071  0.00  0.00     0.015 A 
ENDBRANCH   4   6
ENDBRANCH   1   3
BRANCH   1  13
ATOM     13  C   UNL d   1       1.442   0.264   0.210  0.00  0.00     0.186 C 
ATOM     14  S   UNL d   1       2.845  -0.139   1.019  0.00  0.00    -0.040 SA
BRANCH  13  15
ATOM     15  N   UNL d   1       0.611   1.313   0.491  0.00  0.00    -0.361 N 
ATOM     16  H   UNL d   1      -0.273   1.257  -0.005  0.00  0.00     0.162 HD
BRANCH  15  17
ATOM     17  C   UNL d   1       0.791   2.337   1.514  0.00  0.00     0.092 C 
ATOM     18  C   UNL d   1      -0.053   3.624   1.285  0.00  0.00     0.031 C 
ATOM     19  C   UNL d   1      -1.523   3.264   1.228  0.00  0.00    -0.024 C 
ATOM     20  C   UNL d   1      -0.025   4.233   2.692  0.00  0.00     0.019 C 
ATOM     21  C   UNL d   1      -1.881   2.873   2.461  0.00  0.00    -0.026 C 
ATOM     22  C   UNL d   1      -0.658   2.998   3.342  0.00  0.00     0.010 C 
ATOM     23  C   UNL d   1       0.349   1.897   2.943  0.00  0.00     0.034 C 
ENDBRANCH  15  17
ENDBRANCH  13  15
ENDBRANCH   1  13
TORSDOF 5
