REMARK  8 active torsions:
REMARK  status: ('A' for Active; 'I' for Inactive)
REMARK    1  A    between atoms: C_3  and  C_1 
REMARK    2  A    between atoms: C_4  and  C_1 
REMARK    3  A    between atoms: N_7  and  C_2 
REMARK    4  A    between atoms: O_14  and  C_3 
REMARK    5  A    between atoms: O_13  and  C_4 
REMARK    6  A    between atoms: C_8  and  N_7 
REMARK    7  A    between atoms: C_19  and  O_13 
REMARK    8  A    between atoms: C_18  and  O_14 
ROOT
ATOM      1  C   UNL d   1       1.037  -0.016   0.044  0.00  0.00     0.129 C 
ATOM      2  C   UNL d   1       0.385   0.058   1.222  0.00  0.00     0.113 C 
ENDROOT
BRANCH   1   3
ATOM      3  C   UNL d   1       0.280  -0.139  -1.226  0.00  0.00     0.300 C 
ATOM      4  O   UNL d   1       0.717   0.195  -2.317  0.00  0.00    -0.259 OA
BRANCH   3   5
ATOM      5  O   UNL d   1      -1.000  -0.542  -1.000  0.00  0.00    -0.318 OA
BRANCH   5   6
ATOM      6  C   UNL d   1      -1.927  -0.259  -2.059  0.00  0.00     0.174 C 
ATOM      7  C   UNL d   1      -2.439   1.160  -1.882  0.00  0.00     0.034 C 
ENDBRANCH   5   6
ENDBRANCH   3   5
ENDBRANCH   1   3
BRANCH   1   8
ATOM      8  C   UNL d   1       2.498   0.202   0.025  0.00  0.00     0.300 C 
ATOM      9  O   UNL d   1       3.105   0.842   0.876  0.00  0.00    -0.259 OA
BRANCH   8  10
ATOM     10  O   UNL d   1       3.054  -0.377  -1.066  0.00  0.00    -0.318 OA
BRANCH  10  11
ATOM     11  C   UNL d   1       4.361   0.101  -1.413  0.00  0.00     0.174 C 
ATOM     12  C   UNL d   1       4.211   1.389  -2.207  0.00  0.00     0.034 C 
ENDBRANCH  10  11
ENDBRANCH   8  10
ENDBRANCH   1   8
BRANCH   2  13
ATOM     13  N   UNL d   1       0.884   0.335   2.475  0.00  0.00    -0.351 N 
ATOM     14  H   UNL d   1       1.789   0.812   2.502  0.00  0.00     0.166 HD
BRANCH  13  15
ATOM     15  C   UNL d   1       0.175   0.514   3.664  0.00  0.00     0.104 A 
ATOM     16  N   UNL d   1       0.742   1.328   4.580  0.00  0.00    -0.351 N 
ATOM     17  C   UNL d   1       0.084   1.524   5.749  0.00  0.00     0.108 A 
ATOM     18  HN  UNL d   1       1.637   1.781   4.397  1.00  0.00     0.166 HD
ATOM     19  C   UNL d   1      -1.121   0.921   6.065  0.00  0.00     0.026 A 
ATOM     20  C   UNL d   1      -1.691   0.073   5.129  0.00  0.00     0.024 A 
ATOM     21 BR   UNL d   1      -1.961   1.230   7.721  0.00  0.00    -0.050 Br
ATOM     22  C   UNL d   1      -1.037  -0.128   3.913  0.00  0.00     0.050 A 
ENDBRANCH  13  15
ENDBRANCH   2  13
TORSDOF 8
