REMARK  10 active torsions:
REMARK  status: ('A' for Active; 'I' for Inactive)
REMARK    1  A    between atoms: O_3  and  N_1 
REMARK    2  A    between atoms: C_2  and  O_3 
REMARK    3  A    between atoms: C_6  and  C_2 
REMARK    4  A    between atoms: N_8  and  C_6 
REMARK    5  A    between atoms: C_10  and  C_6 
REMARK       I    between atoms: C_7  and  N_8 
REMARK    6  A    between atoms: O_16  and  C_7 
REMARK    7  A    between atoms: O_17  and  C_10 
REMARK    8  A    between atoms: C_19  and  O_16 
REMARK    9  A    between atoms: C_18  and  O_17 
REMARK   10  A    between atoms: C_20  and  C_19 
ROOT
ATOM      1  C   UNL d   1      -2.526   2.363  -0.234  0.00  0.00     0.212 C 
ENDROOT
BRANCH   1   2
ATOM      2  C   UNL d   1      -1.015   2.632  -0.207  0.00  0.00     0.306 C 
ATOM      3  O   UNL d   1      -0.179   1.990  -0.833  0.00  0.00    -0.261 OA
BRANCH   2   4
ATOM      4  O   UNL d   1      -0.720   3.671   0.641  0.00  0.00    -0.185 OA
BRANCH   4   5
ATOM      5  N   UNL d   1       0.548   3.545   1.202  0.00  0.00    -0.145 N 
ATOM      6  C   UNL d   1       0.653   3.513   2.555  0.00  0.00     0.251 C 
ATOM      7  C   UNL d   1       2.114   3.447   2.887  0.00  0.00     0.115 C 
ATOM      8  O   UNL d   1      -0.245   3.555   3.383  0.00  0.00    -0.271 OA
ATOM      9  C   UNL d   1       2.794   3.907   1.605  0.00  0.00     0.115 C 
ATOM     10  C   UNL d   1       1.676   3.994   0.598  0.00  0.00     0.251 C 
ATOM     11  O   UNL d   1       1.802   4.478  -0.517  0.00  0.00    -0.271 OA
ENDBRANCH   4   5
ENDBRANCH   2   4
ENDBRANCH   1   2
BRANCH   1  12
ATOM     12  N   UNL d   1      -3.234   2.761  -1.465  0.00  0.00    -0.321 N 
ATOM     13  C   UNL d   1      -3.676   3.982  -1.841  0.00  0.00     0.361 C 
ATOM     14  O   UNL d   1      -4.642   4.054  -2.591  0.00  0.00    -0.238 OA
ATOM     15  H   UNL d   1      -3.859   2.074  -1.866  0.00  0.00     0.165 HD
BRANCH  13  16
ATOM     16  O   UNL d   1      -2.929   5.014  -1.402  0.00  0.00    -0.299 OA
BRANCH  16  17
ATOM     17  C   UNL d   1      -3.170   6.219  -2.140  0.00  0.00     0.219 C 
BRANCH  17  18
ATOM     18  C   UNL d   1      -3.365   7.384  -1.210  0.00  0.00    -0.034 A 
ATOM     19  C   UNL d   1      -2.275   8.181  -0.843  0.00  0.00     0.009 A 
ATOM     20  C   UNL d   1      -2.463   9.296  -0.028  0.00  0.00     0.001 A 
ATOM     21  C   UNL d   1      -3.739   9.618   0.432  0.00  0.00     0.000 A 
ATOM     22  C   UNL d   1      -4.828   8.820   0.086  0.00  0.00     0.001 A 
ATOM     23  C   UNL d   1      -4.643   7.703  -0.729  0.00  0.00     0.009 A 
ENDBRANCH  17  18
ENDBRANCH  16  17
ENDBRANCH  13  16
ENDBRANCH   1  12
BRANCH   1  24
ATOM     24  C   UNL d   1      -2.719   0.829  -0.159  0.00  0.00     0.204 C 
BRANCH  24  25
ATOM     25  O   UNL d   1      -2.317   0.196   1.052  0.00  0.00    -0.379 OA
BRANCH  25  26
ATOM     26  C   UNL d   1      -2.543  -1.238   1.068  0.00  0.00     0.050 C 
ATOM     27  C   UNL d   1      -1.768  -1.954  -0.052  0.00  0.00     0.045 C 
ATOM     28  C   UNL d   1      -2.019  -1.748   2.417  0.00  0.00     0.045 C 
ATOM     29  C   UNL d   1      -4.042  -1.573   0.976  0.00  0.00     0.045 C 
ENDBRANCH  25  26
ENDBRANCH  24  25
ENDBRANCH   1  24
TORSDOF 10
