REMARK  3 active torsions:
REMARK  status: ('A' for Active; 'I' for Inactive)
REMARK    1  A    between atoms: C_3  and  C_1 
REMARK    2  A    between atoms: C_9  and  C_2 
REMARK    3  A    between atoms: C_17  and  C_8 
ROOT
ATOM      1  C   UNL d   1      -0.029  -1.265   0.023  0.00  0.00     0.078 A 
ATOM      2  C   UNL d   1      -1.372  -0.794   0.044  0.00  0.00     0.087 A 
ATOM      3  N   UNL d   1      -1.377   0.539   0.222  0.00  0.00    -0.259 N 
ATOM      4  HN  UNL d   1      -2.198   1.139   0.299  1.00  0.00     0.195 HD
ATOM      5  O   UNL d   1      -0.059   0.939   0.281  0.00  0.00    -0.241 OA
ATOM      6  C   UNL d   1       0.751  -0.142   0.171  0.00  0.00     0.089 A 
ATOM      7  C   UNL d   1       2.204   0.115   0.176  0.00  0.00     0.080 C 
ENDROOT
BRANCH   1   8
ATOM      8  C   UNL d   1       0.510  -2.635  -0.133  0.00  0.00     0.187 A 
ATOM      9  N   UNL d   1      -0.133  -3.646  -0.668  0.00  0.00    -0.318 N 
ATOM     10  C   UNL d   1       0.799  -4.663  -0.635  0.00  0.00     0.138 A 
ATOM     11  HN  UNL d   1      -1.089  -3.673  -1.023  1.00  0.00     0.169 HD
ATOM     12  N   UNL d   1       1.952  -4.318  -0.041  0.00  0.00    -0.242 N 
ATOM     13  O   UNL d   1       1.780  -2.976   0.257  0.00  0.00    -0.217 OA
ATOM     14  HN  UNL d   1       2.764  -4.906   0.146  1.00  0.00     0.196 HD
BRANCH  10  15
ATOM     15  C   UNL d   1       0.588  -5.948  -1.289  0.00  0.00     0.010 A 
ATOM     16  C   UNL d   1      -0.517  -6.143  -2.130  0.00  0.00     0.015 A 
ATOM     17  C   UNL d   1      -0.660  -7.331  -2.849  0.00  0.00     0.001 A 
ATOM     18  C   UNL d   1       0.293  -8.342  -2.727  0.00  0.00     0.000 A 
ATOM     19  C   UNL d   1       1.380  -8.173  -1.871  0.00  0.00     0.001 A 
ATOM     20  C   UNL d   1       1.526  -6.985  -1.155  0.00  0.00     0.015 A 
ENDBRANCH  10  15
ENDBRANCH   1   8
BRANCH   2  21
ATOM     21  C   UNL d   1      -2.626  -1.548  -0.005  0.00  0.00     0.054 A 
ATOM     22  C   UNL d   1      -2.760  -2.698   0.789  0.00  0.00     0.130 A 
ATOM     23  F   UNL d   1      -1.776  -3.070   1.624  0.00  0.00    -0.205 F 
ATOM     24  C   UNL d   1      -3.912  -3.482   0.768  0.00  0.00     0.043 A 
ATOM     25  C   UNL d   1      -4.990  -3.105  -0.023  0.00  0.00     0.005 A 
ATOM     26  C   UNL d   1      -4.902  -1.943  -0.789  0.00  0.00     0.025 A 
ATOM     27  C   UNL d   1      -3.727  -1.173  -0.791  0.00  0.00     0.049 A 
ATOM     28 CL   UNL d   1      -3.725   0.213  -1.830  0.00  0.00    -0.083 Cl
ENDBRANCH   2  21
TORSDOF 3
