REMARK  7 active torsions:
REMARK  status: ('A' for Active; 'I' for Inactive)
REMARK    1  A    between atoms: C_2  and  C_1 
REMARK       I    between atoms: N_10  and  C_1 
REMARK    2  A    between atoms: C_3  and  C_4 
REMARK    3  A    between atoms: C_23  and  N_10 
REMARK    4  A    between atoms: C_12  and  C_22 
REMARK    5  A    between atoms: S_14  and  C_24 
REMARK    6  A    between atoms: C_22  and  S_14 
REMARK    7  A    between atoms: C_24  and  C_23 
ROOT
ATOM      1  C   UNL d   1       1.092   0.135  -0.084  0.00  0.00     0.251 C 
ATOM      2  O   UNL d   1       0.517   0.999  -0.733  0.00  0.00    -0.268 OA
ATOM      3  N   UNL d   1       2.465   0.046   0.001  0.00  0.00    -0.356 N 
ATOM      4  H   UNL d   1       2.874  -0.474   0.766  0.00  0.00     0.162 HD
ENDROOT
BRANCH   3   5
ATOM      5  C   UNL d   1       3.333   0.988  -0.689  0.00  0.00     0.133 C 
BRANCH   5   6
ATOM      6  C   UNL d   1       3.672   2.225   0.147  0.00  0.00     0.093 C 
BRANCH   6   7
ATOM      7  S   UNL d   1       4.550   1.724   1.671  0.00  0.00    -0.163 SA
BRANCH   7   8
ATOM      8  C   UNL d   1       4.829   3.368   2.402  0.00  0.00     0.112 C 
BRANCH   8   9
ATOM      9  C   UNL d   1       5.515   3.230   3.740  0.00  0.00    -0.049 A 
ATOM     10  C   UNL d   1       6.915   3.171   3.820  0.00  0.00     0.009 A 
ATOM     11  C   UNL d   1       7.547   2.989   5.053  0.00  0.00     0.024 A 
ATOM     12  C   UNL d   1       6.784   2.862   6.210  0.00  0.00     0.034 A 
ATOM     13  C   UNL d   1       5.393   2.912   6.148  0.00  0.00     0.024 A 
ATOM     14 CL   UNL d   1       7.563   2.632   7.727  0.00  0.00    -0.084 Cl
ATOM     15  C   UNL d   1       4.760   3.093   4.915  0.00  0.00     0.009 A 
ENDBRANCH   8   9
ENDBRANCH   7   8
ENDBRANCH   6   7
ENDBRANCH   5   6
ENDBRANCH   3   5
BRANCH   1  16
ATOM     16  C   UNL d   1       0.309  -0.881   0.679  0.00  0.00     0.032 A 
ATOM     17  C   UNL d   1       0.801  -2.158   0.958  0.00  0.00     0.017 A 
ATOM     18  C   UNL d   1      -0.012  -3.100   1.607  0.00  0.00     0.009 A 
ATOM     19  C   UNL d   1      -1.336  -2.798   1.991  0.00  0.00    -0.051 A 
ATOM     20  C   UNL d   1      -1.800  -1.501   1.714  0.00  0.00     0.009 A 
ATOM     21  C   UNL d   1      -0.995  -0.558   1.062  0.00  0.00     0.017 A 
BRANCH  19  22
ATOM     22  C   UNL d   1      -2.227  -3.870   2.647  0.00  0.00    -0.024 C 
ATOM     23  C   UNL d   1      -3.637  -3.357   3.018  0.00  0.00     0.019 C 
ATOM     24  C   UNL d   1      -2.417  -5.055   1.674  0.00  0.00     0.019 C 
ATOM     25  C   UNL d   1      -1.577  -4.392   3.946  0.00  0.00     0.019 C 
ENDBRANCH  19  22
ENDBRANCH   1  16
TORSDOF 7
