REMARK  4 active torsions:
REMARK  status: ('A' for Active; 'I' for Inactive)
REMARK    1  A    between atoms: N_3  and  C_1 
REMARK       I    between atoms: C_6  and  N_3 
REMARK    2  A    between atoms: C_8  and  C_6 
REMARK    3  A    between atoms: C_9  and  C_10 
REMARK    4  A    between atoms: O_15  and  C_9 
ROOT
ATOM      1  C   UNL d   1       0.102   0.922   0.341  0.00  0.00     0.097 A 
ATOM      2  C   UNL d   1       1.343   0.312   0.307  0.00  0.00     0.079 A 
ATOM      3  C   UNL d   1       2.511   0.908  -0.265  0.00  0.00     0.102 C 
ATOM      4  S   UNL d   1      -1.063  -0.095   1.067  0.00  0.00    -0.083 SA
ATOM      5  N   UNL d   1       3.447   1.407  -0.735  0.00  0.00    -0.191 NA
ATOM      6  C   UNL d   1       1.323  -0.994   0.892  0.00  0.00     0.033 A 
ATOM      7  C   UNL d   1       0.071  -1.335   1.349  0.00  0.00     0.053 A 
ENDROOT
BRANCH   1   8
ATOM      8  N   UNL d   1      -0.235   2.218  -0.044  0.00  0.00    -0.317 N 
ATOM      9  C   UNL d   1      -1.528   2.672  -0.218  0.00  0.00     0.246 C 
ATOM     10  O   UNL d   1      -2.540   1.988  -0.339  0.00  0.00    -0.268 OA
ATOM     11  H   UNL d   1       0.528   2.856  -0.234  0.00  0.00     0.169 HD
BRANCH   9  12
ATOM     12  C   UNL d   1      -1.618   4.154  -0.265  0.00  0.00     0.081 C 
ATOM     13  C   UNL d   1      -2.838   4.695  -0.374  0.00  0.00     0.086 C 
BRANCH  13  14
ATOM     14  C   UNL d   1      -3.019   6.146  -0.291  0.00  0.00     0.165 C 
ATOM     15  O   UNL d   1      -2.150   6.985  -0.159  0.00  0.00    -0.647 OA
BRANCH  14  16
ATOM     16  O   UNL d   1      -4.324   6.450  -0.348  0.00  0.00    -0.773 OA
ATOM     17  H   UNL d   1      -4.360   7.424  -0.251  0.00  0.00     0.167 HD
ENDBRANCH  14  16
ENDBRANCH  13  14
ENDBRANCH   9  12
ENDBRANCH   1   8
TORSDOF 4
