REMARK  9 active torsions:
REMARK  status: ('A' for Active; 'I' for Inactive)
REMARK    1  A    between atoms: C_5  and  C_7 
REMARK    2  A    between atoms: N_13  and  C_24 
REMARK    3  A    between atoms: C_23  and  N_13 
REMARK    4  A    between atoms: O_14  and  C_18 
REMARK    5  A    between atoms: C_15  and  O_14 
REMARK    6  A    between atoms: C_24  and  C_16 
REMARK    7  A    between atoms: C_17  and  C_23 
REMARK    8  A    between atoms: C_18  and  C_17 
REMARK    9  A    between atoms: O_22  and  C_17 
ROOT
ATOM      1  C   UNL d   1       7.075  -0.296  -0.025  0.00  0.00     0.170 C 
ENDROOT
BRANCH   1   2
ATOM      2  C   UNL d   1       5.868  -1.262  -0.101  0.00  0.00     0.303 C 
BRANCH   2   3
ATOM      3  N   UNL d   1       4.574  -0.579  -0.112  0.00  0.00     0.090 N 
ATOM      4  H   UNL d   1       4.432  -0.053   0.749  0.00  0.00     0.316 HD
BRANCH   3   5
ATOM      5  C   UNL d   1       3.460  -1.517  -0.238  0.00  0.00     0.308 C 
BRANCH   5   6
ATOM      6  C   UNL d   1       2.150  -0.761  -0.211  0.00  0.00    -0.028 A 
ATOM      7  C   UNL d   1       1.224  -0.965   0.825  0.00  0.00     0.048 A 
ATOM      8  C   UNL d   1       0.058  -0.227   0.808  0.00  0.00     0.105 A 
ATOM      9  C   UNL d   1      -0.211   0.687  -0.184  0.00  0.00     0.105 A 
ATOM     10  O   UNL d   1      -0.937  -0.295   1.733  0.00  0.00    -0.323 OA
ATOM     11  O   UNL d   1      -1.407   1.308  -0.009  0.00  0.00    -0.323 OA
ATOM     12  C   UNL d   1       0.670   0.915  -1.216  0.00  0.00     0.040 A 
ATOM     13  C   UNL d   1      -1.860   0.684   1.210  0.00  0.00     0.352 A 
ATOM     14  C   UNL d   1       1.860   0.182  -1.227  0.00  0.00     0.012 A 
ENDBRANCH   5   6
ENDBRANCH   3   5
ENDBRANCH   2   3
ENDBRANCH   1   2
BRANCH   1  15
ATOM     15  C   UNL d   1       7.011   0.587   1.234  0.00  0.00     0.209 C 
BRANCH  15  16
ATOM     16  O   UNL d   1       8.135   1.470   1.298  0.00  0.00    -0.349 OA
BRANCH  16  17
ATOM     17  C   UNL d   1       8.158   2.314   2.377  0.00  0.00     0.068 A 
ATOM     18  C   UNL d   1       9.420   2.801   2.725  0.00  0.00     0.037 A 
ATOM     19  C   UNL d   1       9.568   3.678   3.803  0.00  0.00     0.018 A 
ATOM     20  C   UNL d   1       8.449   4.102   4.529  0.00  0.00     0.009 A 
ATOM     21  C   UNL d   1       7.186   3.616   4.184  0.00  0.00     0.018 A 
ATOM     22  C   UNL d   1       7.043   2.731   3.109  0.00  0.00     0.037 A 
BRANCH  20  23
ATOM     23  C   UNL d   1       8.652   5.053   5.654  0.00  0.00     0.155 C 
ATOM     24  O   UNL d   1       9.729   5.058   6.251  0.00  0.00    -0.293 OA
ATOM     25  C   UNL d   1       7.559   6.022   6.025  0.00  0.00     0.096 C 
ENDBRANCH  20  23
ENDBRANCH  16  17
ENDBRANCH  15  16
ENDBRANCH   1  15
BRANCH   1  26
ATOM     26  O   UNL d   1       8.277  -1.078  -0.055  0.00  0.00    -0.392 OA
ATOM     27  H   UNL d   1       8.429  -1.443   0.832  0.00  0.00     0.210 HD
ENDBRANCH   1  26
TORSDOF 9
