REMARK  6 active torsions:
REMARK  status: ('A' for Active; 'I' for Inactive)
REMARK    1  A    between atoms: C_7  and  C_1 
REMARK    2  A    between atoms: N_15  and  C_3 
REMARK    3  A    between atoms: C_9  and  C_7 
REMARK    4  A    between atoms: C_10  and  C_7 
REMARK    5  A    between atoms: N_8  and  C_10 
REMARK    6  A    between atoms: O_24  and  C_14 
ROOT
ATOM      1  C   UNL d   1      -0.155   3.146  -0.099  0.00  0.00     0.087 C 
ENDROOT
BRANCH   1   2
ATOM      2  C   UNL d   1      -0.308   1.616  -0.032  0.00  0.00     0.059 C 
ATOM      3  C   UNL d   1      -1.266   0.851  -0.602  0.00  0.00     0.096 C 
ATOM      4  N   UNL d   1      -1.198  -0.532  -0.499  0.00  0.00    -0.294 N 
ATOM      5  C   UNL d   1      -2.198  -1.427  -1.070  0.00  0.00     0.162 C 
ATOM      6  C   UNL d   1      -0.180  -1.202   0.183  0.00  0.00     0.332 C 
ATOM      7  N   UNL d   1       0.788  -0.417   0.769  0.00  0.00    -0.270 N 
ATOM      8  O   UNL d   1      -0.160  -2.433   0.281  0.00  0.00    -0.246 OA
ATOM      9  C   UNL d   1       0.728   0.950   0.817  0.00  0.00     0.261 C 
ATOM     10  C   UNL d   1       1.809  -1.096   1.549  0.00  0.00     0.164 C 
ATOM     11  O   UNL d   1       1.452   1.625   1.544  0.00  0.00    -0.267 OA
BRANCH   3  12
ATOM     12  N   UNL d   1      -2.284   1.483  -1.302  0.00  0.00    -0.288 NA
ATOM     13  H   UNL d   1      -2.757   0.866  -1.952  0.00  0.00     0.125 HD
ATOM     14  H   UNL d   1      -3.012   1.774  -0.633  0.00  0.00     0.125 HD
ENDBRANCH   3  12
ENDBRANCH   1   2
BRANCH   1  15
ATOM     15  C   UNL d   1       0.774   3.567  -1.249  0.00  0.00    -0.013 A 
ATOM     16  C   UNL d   1       2.036   4.152  -1.042  0.00  0.00     0.075 A 
ATOM     17  C   UNL d   1       2.828   4.544  -2.129  0.00  0.00     0.039 A 
ATOM     18  C   UNL d   1       2.378   4.370  -3.438  0.00  0.00     0.022 A 
ATOM     19  C   UNL d   1       1.144   3.774  -3.659  0.00  0.00     0.011 A 
ATOM     20  C   UNL d   1       0.348   3.378  -2.582  0.00  0.00     0.029 A 
ATOM     21 BR   UNL d   1       0.536   3.485  -5.426  0.00  0.00    -0.051 Br
BRANCH  16  22
ATOM     22  O   UNL d   1       2.633   4.242   0.184  0.00  0.00    -0.355 OA
ATOM     23  C   UNL d   1       2.090   5.248   1.034  0.00  0.00     0.210 C 
ENDBRANCH  16  22
ENDBRANCH   1  15
BRANCH   1  24
ATOM     24  C   UNL d   1      -1.398   4.050  -0.155  0.00  0.00     0.215 C 
BRANCH  24  25
ATOM     25  N   UNL d   1      -2.263   3.785   1.032  0.00  0.00    -0.155 N 
ATOM     26  O   UNL d   1      -1.905   4.268   2.113  0.00  0.00    -0.537 OA
ATOM     27  O   UNL d   1      -3.287   3.112   0.845  0.00  0.00    -0.537 OA
ENDBRANCH  24  25
ENDBRANCH   1  24
TORSDOF 6
