REMARK  1 active torsions:
REMARK  status: ('A' for Active; 'I' for Inactive)
REMARK    1  A    between atoms: C_2  and  C_1 
REMARK       I    between atoms: N_8  and  C_2 
ROOT
ATOM      1  C   UNL d   1      -0.053   0.979  -0.128  0.00  0.00     0.087 A 
ATOM      2  N   UNL d   1      -0.174  -1.306  -0.158  0.00  0.00    -0.265 N 
ATOM      3  HN  UNL d   1      -0.505  -2.259  -0.305  1.00  0.00     0.194 HD
ATOM      4  C   UNL d   1       1.030   0.439   0.541  0.00  0.00     0.090 A 
ATOM      5  O   UNL d   1       0.938  -0.915   0.554  0.00  0.00    -0.242 OA
ATOM      6  C   UNL d   1      -0.732  -0.177  -0.617  0.00  0.00     0.047 A 
ATOM      7  C   UNL d   1       2.232   0.986   1.204  0.00  0.00     0.080 C 
ATOM      8  C   UNL d   1      -1.879  -0.302  -1.548  0.00  0.00     0.071 C 
ENDROOT
BRANCH   1   9
ATOM      9  C   UNL d   1      -0.245   2.406  -0.332  0.00  0.00     0.258 C 
ATOM     10  N   UNL d   1      -1.496   2.994  -0.089  0.00  0.00    -0.344 N 
ATOM     11  C   UNL d   1      -1.654   4.405  -0.462  0.00  0.00     0.152 C 
ATOM     12  C   UNL d   1      -2.748   2.265   0.111  0.00  0.00     0.152 C 
ATOM     13  C   UNL d   1      -2.758   5.104   0.335  0.00  0.00     0.187 C 
ATOM     14  O   UNL d   1      -3.986   4.369   0.266  0.00  0.00    -0.388 OA
ATOM     15  C   UNL d   1      -3.811   3.077   0.857  0.00  0.00     0.187 C 
ATOM     16  O   UNL d   1       0.720   3.103  -0.656  0.00  0.00    -0.267 OA
ENDBRANCH   1   9
TORSDOF 1
