REMARK  2 active torsions:
REMARK  status: ('A' for Active; 'I' for Inactive)
REMARK    1  A    between atoms: C_13  and  N_5 
REMARK    2  A    between atoms: C_12  and  C_13 
ROOT
ATOM      1  C   UNL d   1       0.924  -0.881  -0.010  0.00  0.00     0.138 A 
ATOM      2  C   UNL d   1      -0.418  -1.205   0.006  0.00  0.00     0.106 A 
ATOM      3  N   UNL d   1      -0.271   1.065  -0.002  0.00  0.00    -0.306 N 
ATOM      4  HN  UNL d   1      -0.507   2.057  -0.015  1.00  0.00     0.186 HD
ATOM      5  N   UNL d   1       0.958   0.499   0.009  0.00  0.00    -0.275 N 
ATOM      6  C   UNL d   1      -1.102   0.020   0.009  0.00  0.00     0.134 A 
ATOM      7  C   UNL d   1      -0.985  -2.508   0.006  0.00  0.00     0.104 C 
ATOM      8  N   UNL d   1      -1.444  -3.576   0.003  0.00  0.00    -0.191 NA
ATOM      9  N   UNL d   1       2.018  -1.674  -0.044  0.00  0.00    -0.383 N 
ATOM     10  H   UNL d   1       1.934  -2.690   0.010  0.00  0.00     0.157 HD
ATOM     11  H   UNL d   1       2.979  -1.356   0.030  0.00  0.00     0.157 HD
ENDROOT
BRANCH   5  12
ATOM     12  C   UNL d   1       2.110   1.382   0.005  0.00  0.00     0.165 C 
BRANCH  12  13
ATOM     13  C   UNL d   1       2.125   2.358   1.177  0.00  0.00     0.146 C 
ATOM     14  C   UNL d   1       2.261   1.659   2.460  0.00  0.00     0.060 C 
ATOM     15  N   UNL d   1       2.394   1.108   3.471  0.00  0.00    -0.197 NA
ENDBRANCH  12  13
ENDBRANCH   5  12
TORSDOF 2
