REMARK  7 active torsions:
REMARK  status: ('A' for Active; 'I' for Inactive)
REMARK    1  A    between atoms: S_2  and  C_1 
REMARK    2  A    between atoms: N_7  and  S_2 
REMARK    3  A    between atoms: C_8  and  C_3 
REMARK    4  A    between atoms: C_11  and  N_4 
REMARK    5  A    between atoms: C_12  and  C_5 
REMARK    6  A    between atoms: O_18  and  C_8 
REMARK    7  A    between atoms: C_25  and  O_18 
ROOT
ATOM      1  C   UNL d   1      -0.452  -1.198  -0.186  0.00  0.00     0.125 A 
ATOM      2  C   UNL d   1       0.899  -0.715  -0.183  0.00  0.00     0.087 A 
ATOM      3  N   UNL d   1      -0.513   1.065  -0.156  0.00  0.00    -0.312 N 
ATOM      4  C   UNL d   1      -1.326  -0.088  -0.235  0.00  0.00     0.074 A 
ATOM      5  C   UNL d   1       0.821   0.672  -0.098  0.00  0.00     0.031 A 
ATOM      6  C   UNL d   1       1.969   1.623   0.091  0.00  0.00     0.070 C 
ENDROOT
BRANCH   1   7
ATOM      7  S   UNL d   1      -0.923  -2.881  -0.267  0.00  0.00     0.264 S 
ATOM      8  O   UNL d   1      -1.913  -2.935  -1.314  0.00  0.00    -0.200 OA
ATOM      9  O   UNL d   1       0.289  -3.665  -0.390  0.00  0.00    -0.200 OA
BRANCH   7  10
ATOM     10  N   UNL d   1      -1.664  -3.298   1.205  0.00  0.00    -0.303 N 
ATOM     11  C   UNL d   1      -0.845  -3.246   2.450  0.00  0.00     0.161 C 
ATOM     12  C   UNL d   1      -0.111  -4.566   2.710  0.00  0.00     0.188 C 
ATOM     13  O   UNL d   1      -1.018  -5.679   2.715  0.00  0.00    -0.388 OA
ATOM     14  C   UNL d   1      -1.694  -5.780   1.453  0.00  0.00     0.188 C 
ATOM     15  C   UNL d   1      -2.519  -4.522   1.181  0.00  0.00     0.161 C 
ENDBRANCH   7  10
ENDBRANCH   1   7
BRANCH   2  16
ATOM     16  C   UNL d   1       2.183  -1.410  -0.335  0.00  0.00     0.296 C 
ATOM     17  O   UNL d   1       3.038  -0.996  -1.111  0.00  0.00    -0.259 OA
BRANCH  16  18
ATOM     18  O   UNL d   1       2.362  -2.481   0.489  0.00  0.00    -0.318 OA
BRANCH  18  19
ATOM     19  C   UNL d   1       3.436  -3.360   0.102  0.00  0.00     0.174 C 
ATOM     20  C   UNL d   1       4.381  -3.586   1.265  0.00  0.00     0.034 C 
ENDBRANCH  18  19
ENDBRANCH  16  18
ENDBRANCH   2  16
BRANCH   4  21
ATOM     21  C   UNL d   1      -2.803  -0.045  -0.494  0.00  0.00    -0.007 A 
ATOM     22  C   UNL d   1      -3.364   0.874  -1.398  0.00  0.00     0.014 A 
ATOM     23  C   UNL d   1      -4.750   0.987  -1.573  0.00  0.00     0.001 A 
ATOM     24  C   UNL d   1      -5.607   0.109  -0.922  0.00  0.00     0.000 A 
ATOM     25  C   UNL d   1      -5.076  -0.859  -0.079  0.00  0.00     0.001 A 
ATOM     26  C   UNL d   1      -3.695  -0.906   0.159  0.00  0.00     0.014 A 
ENDBRANCH   4  21
BRANCH   3  27
ATOM     27  C   UNL d   1      -0.954   2.434  -0.152  0.00  0.00     0.040 A 
ATOM     28  C   UNL d   1      -2.071   2.821   0.597  0.00  0.00     0.030 A 
ATOM     29  C   UNL d   1      -2.540   4.138   0.525  0.00  0.00     0.002 A 
ATOM     30  C   UNL d   1      -1.877   5.084  -0.262  0.00  0.00     0.000 A 
ATOM     31  C   UNL d   1      -0.754   4.707  -0.992  0.00  0.00     0.002 A 
ATOM     32  C   UNL d   1      -0.299   3.391  -0.947  0.00  0.00     0.030 A 
ENDBRANCH   3  27
TORSDOF 7
