REMARK  4 active torsions:
REMARK  status: ('A' for Active; 'I' for Inactive)
REMARK    1  A    between atoms: N_2  and  C_1 
REMARK    2  A    between atoms: N_3  and  C_1 
REMARK    3  A    between atoms: C_4  and  N_3 
REMARK    4  A    between atoms: O_16  and  C_13 
ROOT
ATOM      1  C   UNL d   1       0.753   0.038   0.136  0.00  0.00     0.174 C 
ATOM      2  S   UNL d   1      -0.022  -0.147   1.620  0.00  0.00    -0.041 SA
ENDROOT
BRANCH   1   3
ATOM      3  N   UNL d   1       2.139   0.256  -0.018  0.00  0.00    -0.358 N 
ATOM      4  C   UNL d   1       2.675   0.973  -1.184  0.00  0.00     0.127 C 
ATOM      5  C   UNL d   1       3.973   0.342  -1.676  0.00  0.00     0.051 C 
ATOM      6  C   UNL d   1       4.993   0.141  -0.556  0.00  0.00     0.121 C 
ATOM      7  C   UNL d   1       4.381  -0.470   0.703  0.00  0.00     0.051 C 
ATOM      8  C   UNL d   1       3.077   0.208   1.113  0.00  0.00     0.127 C 
BRANCH   6   9
ATOM      9  O   UNL d   1       5.642   1.374  -0.250  0.00  0.00    -0.395 OA
ATOM     10  H   UNL d   1       4.997   1.986   0.146  0.00  0.00     0.210 HD
ENDBRANCH   6   9
ENDBRANCH   1   3
BRANCH   1  11
ATOM     11  N   UNL d   1       0.104  -0.125  -1.079  0.00  0.00    -0.333 N 
ATOM     12  H   UNL d   1       0.603  -0.716  -1.729  0.00  0.00     0.168 HD
BRANCH  11  13
ATOM     13  C   UNL d   1      -1.220   0.233  -1.427  0.00  0.00     0.040 A 
ATOM     14  C   UNL d   1      -1.911  -0.459  -2.438  0.00  0.00    -0.035 A 
ATOM     15  C   UNL d   1      -3.164   0.029  -2.865  0.00  0.00     0.015 A 
ATOM     16  C   UNL d   1      -1.434  -1.739  -3.070  0.00  0.00     0.050 C 
ATOM     17  C   UNL d   1      -3.737   1.174  -2.297  0.00  0.00    -0.061 A 
ATOM     18  C   UNL d   1      -3.053   1.832  -1.279  0.00  0.00     0.009 A 
ATOM     19  C   UNL d   1      -5.036   1.710  -2.820  0.00  0.00     0.048 C 
ATOM     20  C   UNL d   1      -1.808   1.367  -0.852  0.00  0.00     0.030 A 
ENDBRANCH  11  13
ENDBRANCH   1  11
TORSDOF 4
