REMARK  5 active torsions:
REMARK  status: ('A' for Active; 'I' for Inactive)
REMARK    1  A    between atoms: N_7  and  C_1 
REMARK       I    between atoms: C_9  and  N_7 
REMARK    2  A    between atoms: C_8  and  O_13 
REMARK    3  A    between atoms: C_10  and  C_9 
REMARK    4  A    between atoms: C_18  and  C_12 
REMARK    5  A    between atoms: O_13  and  C_19 
ROOT
ATOM      1  N   UNL d   1       1.836   2.197  -0.142  0.00  0.00    -0.308 N 
ATOM      2  C   UNL d   1       1.222   3.394   0.080  0.00  0.00     0.246 C 
ATOM      3  O   UNL d   1       1.914   4.414   0.077  0.00  0.00    -0.268 OA
ATOM      4  H   UNL d   1       2.838   2.287  -0.270  0.00  0.00     0.170 HD
ENDROOT
BRANCH   2   5
ATOM      5  C   UNL d   1      -0.231   3.466   0.370  0.00  0.00     0.075 C 
ATOM      6  C   UNL d   1      -0.838   4.661   0.490  0.00  0.00     0.017 C 
BRANCH   6   7
ATOM      7  C   UNL d   1      -2.239   4.852   0.902  0.00  0.00    -0.036 A 
ATOM      8  C   UNL d   1      -2.924   3.927   1.704  0.00  0.00     0.014 A 
ATOM      9  C   UNL d   1      -4.201   4.209   2.203  0.00  0.00     0.038 A 
ATOM     10  C   UNL d   1      -4.795   5.440   1.938  0.00  0.00     0.078 A 
ATOM     11  C   UNL d   1      -4.152   6.337   1.084  0.00  0.00     0.038 A 
ATOM     12  C   UNL d   1      -2.881   6.051   0.578  0.00  0.00     0.014 A 
BRANCH  10  13
ATOM     13  O   UNL d   1      -5.986   5.872   2.437  0.00  0.00    -0.255 OA
BRANCH  13  14
ATOM     14  C   UNL d   1      -6.365   5.414   3.729  0.00  0.00     0.530 C 
ATOM     15  F   UNL d   1      -5.320   5.035   4.495  0.00  0.00    -0.144 F 
ATOM     16  F   UNL d   1      -7.000   6.421   4.370  0.00  0.00    -0.144 F 
ATOM     17  F   UNL d   1      -7.225   4.380   3.611  0.00  0.00    -0.144 F 
ENDBRANCH  13  14
ENDBRANCH  10  13
ENDBRANCH   6   7
ENDBRANCH   2   5
BRANCH   1  18
ATOM     18  C   UNL d   1       1.324   0.933  -0.340  0.00  0.00     0.138 A 
ATOM     19  N   UNL d   1       0.029   0.605  -0.301  0.00  0.00    -0.282 N 
ATOM     20  N   UNL d   1      -0.001  -0.703  -0.603  0.00  0.00    -0.294 N 
ATOM     21  HN  UNL d   1      -0.762   1.214  -0.089  1.00  0.00     0.189 HD
ATOM     22  C   UNL d   1      -1.258  -1.411  -0.556  0.00  0.00     0.178 C 
ATOM     23  C   UNL d   1       1.227  -1.235  -0.901  0.00  0.00     0.067 A 
ATOM     24  C   UNL d   1       2.124  -0.200  -0.657  0.00  0.00     0.076 A 
ATOM     25  C   UNL d   1       1.631  -2.502  -1.341  0.00  0.00     0.032 A 
ATOM     26  C   UNL d   1       3.496  -0.458  -0.798  0.00  0.00     0.132 A 
ATOM     27  F   UNL d   1       4.399   0.499  -0.536  0.00  0.00    -0.205 F 
ATOM     28  C   UNL d   1       3.932  -1.717  -1.214  0.00  0.00     0.043 A 
ATOM     29  C   UNL d   1       3.006  -2.719  -1.504  0.00  0.00     0.005 A 
ENDBRANCH   1  18
TORSDOF 5
