REMARK  6 active torsions:
REMARK  status: ('A' for Active; 'I' for Inactive)
REMARK    1  A    between atoms: C_7  and  C_1 
REMARK    2  A    between atoms: C_3  and  C_2 
REMARK    3  A    between atoms: S_11  and  C_6 
REMARK    4  A    between atoms: O_17  and  C_7 
REMARK    5  A    between atoms: C_16  and  S_11 
REMARK    6  A    between atoms: C_24  and  O_17 
ROOT
ATOM      1  C   UNL d   1      -0.026  -1.496  -0.001  0.00  0.00     0.086 A 
ATOM      2  C   UNL d   1       1.183  -0.822  -0.007  0.00  0.00     0.136 A 
ATOM      3  N   UNL d   1       1.219   0.551   0.001  0.00  0.00    -0.332 N 
ATOM      4  HN  UNL d   1       2.111   1.045   0.022  1.00  0.00     0.168 HD
ATOM      5  C   UNL d   1       0.063   1.233  -0.018  0.00  0.00     0.149 A 
ATOM      6  N   UNL d   1      -1.143   0.654  -0.037  0.00  0.00    -0.345 N 
ATOM      7  HN  UNL d   1      -2.003   1.203  -0.052  1.00  0.00     0.167 HD
ATOM      8  C   UNL d   1      -1.158  -0.697  -0.035  0.00  0.00     0.110 A 
ENDROOT
BRANCH   5   9
ATOM      9  S   UNL d   1       0.152   2.998   0.036  0.00  0.00    -0.054 SA
BRANCH   9  10
ATOM     10  C   UNL d   1       0.197   3.414  -1.697  0.00  0.00     0.008 A 
ATOM     11  C   UNL d   1      -0.743   4.323  -2.199  0.00  0.00     0.021 A 
ATOM     12  C   UNL d   1      -0.714   4.708  -3.542  0.00  0.00     0.025 A 
ATOM     13  C   UNL d   1       0.262   4.186  -4.389  0.00  0.00     0.034 A 
ATOM     14  C   UNL d   1       1.211   3.290  -3.901  0.00  0.00     0.025 A 
ATOM     15 CL   UNL d   1       0.300   4.659  -6.042  0.00  0.00    -0.084 Cl
ATOM     16  C   UNL d   1       1.182   2.910  -2.555  0.00  0.00     0.021 A 
ENDBRANCH   9  10
ENDBRANCH   5   9
BRANCH   2  17
ATOM     17  C   UNL d   1       2.545  -1.482  -0.079  0.00  0.00     0.433 C 
ATOM     18  F   UNL d   1       2.568  -2.823  -0.296  0.00  0.00    -0.165 F 
ATOM     19  F   UNL d   1       3.297  -0.967  -1.100  0.00  0.00    -0.165 F 
ATOM     20  F   UNL d   1       3.280  -1.274   1.052  0.00  0.00    -0.165 F 
ENDBRANCH   2  17
BRANCH   1  21
ATOM     21  C   UNL d   1      -0.261  -2.945  -0.028  0.00  0.00     0.296 C 
ATOM     22  O   UNL d   1      -1.190  -3.434  -0.644  0.00  0.00    -0.259 OA
BRANCH  21  23
ATOM     23  O   UNL d   1       0.606  -3.603   0.767  0.00  0.00    -0.318 OA
BRANCH  23  24
ATOM     24  C   UNL d   1       0.481  -5.041   0.766  0.00  0.00     0.174 C 
ATOM     25  C   UNL d   1       0.996  -5.652  -0.528  0.00  0.00     0.034 C 
ENDBRANCH  23  24
ENDBRANCH  21  23
ENDBRANCH   1  21
TORSDOF 6
