REMARK  3 active torsions:
REMARK  status: ('A' for Active; 'I' for Inactive)
REMARK       I    between atoms: C_2  and  N_1 
REMARK       I    between atoms: N_6  and  C_2 
REMARK    1  A    between atoms: C_12  and  C_4 
REMARK    2  A    between atoms: C_8  and  N_6 
REMARK    3  A    between atoms: O_27  and  C_24 
ROOT
ATOM      1  N   UNL d   1      -2.560   0.315  -0.316  0.00  0.00    -0.321 N 
ATOM      2  C   UNL d   1      -3.508   0.551  -1.307  0.00  0.00     0.323 C 
ATOM      3  C   UNL d   1      -0.204   0.746   0.165  0.00  0.00    -0.017 A 
ATOM      4  C   UNL d   1      -1.614   1.285   0.278  0.00  0.00     0.156 C 
ATOM      5  C   UNL d   1       0.062  -0.591  -0.078  0.00  0.00    -0.007 A 
ATOM      6  N   UNL d   1      -3.648   1.849  -1.743  0.00  0.00    -0.309 N 
ATOM      7  C   UNL d   1      -2.372  -1.088   0.108  0.00  0.00     0.134 C 
ATOM      8  S   UNL d   1       1.724  -0.940  -0.141  0.00  0.00    -0.106 SA
ATOM      9  C   UNL d   1      -0.987  -1.640  -0.278  0.00  0.00     0.067 C 
ATOM     10  C   UNL d   1       1.014   1.492   0.292  0.00  0.00     0.018 A 
ATOM     11  C   UNL d   1       2.131   0.696   0.153  0.00  0.00     0.051 A 
ATOM     12  O   UNL d   1      -4.166  -0.384  -1.766  0.00  0.00    -0.247 OA
ATOM     13  H   UNL d   1      -3.072   2.556  -1.326  0.00  0.00     0.170 HD
ENDROOT
BRANCH   4  14
ATOM     14  C   UNL d   1      -1.896   1.556   1.756  0.00  0.00    -0.031 A 
ATOM     15  C   UNL d   1      -2.766   2.604   2.101  0.00  0.00     0.012 A 
ATOM     16  C   UNL d   1      -3.071   2.886   3.441  0.00  0.00     0.037 A 
ATOM     17  C   UNL d   1      -2.521   2.118   4.466  0.00  0.00     0.068 A 
ATOM     18  C   UNL d   1      -1.672   1.065   4.140  0.00  0.00     0.037 A 
ATOM     19  C   UNL d   1      -1.366   0.784   2.807  0.00  0.00     0.012 A 
BRANCH  17  20
ATOM     20  O   UNL d   1      -2.729   2.286   5.806  0.00  0.00    -0.356 OA
ATOM     21  C   UNL d   1      -3.626   3.318   6.192  0.00  0.00     0.210 C 
ENDBRANCH  17  20
ENDBRANCH   4  14
BRANCH   6  22
ATOM     22  C   UNL d   1      -4.467   2.309  -2.810  0.00  0.00     0.039 A 
ATOM     23  C   UNL d   1      -5.364   1.507  -3.523  0.00  0.00     0.053 A 
ATOM     24  C   UNL d   1      -6.066   2.024  -4.617  0.00  0.00     0.037 A 
ATOM     25 CL   UNL d   1      -7.141   1.008  -5.499  0.00  0.00    -0.084 Cl
ATOM     26  C   UNL d   1      -5.899   3.346  -5.011  0.00  0.00     0.048 A 
ATOM     27  C   UNL d   1      -5.039   4.159  -4.282  0.00  0.00     0.037 A 
ATOM     28  C   UNL d   1      -4.333   3.654  -3.185  0.00  0.00     0.053 A 
ATOM     29 CL   UNL d   1      -4.825   5.802  -4.747  0.00  0.00    -0.084 Cl
ENDBRANCH   6  22
TORSDOF 3
