REMARK  3 active torsions:
REMARK  status: ('A' for Active; 'I' for Inactive)
REMARK    1  A    between atoms: C_2  and  C_1 
REMARK       I    between atoms: N_5  and  C_2 
REMARK    2  A    between atoms: C_13  and  N_5 
REMARK    3  A    between atoms: C_8  and  C_13 
ROOT
ATOM      1  C   UNL d   1      -2.418  -2.302  -0.019  0.00  0.00     0.253 C 
ATOM      2  N   UNL d   1      -2.405  -3.676  -0.005  0.00  0.00    -0.352 N 
ATOM      3  O   UNL d   1      -3.474  -1.675  -0.049  0.00  0.00    -0.268 OA
ATOM      4  H   UNL d   1      -1.534  -4.182   0.093  0.00  0.00     0.163 HD
ENDROOT
BRANCH   1   5
ATOM      5  C   UNL d   1      -1.114  -1.556   0.005  0.00  0.00     0.053 A 
ATOM      6  C   UNL d   1       0.175  -2.115   0.025  0.00  0.00     0.051 A 
ATOM      7  C   UNL d   1       1.310  -1.286   0.033  0.00  0.00     0.048 A 
ATOM      8 CL   UNL d   1       0.506  -3.813   0.040  0.00  0.00    -0.083 Cl
ATOM      9  C   UNL d   1       1.174   0.099   0.021  0.00  0.00     0.035 A 
ATOM     10  C   UNL d   1      -0.089   0.674   0.005  0.00  0.00     0.025 A 
ATOM     11 CL   UNL d   1       2.573   1.097   0.026  0.00  0.00    -0.084 Cl
ATOM     12  C   UNL d   1      -1.221  -0.147  -0.003  0.00  0.00     0.020 A 
ENDBRANCH   1   5
BRANCH   2  13
ATOM     13  C   UNL d   1      -3.639  -4.426   0.029  0.00  0.00     0.169 C 
BRANCH  13  14
ATOM     14  C   UNL d   1      -3.343  -5.890  -0.041  0.00  0.00     0.000 A 
ATOM     15  S   UNL d   1      -3.173  -6.808   1.398  0.00  0.00    -0.105 SA
ATOM     16  C   UNL d   1      -2.965  -8.263   0.524  0.00  0.00     0.050 A 
ATOM     17  C   UNL d   1      -2.993  -8.056  -0.836  0.00  0.00     0.008 A 
ATOM     18  C   UNL d   1      -3.200  -6.684  -1.163  0.00  0.00     0.017 A 
ENDBRANCH  13  14
ENDBRANCH   2  13
TORSDOF 3
