REMARK  3 active torsions:
REMARK  status: ('A' for Active; 'I' for Inactive)
REMARK    1  A    between atoms: C_7  and  N_1 
REMARK    2  A    between atoms: C_15  and  C_7 
REMARK    3  A    between atoms: C_17  and  C_15 
ROOT
ATOM      1  N   UNL d   1       2.736   0.048  -0.068  0.00  0.00    -0.280 N 
ATOM      2  C   UNL d   1       2.062   1.269  -0.034  0.00  0.00     0.261 A 
ATOM      3  C   UNL d   1       2.106  -1.191   0.028  0.00  0.00     0.261 A 
ATOM      4  C   UNL d   1       0.579   1.226  -0.021  0.00  0.00     0.044 A 
ATOM      5  C   UNL d   1      -0.092  -0.003  -0.014  0.00  0.00     0.007 A 
ATOM      6  C   UNL d   1       0.625  -1.206   0.001  0.00  0.00     0.044 A 
ATOM      7  C   UNL d   1      -1.515  -0.031  -0.011  0.00  0.00    -0.006 A 
ATOM      8  C   UNL d   1      -0.133   2.433  -0.012  0.00  0.00     0.019 A 
ATOM      9  O   UNL d   1       2.713  -2.254   0.148  0.00  0.00    -0.267 OA
ATOM     10  O   UNL d   1       2.618   2.362   0.006  0.00  0.00    -0.267 OA
ATOM     11  C   UNL d   1      -2.211   1.206  -0.008  0.00  0.00     0.022 A 
ATOM     12  C   UNL d   1      -1.523   2.422  -0.005  0.00  0.00     0.021 A 
ATOM     13  C   UNL d   1      -0.035  -2.441   0.006  0.00  0.00     0.018 A 
ATOM     14 BR   UNL d   1      -4.113   1.315  -0.004  0.00  0.00    -0.050 Br
ATOM     15  C   UNL d   1      -2.151  -1.296  -0.006  0.00  0.00     0.014 A 
ATOM     16  C   UNL d   1      -1.422  -2.485   0.000  0.00  0.00     0.002 A 
ENDROOT
BRANCH   1  17
ATOM     17  C   UNL d   1       4.204   0.063  -0.024  0.00  0.00     0.141 C 
BRANCH  17  18
ATOM     18  C   UNL d   1       4.862  -0.586  -1.248  0.00  0.00     0.077 C 
BRANCH  18  19
ATOM     19  C   UNL d   1       6.364  -0.509  -1.147  0.00  0.00     0.010 A 
ATOM     20  N   UNL d   1       6.958   0.573  -1.704  0.00  0.00    -0.369 N 
ATOM     21  C   UNL d   1       8.300   0.681  -1.579  0.00  0.00     0.088 A 
ATOM     22  HN  UNL d   1       6.414   1.280  -2.199  1.00  0.00     0.165 HD
ATOM     23  C   UNL d   1       9.088  -0.239  -0.910  0.00  0.00     0.017 A 
ATOM     24  C   UNL d   1       8.465  -1.345  -0.345  0.00  0.00     0.003 A 
ATOM     25  C   UNL d   1       7.085  -1.488  -0.464  0.00  0.00     0.025 A 
ENDBRANCH  18  19
ENDBRANCH  17  18
ENDBRANCH   1  17
TORSDOF 3
