REMARK  2 active torsions:
REMARK  status: ('A' for Active; 'I' for Inactive)
REMARK    1  A    between atoms: N_8  and  C_3 
REMARK    2  A    between atoms: C_7  and  C_4 
ROOT
ATOM      1  N   UNL d   1      -0.630  -0.770   1.161  0.00  0.00    -0.336 N 
ATOM      2  HN  UNL d   1      -0.836  -1.145   2.087  1.00  0.00     0.168 HD
ATOM      3  C   UNL d   1       0.132   0.268   0.929  0.00  0.00     0.142 A 
ATOM      4  C   UNL d   1      -1.117  -1.288  -0.029  0.00  0.00     0.051 A 
ATOM      5  S   UNL d   1       0.311   0.699  -0.722  0.00  0.00    -0.064 SA
ATOM      6  C   UNL d   1      -0.692  -0.622  -1.162  0.00  0.00     0.083 A 
ENDROOT
BRANCH   4   7
ATOM      7  C   UNL d   1      -1.977  -2.468  -0.050  0.00  0.00    -0.009 A 
ATOM      8  C   UNL d   1      -2.894  -2.700  -1.085  0.00  0.00     0.014 A 
ATOM      9  C   UNL d   1      -3.697  -3.844  -1.086  0.00  0.00     0.007 A 
ATOM     10  C   UNL d   1      -3.602  -4.780  -0.051  0.00  0.00    -0.062 A 
ATOM     11  C   UNL d   1      -2.698  -4.550   0.991  0.00  0.00     0.007 A 
ATOM     12  C   UNL d   1      -4.464  -6.007  -0.072  0.00  0.00     0.048 C 
ATOM     13  C   UNL d   1      -1.897  -3.403   0.992  0.00  0.00     0.014 A 
ENDBRANCH   4   7
BRANCH   3  14
ATOM     14  N   UNL d   1       0.752   0.958   1.895  0.00  0.00    -0.380 N 
ATOM     15  H   UNL d   1       0.509   0.767   2.858  0.00  0.00     0.158 HD
ATOM     16  H   UNL d   1       1.205   1.841   1.700  0.00  0.00     0.158 HD
ENDBRANCH   3  14
TORSDOF 2
