REMARK  2 active torsions:
REMARK  status: ('A' for Active; 'I' for Inactive)
REMARK    1  A    between atoms: C_2  and  C_1 
REMARK    2  A    between atoms: C_13  and  C_5 
ROOT
ATOM      1  C   UNL d   1       0.002  -1.291  -0.035  0.00  0.00     0.052 A 
ATOM      2  N   UNL d   1      -1.321   0.552   0.051  0.00  0.00    -0.259 N 
ATOM      3  HN  UNL d   1      -2.132   1.171   0.073  1.00  0.00     0.195 HD
ATOM      4  C   UNL d   1      -1.340  -0.795   0.021  0.00  0.00     0.080 A 
ATOM      5  O   UNL d   1       0.001   0.932   0.046  0.00  0.00    -0.241 OA
ATOM      6  C   UNL d   1       0.795  -0.167   0.004  0.00  0.00     0.087 A 
ATOM      7  C   UNL d   1       2.248   0.086  -0.011  0.00  0.00     0.080 C 
ENDROOT
BRANCH   1   8
ATOM      8  C   UNL d   1       0.432  -2.685  -0.118  0.00  0.00     0.054 A 
ATOM      9  N   UNL d   1      -0.342  -3.571  -0.841  0.00  0.00    -0.353 N 
ATOM     10  C   UNL d   1       0.156  -4.785  -0.756  0.00  0.00     0.047 A 
ATOM     11  HN  UNL d   1      -1.180  -3.319  -1.366  1.00  0.00     0.166 HD
ATOM     12  C   UNL d   1      -0.469  -5.992  -1.359  0.00  0.00     0.076 C 
ATOM     13  S   UNL d   1       1.613  -4.920   0.145  0.00  0.00    -0.087 SA
ATOM     14  C   UNL d   1       1.550  -3.236   0.470  0.00  0.00     0.082 A 
ENDBRANCH   1   8
BRANCH   4  15
ATOM     15  C   UNL d   1      -2.623  -1.506   0.077  0.00  0.00    -0.007 A 
ATOM     16  C   UNL d   1      -3.756  -0.970  -0.555  0.00  0.00     0.014 A 
ATOM     17  C   UNL d   1      -4.983  -1.639  -0.512  0.00  0.00     0.001 A 
ATOM     18  C   UNL d   1      -5.093  -2.853   0.163  0.00  0.00     0.000 A 
ATOM     19  C   UNL d   1      -3.984  -3.388   0.811  0.00  0.00     0.001 A 
ATOM     20  C   UNL d   1      -2.762  -2.711   0.781  0.00  0.00     0.014 A 
ENDBRANCH   4  15
TORSDOF 2
