REMARK  5 active torsions:
REMARK  status: ('A' for Active; 'I' for Inactive)
REMARK    1  A    between atoms: C_2  and  C_1 
REMARK    2  A    between atoms: C_7  and  N_3 
REMARK    3  A    between atoms: O_10  and  C_5 
REMARK    4  A    between atoms: C_17  and  C_7 
REMARK    5  A    between atoms: C_8  and  C_17 
ROOT
ATOM      1  C   UNL d   1       0.958   2.442   0.047  0.00  0.00     0.014 C 
ATOM      2  N   UNL d   1       0.364   3.589   0.148  0.00  0.00    -0.392 N 
ATOM      3  HN  UNL d   1       0.904   4.446   0.266  1.00  0.00     0.159 HD
ATOM      4  C   UNL d   1       0.212   1.131  -0.124  0.00  0.00     0.068 C 
ENDROOT
BRANCH   2   5
ATOM      5  C   UNL d   1      -1.101   3.628   0.090  0.00  0.00     0.124 C 
BRANCH   5   6
ATOM      6  C   UNL d   1      -1.576   5.080   0.195  0.00  0.00     0.058 C 
BRANCH   6   7
ATOM      7  C   UNL d   1      -3.084   5.168   0.131  0.00  0.00    -0.057 A 
ATOM      8  C   UNL d   1      -3.849   5.088   1.304  0.00  0.00     0.009 A 
ATOM      9  C   UNL d   1      -5.243   5.122   1.243  0.00  0.00     0.024 A 
ATOM     10  C   UNL d   1      -5.880   5.232   0.009  0.00  0.00     0.034 A 
ATOM     11  C   UNL d   1      -5.134   5.311  -1.164  0.00  0.00     0.024 A 
ATOM     12 CL   UNL d   1      -7.599   5.262  -0.066  0.00  0.00    -0.084 Cl
ATOM     13  C   UNL d   1      -3.739   5.278  -1.104  0.00  0.00     0.009 A 
ENDBRANCH   6   7
ENDBRANCH   5   6
ENDBRANCH   2   5
BRANCH   1  14
ATOM     14  C   UNL d   1       2.455   2.405   0.070  0.00  0.00     0.019 A 
ATOM     15  C   UNL d   1       3.206   1.350   0.605  0.00  0.00     0.077 A 
ATOM     16  C   UNL d   1       4.597   1.334   0.484  0.00  0.00     0.037 A 
ATOM     17  C   UNL d   1       5.261   2.401  -0.119  0.00  0.00     0.003 A 
ATOM     18  C   UNL d   1       4.531   3.484  -0.604  0.00  0.00     0.001 A 
ATOM     19  C   UNL d   1       3.136   3.484  -0.516  0.00  0.00     0.016 A 
BRANCH  15  20
ATOM     20  O   UNL d   1       2.667   0.308   1.308  0.00  0.00    -0.360 OA
ATOM     21  H   UNL d   1       1.914   0.651   1.819  0.00  0.00     0.217 HD
ENDBRANCH  15  20
ENDBRANCH   1  14
TORSDOF 5
