REMARK  5 active torsions:
REMARK  status: ('A' for Active; 'I' for Inactive)
REMARK    1  A    between atoms: C_2  and  S_1 
REMARK    2  A    between atoms: N_5  and  S_1 
REMARK    3  A    between atoms: N_3  and  C_12 
REMARK    4  A    between atoms: O_13  and  C_4 
REMARK    5  A    between atoms: C_18  and  O_13 
ROOT
ATOM      1  C   UNL d   1       0.501   0.764  -1.493  0.00  0.00     0.083 A 
ATOM      2  C   UNL d   1      -0.130   2.139  -3.869  0.00  0.00     0.119 A 
ATOM      3  C   UNL d   1       0.133   0.759  -3.889  0.00  0.00     0.071 A 
ATOM      4  C   UNL d   1       0.030   2.829  -2.655  0.00  0.00     0.071 A 
ATOM      5  C   UNL d   1       0.337   2.151  -1.470  0.00  0.00     0.052 A 
ATOM      6  C   UNL d   1       0.434   0.076  -2.706  0.00  0.00     0.052 A 
ATOM      7 CL   UNL d   1       0.185  -0.174  -5.346  0.00  0.00    -0.081 Cl
ATOM      8 CL   UNL d   1      -0.092   4.554  -2.586  0.00  0.00    -0.081 Cl
ENDROOT
BRANCH   2   9
ATOM      9  O   UNL d   1      -0.407   2.897  -4.988  0.00  0.00    -0.307 OA
BRANCH   9  10
ATOM     10  C   UNL d   1      -1.422   2.532  -5.845  0.00  0.00     0.076 A 
ATOM     11  C   UNL d   1      -2.526   1.746  -5.500  0.00  0.00     0.040 A 
ATOM     12  C   UNL d   1      -3.430   1.338  -6.488  0.00  0.00     0.039 A 
ATOM     13  C   UNL d   1      -3.254   1.766  -7.811  0.00  0.00     0.103 A 
ATOM     14  C   UNL d   1      -2.204   2.630  -8.143  0.00  0.00     0.039 A 
ATOM     15  C   UNL d   1      -1.293   3.010  -7.154  0.00  0.00     0.040 A 
BRANCH  13  16
ATOM     16  N   UNL d   1      -4.165   1.289  -8.860  0.00  0.00    -0.116 N 
ATOM     17  O   UNL d   1      -5.025   0.456  -8.539  0.00  0.00    -0.532 OA
ATOM     18  O   UNL d   1      -4.014   1.739 -10.004  0.00  0.00    -0.532 OA
ENDBRANCH  13  16
ENDBRANCH   9  10
ENDBRANCH   2   9
BRANCH   1  19
ATOM     19  S   UNL d   1       0.992  -0.106  -0.010  0.00  0.00     0.261 S 
ATOM     20  O   UNL d   1       1.120   0.882   1.036  0.00  0.00    -0.200 OA
ATOM     21  O   UNL d   1       2.107  -0.945  -0.389  0.00  0.00    -0.200 OA
BRANCH  19  22
ATOM     22  N   UNL d   1      -0.335  -1.109   0.373  0.00  0.00    -0.307 N 
ATOM     23  C   UNL d   1      -0.566  -2.289  -0.493  0.00  0.00     0.135 C 
ATOM     24  C   UNL d   1      -1.504  -3.285   0.181  0.00  0.00     0.021 C 
ATOM     25  C   UNL d   1      -2.807  -2.611   0.594  0.00  0.00     0.003 C 
ATOM     26  C   UNL d   1      -2.506  -1.434   1.512  0.00  0.00     0.021 C 
ATOM     27  C   UNL d   1      -1.569  -0.430   0.837  0.00  0.00     0.135 C 
ENDBRANCH  19  22
ENDBRANCH   1  19
TORSDOF 5
