REMARK  5 active torsions:
REMARK  status: ('A' for Active; 'I' for Inactive)
REMARK    1  A    between atoms: C_8  and  N_1 
REMARK    2  A    between atoms: S_9  and  C_2 
REMARK    3  A    between atoms: O_11  and  C_3 
REMARK    4  A    between atoms: C_13  and  S_9 
REMARK    5  A    between atoms: C_16  and  C_13 
ROOT
ATOM      1  N   UNL d   1      -0.184  -1.340  -0.006  0.00  0.00    -0.255 N 
ATOM      2  C   UNL d   1       1.048  -0.706   0.073  0.00  0.00     0.169 A 
ATOM      3  C   UNL d   1      -1.082  -0.277  -0.038  0.00  0.00     0.245 A 
ATOM      4  N   UNL d   1       0.894   0.599   0.104  0.00  0.00    -0.276 N 
ATOM      5  HN  UNL d   1       1.640   1.289   0.180  1.00  0.00     0.189 HD
ATOM      6  N   UNL d   1      -0.446   0.868   0.017  0.00  0.00    -0.263 N 
ATOM      7  HN  UNL d   1      -0.873   1.794  -0.002  1.00  0.00     0.190 HD
ENDROOT
BRANCH   2   8
ATOM      8  S   UNL d   1       2.596  -1.481  -0.081  0.00  0.00    -0.087 SA
BRANCH   8   9
ATOM      9  C   UNL d   1       3.644  -0.284   0.794  0.00  0.00     0.121 C 
BRANCH   9  10
ATOM     10  C   UNL d   1       5.087  -0.722   0.831  0.00  0.00    -0.049 A 
ATOM     11  C   UNL d   1       5.985  -0.286  -0.155  0.00  0.00     0.008 A 
ATOM     12  C   UNL d   1       7.328  -0.666  -0.109  0.00  0.00     0.001 A 
ATOM     13  C   UNL d   1       7.785  -1.492   0.915  0.00  0.00     0.000 A 
ATOM     14  C   UNL d   1       6.899  -1.949   1.889  0.00  0.00     0.001 A 
ATOM     15  C   UNL d   1       5.556  -1.570   1.846  0.00  0.00     0.008 A 
ENDBRANCH   9  10
ENDBRANCH   8   9
ENDBRANCH   2   8
BRANCH   1  16
ATOM     16  C   UNL d   1      -0.498  -2.730  -0.041  0.00  0.00     0.046 A 
ATOM     17  C   UNL d   1       0.278  -3.656   0.669  0.00  0.00     0.054 A 
ATOM     18  C   UNL d   1      -0.028  -5.016   0.609  0.00  0.00     0.036 A 
ATOM     19 CL   UNL d   1       0.942  -6.144   1.473  0.00  0.00    -0.084 Cl
ATOM     20  C   UNL d   1      -1.113  -5.467  -0.137  0.00  0.00     0.024 A 
ATOM     21  C   UNL d   1      -1.902  -4.549  -0.831  0.00  0.00     0.004 A 
ATOM     22  C   UNL d   1      -1.598  -3.185  -0.786  0.00  0.00     0.030 A 
ENDBRANCH   1  16
BRANCH   3  23
ATOM     23  O   UNL d   1      -2.407  -0.348  -0.014  0.00  0.00    -0.331 OA
ATOM     24  H   UNL d   1      -2.664  -1.191   0.392  0.00  0.00     0.221 HD
ENDBRANCH   3  23
TORSDOF 5
