REMARK  4 active torsions:
REMARK  status: ('A' for Active; 'I' for Inactive)
REMARK    1  A    between atoms: C_2  and  N_1 
REMARK    2  A    between atoms: C_11  and  C_8 
REMARK    3  A    between atoms: C_15  and  C_9 
REMARK    4  A    between atoms: O_24  and  C_15 
ROOT
ATOM      1  N   UNL d   1       0.967  -0.629  -0.073  0.00  0.00    -0.069 N 
ATOM      2  C   UNL d   1       0.727   0.472   0.768  0.00  0.00     0.161 A 
ATOM      3  N   UNL d   1      -0.064  -0.821  -0.952  0.00  0.00    -0.288 N 
ATOM      4  HN  UNL d   1      -0.138  -1.528  -1.683  1.00  0.00     0.187 HD
ATOM      5  C   UNL d   1      -0.514   0.952   0.405  0.00  0.00     0.107 A 
ATOM      6  C   UNL d   1      -0.950   0.123  -0.636  0.00  0.00     0.135 A 
ATOM      7  C   UNL d   1      -1.204   2.058   0.970  0.00  0.00     0.105 C 
ATOM      8  N   UNL d   1      -1.768   2.965   1.432  0.00  0.00    -0.191 NA
ATOM      9  N   UNL d   1       1.599   0.914   1.710  0.00  0.00    -0.382 N 
ATOM     10  H   UNL d   1       2.488   0.435   1.886  0.00  0.00     0.157 HD
ATOM     11  H   UNL d   1       1.454   1.747   2.276  0.00  0.00     0.157 HD
ENDROOT
BRANCH   1  12
ATOM     12  C   UNL d   1       2.123  -1.490  -0.061  0.00  0.00     0.705 A 
ATOM     13  N   UNL d   1       3.029  -1.311   0.924  0.00  0.00    -0.183 N 
ATOM     14  C   UNL d   1       4.119  -2.138   1.001  0.00  0.00     0.150 A 
ATOM     15  HN  UNL d   1       2.903  -0.565   1.607  1.00  0.00     0.184 HD
ATOM     16  C   UNL d   1       4.348  -3.108   0.038  0.00  0.00     0.087 A 
ATOM     17  C   UNL d   1       3.369  -3.207  -0.940  0.00  0.00     0.126 A 
ATOM     18  N   UNL d   1       2.257  -2.440  -1.002  0.00  0.00    -0.199 N 
ATOM     19  HN  UNL d   1       1.553  -2.576  -1.728  1.00  0.00     0.183 HD
BRANCH  14  20
ATOM     20  C   UNL d   1       4.960  -1.943   2.247  0.00  0.00     0.434 C 
ATOM     21  F   UNL d   1       4.470  -0.931   3.034  0.00  0.00    -0.165 F 
ATOM     22  F   UNL d   1       4.973  -3.037   3.059  0.00  0.00    -0.165 F 
ATOM     23  F   UNL d   1       6.253  -1.595   2.014  0.00  0.00    -0.165 F 
ENDBRANCH  14  20
BRANCH  16  24
ATOM     24  C   UNL d   1       5.485  -4.046  -0.079  0.00  0.00     0.296 C 
ATOM     25  O   UNL d   1       5.568  -4.877  -0.969  0.00  0.00    -0.259 OA
BRANCH  24  26
ATOM     26  O   UNL d   1       6.396  -3.844   0.891  0.00  0.00    -0.322 OA
ATOM     27  C   UNL d   1       7.545  -4.696   0.815  0.00  0.00     0.213 C 
ENDBRANCH  24  26
ENDBRANCH  16  24
ENDBRANCH   1  12
TORSDOF 4
