REMARK  2 active torsions:
REMARK  status: ('A' for Active; 'I' for Inactive)
REMARK    1  A    between atoms: C_7  and  N_1 
REMARK    2  A    between atoms: C_4  and  C_11 
ROOT
ATOM      1  C   UNL d   1       0.195   0.909  -0.941  0.00  0.00     0.102 A 
ATOM      2  C   UNL d   1      -1.189   2.682  -2.626  0.00  0.00     0.010 A 
ATOM      3  C   UNL d   1       0.556   1.012  -2.290  0.00  0.00     0.037 A 
ATOM      4  C   UNL d   1      -0.862   1.671  -0.430  0.00  0.00     0.037 A 
ATOM      5  C   UNL d   1      -0.138   1.895  -3.125  0.00  0.00     0.018 A 
ATOM      6  C   UNL d   1      -1.548   2.553  -1.274  0.00  0.00     0.018 A 
ENDROOT
BRANCH   2   7
ATOM      7  C   UNL d   1      -1.887   3.635  -3.483  0.00  0.00     0.137 A 
ATOM      8  N   UNL d   1      -2.880   4.467  -3.006  0.00  0.00    -0.329 N 
ATOM      9  C   UNL d   1      -3.198   5.158  -4.070  0.00  0.00     0.261 A 
ATOM     10  HN  UNL d   1      -3.266   4.527  -2.064  1.00  0.00     0.168 HD
ATOM     11  O   UNL d   1      -2.491   4.824  -5.176  0.00  0.00    -0.231 OA
ATOM     12  N   UNL d   1      -1.617   3.809  -4.789  0.00  0.00    -0.243 N 
ATOM     13  HN  UNL d   1      -0.933   3.314  -5.362  1.00  0.00     0.196 HD
ENDBRANCH   2   7
BRANCH   1  14
ATOM     14  N   UNL d   1       0.938   0.004  -0.055  0.00  0.00    -0.116 N 
ATOM     15  O   UNL d   1       1.886  -0.630  -0.542  0.00  0.00    -0.532 OA
ATOM     16  O   UNL d   1       0.577  -0.070   1.128  0.00  0.00    -0.532 OA
ENDBRANCH   1  14
TORSDOF 2
