REMARK  2 active torsions:
REMARK  status: ('A' for Active; 'I' for Inactive)
REMARK    1  A    between atoms: C_3  and  C_1 
REMARK       I    between atoms: N_5  and  C_1 
REMARK       I    between atoms: C_2  and  N_6 
REMARK    2  A    between atoms: C_4  and  C_2 
ROOT
ATOM      1  C   UNL d   1       0.713   0.148  -0.149  0.00  0.00     0.260 C 
ATOM      2  C   UNL d   1      -1.151   2.061   4.642  0.00  0.00     0.260 C 
ATOM      3  N   UNL d   1       0.243   0.555   1.098  0.00  0.00    -0.345 N 
ATOM      4  N   UNL d   1      -0.327   1.327   3.796  0.00  0.00    -0.345 N 
ATOM      5  O   UNL d   1       1.517   0.793  -0.817  0.00  0.00    -0.267 OA
ATOM      6  O   UNL d   1      -0.984   3.263   4.853  0.00  0.00    -0.267 OA
ATOM      7  C   UNL d   1       0.754   2.011   3.070  0.00  0.00     0.146 C 
ATOM      8  C   UNL d   1      -0.489  -0.071   3.392  0.00  0.00     0.146 C 
ATOM      9  C   UNL d   1       0.543   1.926   1.549  0.00  0.00     0.146 C 
ATOM     10  C   UNL d   1      -0.781  -0.151   1.886  0.00  0.00     0.146 C 
ENDROOT
BRANCH   1  11
ATOM     11  C   UNL d   1       0.248  -1.129  -0.704  0.00  0.00     0.109 A 
ATOM     12  C   UNL d   1      -1.085  -1.310  -1.062  0.00  0.00     0.135 A 
ATOM     13  F   UNL d   1      -1.978  -0.321  -0.908  0.00  0.00    -0.205 F 
ATOM     14  C   UNL d   1      -1.530  -2.538  -1.549  0.00  0.00     0.043 A 
ATOM     15  C   UNL d   1      -0.626  -3.588  -1.711  0.00  0.00     0.006 A 
ATOM     16  C   UNL d   1       0.719  -3.400  -1.390  0.00  0.00     0.043 A 
ATOM     17  C   UNL d   1       1.151  -2.171  -0.889  0.00  0.00     0.135 A 
ATOM     18  F   UNL d   1       2.442  -2.035  -0.557  0.00  0.00    -0.205 F 
ENDBRANCH   1  11
BRANCH   2  19
ATOM     19  C   UNL d   1      -2.269   1.416   5.351  0.00  0.00     0.109 A 
ATOM     20  C   UNL d   1      -2.346   1.523   6.739  0.00  0.00     0.135 A 
ATOM     21  F   UNL d   1      -1.385   2.144   7.439  0.00  0.00    -0.205 F 
ATOM     22  C   UNL d   1      -3.417   0.969   7.444  0.00  0.00     0.043 A 
ATOM     23  C   UNL d   1      -4.429   0.296   6.760  0.00  0.00     0.006 A 
ATOM     24  C   UNL d   1      -4.373   0.203   5.370  0.00  0.00     0.043 A 
ATOM     25  C   UNL d   1      -3.311   0.785   4.675  0.00  0.00     0.135 A 
ATOM     26  F   UNL d   1      -3.319   0.707   3.338  0.00  0.00    -0.205 F 
ENDBRANCH   2  19
TORSDOF 2
