REMARK  4 active torsions:
REMARK  status: ('A' for Active; 'I' for Inactive)
REMARK    1  A    between atoms: C_4  and  C_1 
REMARK    2  A    between atoms: C_8  and  C_3 
REMARK       I    between atoms: N_7  and  C_4 
REMARK    3  A    between atoms: C_10  and  N_7 
REMARK    4  A    between atoms: O_17  and  C_11 
ROOT
ATOM      1  C   UNL d   1      -2.736  -1.290   0.142  0.00  0.00     0.258 C 
ATOM      2  N   UNL d   1      -3.902  -0.549   0.214  0.00  0.00    -0.323 N 
ATOM      3  O   UNL d   1      -2.690  -2.509   0.019  0.00  0.00    -0.267 OA
ATOM      4  H   UNL d   1      -3.817   0.453   0.218  0.00  0.00     0.169 HD
ENDROOT
BRANCH   1   5
ATOM      5  C   UNL d   1      -1.469  -0.548   0.179  0.00  0.00     0.064 A 
ATOM      6  C   UNL d   1      -0.203  -1.163  -0.110  0.00  0.00     0.053 A 
ATOM      7  C   UNL d   1       0.776  -0.211   0.050  0.00  0.00     0.062 A 
ATOM      8  O   UNL d   1       0.189   0.967   0.395  0.00  0.00    -0.318 OA
ATOM      9  C   UNL d   1      -1.159   0.768   0.494  0.00  0.00     0.065 A 
ATOM     10  C   UNL d   1      -1.887   1.980   0.925  0.00  0.00     0.077 C 
BRANCH   7  11
ATOM     11  C   UNL d   1       2.279  -0.211  -0.048  0.00  0.00    -0.002 C 
ATOM     12  C   UNL d   1       2.821  -1.627  -0.321  0.00  0.00     0.021 C 
ATOM     13  C   UNL d   1       2.725   0.715  -1.193  0.00  0.00     0.021 C 
ATOM     14  C   UNL d   1       2.877   0.289   1.280  0.00  0.00     0.021 C 
ENDBRANCH   7  11
ENDBRANCH   1   5
BRANCH   2  15
ATOM     15  C   UNL d   1      -5.222  -1.052   0.113  0.00  0.00     0.035 A 
ATOM     16  C   UNL d   1      -5.535  -2.411   0.024  0.00  0.00     0.032 A 
ATOM     17  C   UNL d   1      -6.850  -2.841  -0.190  0.00  0.00     0.039 A 
ATOM     18  C   UNL d   1      -7.880  -1.912  -0.310  0.00  0.00     0.068 A 
ATOM     19  C   UNL d   1      -7.591  -0.560  -0.132  0.00  0.00     0.039 A 
ATOM     20  C   UNL d   1      -6.274  -0.130   0.079  0.00  0.00     0.032 A 
BRANCH  18  21
ATOM     21  O   UNL d   1      -9.184  -2.208  -0.594  0.00  0.00    -0.356 OA
ATOM     22  C   UNL d   1      -9.434  -3.516  -1.103  0.00  0.00     0.210 C 
ENDBRANCH  18  21
ENDBRANCH   2  15
TORSDOF 4
