REMARK  9 active torsions:
REMARK  status: ('A' for Active; 'I' for Inactive)
REMARK    1  A    between atoms: N_2  and  C_1 
REMARK    2  A    between atoms: N_3  and  C_1 
REMARK    3  A    between atoms: N_7  and  N_3 
REMARK    4  A    between atoms: C_4  and  C_21 
REMARK       I    between atoms: N_17  and  C_4 
REMARK    5  A    between atoms: C_9  and  N_7 
REMARK    6  A    between atoms: O_25  and  C_8 
REMARK    7  A    between atoms: N_10  and  N_17 
REMARK    8  A    between atoms: C_12  and  C_23 
REMARK    9  A    between atoms: O_27  and  C_22 
ROOT
ATOM      1  N   UNL d   1       0.174  -0.816   0.766  0.00  0.00    -0.357 N 
ATOM      2  C   UNL d   1      -0.964  -1.644   0.352  0.00  0.00     0.126 C 
ATOM      3  C   UNL d   1      -2.652  -1.173   2.269  0.00  0.00     0.081 C 
ATOM      4  C   UNL d   1      -2.325  -1.084   0.768  0.00  0.00     0.034 C 
ATOM      5  C   UNL d   1       0.710  -0.975   2.117  0.00  0.00     0.125 C 
ATOM      6  C   UNL d   1      -0.282  -1.257   3.239  0.00  0.00     0.021 C 
ATOM      7  C   UNL d   1      -1.596  -0.485   3.145  0.00  0.00     0.015 C 
ENDROOT
BRANCH   3   8
ATOM      8  C   UNL d   1      -2.958  -2.617   2.698  0.00  0.00     0.240 C 
ATOM      9  N   UNL d   1      -3.324  -2.757   4.036  0.00  0.00    -0.270 N 
ATOM     10  H   UNL d   1      -3.414  -1.952   4.645  0.00  0.00     0.190 HD
ATOM     11  O   UNL d   1      -2.903  -3.561   1.910  0.00  0.00    -0.271 OA
BRANCH   9  12
ATOM     12  N   UNL d   1      -3.742  -3.978   4.462  0.00  0.00    -0.308 N 
ATOM     13  C   UNL d   1      -4.074  -4.093   5.707  0.00  0.00     0.121 C 
ATOM     14  HN  UNL d   1      -3.792  -4.772   3.825  1.00  0.00     0.186 HD
BRANCH  13  15
ATOM     15  C   UNL d   1      -4.638  -5.366   6.213  0.00  0.00     0.017 A 
ATOM     16  C   UNL d   1      -4.866  -6.476   5.369  0.00  0.00     0.110 A 
ATOM     17  C   UNL d   1      -5.482  -7.624   5.885  0.00  0.00     0.102 A 
ATOM     18  C   UNL d   1      -5.843  -7.650   7.240  0.00  0.00     0.040 A 
ATOM     19  C   UNL d   1      -5.597  -6.561   8.079  0.00  0.00     0.004 A 
ATOM     20  C   UNL d   1      -4.995  -5.417   7.564  0.00  0.00     0.016 A 
BRANCH  16  21
ATOM     21  O   UNL d   1      -4.494  -6.439   4.050  0.00  0.00    -0.357 OA
ATOM     22  H   UNL d   1      -4.097  -5.562   3.843  0.00  0.00     0.217 HD
ENDBRANCH  16  21
BRANCH  17  23
ATOM     23  O   UNL d   1      -5.814  -8.784   5.235  0.00  0.00    -0.353 OA
ATOM     24  C   UNL d   1      -5.538  -8.887   3.846  0.00  0.00     0.210 C 
ENDBRANCH  17  23
ENDBRANCH  13  15
ENDBRANCH   9  12
ENDBRANCH   3   8
BRANCH   1  25
ATOM     25  C   UNL d   1       0.896  -0.043  -0.169  0.00  0.00     0.184 C 
ATOM     26  S   UNL d   1       0.192   0.867  -1.391  0.00  0.00    -0.040 SA
BRANCH  25  27
ATOM     27  N   UNL d   1       2.267  -0.065   0.095  0.00  0.00    -0.297 N 
ATOM     28  H   UNL d   1       2.647  -0.944   0.435  0.00  0.00     0.183 HD
BRANCH  27  29
ATOM     29  N   UNL d   1       3.183   0.890  -0.376  0.00  0.00    -0.233 NA
ATOM     30  H   UNL d   1       2.691   1.515  -1.027  0.00  0.00     0.147 HD
BRANCH  29  31
ATOM     31  C   UNL d   1       3.690   1.679   0.757  0.00  0.00     0.085 C 
ATOM     32  C   UNL d   1       4.804   2.703   0.378  0.00  0.00     0.028 C 
ATOM     33  C   UNL d   1       4.288   3.619  -0.707  0.00  0.00    -0.024 C 
ATOM     34  C   UNL d   1       4.715   3.676   1.562  0.00  0.00     0.018 C 
ATOM     35  C   UNL d   1       3.329   4.377  -0.155  0.00  0.00    -0.026 C 
ATOM     36  C   UNL d   1       3.243   4.002   1.310  0.00  0.00     0.010 C 
ATOM     37  C   UNL d   1       2.614   2.603   1.422  0.00  0.00     0.030 C 
ENDBRANCH  29  31
ENDBRANCH  27  29
ENDBRANCH  25  27
ENDBRANCH   1  25
TORSDOF 9
