REMARK  6 active torsions:
REMARK  status: ('A' for Active; 'I' for Inactive)
REMARK       I    between atoms: N_4  and  C_1 
REMARK    1  A    between atoms: C_5  and  C_1 
REMARK       I    between atoms: C_2  and  N_3 
REMARK    2  A    between atoms: C_6  and  C_2 
REMARK    3  A    between atoms: N_3  and  C_15 
REMARK    4  A    between atoms: C_14  and  N_4 
REMARK    5  A    between atoms: O_9  and  C_17 
REMARK    6  A    between atoms: C_16  and  O_9 
ROOT
ATOM      1  O   UNL d   1       0.652  -6.183  -0.287  0.00  0.00    -0.311 OA
ENDROOT
BRANCH   1   2
ATOM      2  C   UNL d   1       1.315  -4.977  -0.367  0.00  0.00     0.076 C 
ATOM      3  C   UNL d   1       1.833  -4.436   0.811  0.00  0.00     0.039 C 
ATOM      4  C   UNL d   1       2.404  -3.153   0.807  0.00  0.00     0.032 C 
ATOM      5  C   UNL d   1       2.433  -2.397  -0.371  0.00  0.00     0.035 C 
ATOM      6  C   UNL d   1       2.033  -3.007  -1.563  0.00  0.00     0.032 C 
ATOM      7  C   UNL d   1       1.502  -4.297  -1.568  0.00  0.00     0.039 C 
BRANCH   5   8
ATOM      8  N   UNL d   1       2.828  -1.036  -0.300  0.00  0.00    -0.323 N 
ATOM      9  C   UNL d   1       2.521  -0.080  -1.259  0.00  0.00     0.256 C 
ATOM     10  O   UNL d   1       1.899  -0.295  -2.299  0.00  0.00    -0.267 OA
ATOM     11  H   UNL d   1       3.240  -0.734   0.571  0.00  0.00     0.169 HD
BRANCH   9  12
ATOM     12  C   UNL d   1       2.933   1.333  -1.015  0.00  0.00     0.032 A 
ATOM     13  C   UNL d   1       3.002   2.173  -2.137  0.00  0.00     0.017 A 
ATOM     14  C   UNL d   1       3.284   3.531  -2.005  0.00  0.00     0.007 A 
ATOM     15  C   UNL d   1       3.491   4.083  -0.739  0.00  0.00    -0.062 A 
ATOM     16  C   UNL d   1       3.454   3.245   0.384  0.00  0.00     0.007 A 
ATOM     17  C   UNL d   1       3.760   5.554  -0.609  0.00  0.00     0.048 C 
ATOM     18  C   UNL d   1       3.171   1.877   0.253  0.00  0.00     0.017 A 
ENDBRANCH   9  12
ENDBRANCH   5   8
ENDBRANCH   1   2
BRANCH   1  19
ATOM     19  C   UNL d   1      -0.517  -6.346  -1.010  0.00  0.00     0.076 A 
ATOM     20  C   UNL d   1      -0.866  -7.652  -1.354  0.00  0.00     0.039 A 
ATOM     21  C   UNL d   1      -2.021  -7.904  -2.114  0.00  0.00     0.032 A 
ATOM     22  C   UNL d   1      -2.840  -6.852  -2.546  0.00  0.00     0.035 A 
ATOM     23  C   UNL d   1      -2.502  -5.552  -2.162  0.00  0.00     0.032 A 
ATOM     24  C   UNL d   1      -1.371  -5.305  -1.377  0.00  0.00     0.039 A 
BRANCH  22  25
ATOM     25  N   UNL d   1      -3.967  -7.164  -3.344  0.00  0.00    -0.323 N 
ATOM     26  C   UNL d   1      -4.868  -6.261  -3.890  0.00  0.00     0.256 C 
ATOM     27  O   UNL d   1      -4.834  -5.040  -3.776  0.00  0.00    -0.267 OA
ATOM     28  H   UNL d   1      -4.145  -8.149  -3.487  0.00  0.00     0.169 HD
BRANCH  26  29
ATOM     29  C   UNL d   1      -6.006  -6.841  -4.662  0.00  0.00     0.032 A 
ATOM     30  C   UNL d   1      -7.216  -6.134  -4.663  0.00  0.00     0.017 A 
ATOM     31  C   UNL d   1      -8.321  -6.617  -5.365  0.00  0.00     0.007 A 
ATOM     32  C   UNL d   1      -8.229  -7.810  -6.090  0.00  0.00    -0.062 A 
ATOM     33  C   UNL d   1      -7.012  -8.506  -6.106  0.00  0.00     0.007 A 
ATOM     34  C   UNL d   1      -9.431  -8.328  -6.822  0.00  0.00     0.048 C 
ATOM     35  C   UNL d   1      -5.902  -8.024  -5.401  0.00  0.00     0.017 A 
ENDBRANCH  26  29
ENDBRANCH  22  25
ENDBRANCH   1  19
TORSDOF 6
