REMARK  6 active torsions:
REMARK  status: ('A' for Active; 'I' for Inactive)
REMARK    1  A    between atoms: N_2  and  S_1 
REMARK    2  A    between atoms: C_4  and  S_1 
REMARK    3  A    between atoms: C_3  and  N_2 
REMARK    4  A    between atoms: O_5  and  C_7 
REMARK    5  A    between atoms: C_6  and  O_5 
REMARK    6  A    between atoms: N_19  and  C_17 
ROOT
ATOM      1  C   UNL d   1       0.862   1.558  -2.123  0.00  0.00     0.076 A 
ATOM      2  C   UNL d   1       2.206   1.962  -2.046  0.00  0.00     0.103 A 
ATOM      3  C   UNL d   1      -0.055   2.337  -2.838  0.00  0.00     0.033 A 
ATOM      4  C   UNL d   1       2.579   3.200  -2.595  0.00  0.00     0.039 A 
ATOM      5  C   UNL d   1       0.348   3.523  -3.449  0.00  0.00     0.002 A 
ATOM      6  C   UNL d   1       1.661   3.962  -3.316  0.00  0.00     0.003 A 
ENDROOT
BRANCH   1   7
ATOM      7  N   UNL d   1       0.364   0.396  -1.459  0.00  0.00    -0.278 N 
ATOM      8  H   UNL d   1      -0.274  -0.200  -1.984  0.00  0.00     0.179 HD
BRANCH   7   9
ATOM      9  S   UNL d   1      -0.148   0.533   0.153  0.00  0.00     0.263 S 
ATOM     10  O   UNL d   1       0.947   1.014   0.966  0.00  0.00    -0.200 OA
ATOM     11  O   UNL d   1      -0.826  -0.707   0.458  0.00  0.00    -0.200 OA
BRANCH   9  12
ATOM     12  C   UNL d   1      -1.394   1.815   0.121  0.00  0.00     0.080 A 
ATOM     13  C   UNL d   1      -2.743   1.482  -0.039  0.00  0.00     0.027 A 
ATOM     14  C   UNL d   1      -3.714   2.492  -0.005  0.00  0.00     0.025 A 
ATOM     15  C   UNL d   1      -3.351   3.834   0.153  0.00  0.00     0.005 A 
ATOM     16  C   UNL d   1      -2.006   4.139   0.382  0.00  0.00     0.025 A 
ATOM     17  C   UNL d   1      -1.027   3.141   0.359  0.00  0.00     0.027 A 
BRANCH  15  18
ATOM     18  N   UNL d   1      -4.332   4.815   0.328  0.00  0.00    -0.303 NA
ATOM     19  H   UNL d   1      -4.016   5.762   0.145  0.00  0.00     0.124 HD
ATOM     20  H   UNL d   1      -5.224   4.611  -0.111  0.00  0.00     0.124 HD
ENDBRANCH  15  18
ENDBRANCH   9  12
ENDBRANCH   7   9
ENDBRANCH   1   7
BRANCH   2  21
ATOM     21  O   UNL d   1       3.145   1.119  -1.472  0.00  0.00    -0.307 OA
BRANCH  21  22
ATOM     22  C   UNL d   1       4.404   1.063  -2.054  0.00  0.00     0.098 A 
ATOM     23  C   UNL d   1       5.539   1.012  -1.233  0.00  0.00     0.069 A 
ATOM     24  C   UNL d   1       6.824   1.024  -1.796  0.00  0.00     0.050 A 
ATOM     25 CL   UNL d   1       5.410   0.966   0.486  0.00  0.00    -0.081 Cl
ATOM     26  C   UNL d   1       6.968   1.085  -3.182  0.00  0.00     0.035 A 
ATOM     27  C   UNL d   1       5.850   1.094  -4.009  0.00  0.00     0.026 A 
ATOM     28 CL   UNL d   1       8.540   1.153  -3.879  0.00  0.00    -0.084 Cl
ATOM     29  C   UNL d   1       4.571   1.050  -3.449  0.00  0.00     0.041 A 
ENDBRANCH  21  22
ENDBRANCH   2  21
TORSDOF 6
