REMARK  4 active torsions:
REMARK  status: ('A' for Active; 'I' for Inactive)
REMARK    1  A    between atoms: C_3  and  N_1 
REMARK    2  A    between atoms: N_5  and  C_3 
REMARK    3  A    between atoms: N_9  and  C_4 
REMARK    4  A    between atoms: C_7  and  N_5 
ROOT
ATOM      1  N   UNL d   1       0.954   0.408  -2.394  0.00  0.00    -0.333 N 
ATOM      2  H   UNL d   1       1.831   0.858  -2.162  0.00  0.00     0.168 HD
ENDROOT
BRANCH   1   3
ATOM      3  C   UNL d   1       0.323  -0.092  -1.277  0.00  0.00     0.177 C 
ATOM      4  S   UNL d   1      -1.315  -0.418  -1.101  0.00  0.00    -0.040 SA
BRANCH   3   5
ATOM      5  N   UNL d   1       1.186  -0.197  -0.215  0.00  0.00    -0.329 N 
ATOM      6  C   UNL d   1       2.061  -1.144  -0.305  0.00  0.00     0.179 C 
ATOM      7  HN  UNL d   1       1.141   0.429   0.589  1.00  0.00     0.169 HD
BRANCH   6   8
ATOM      8  N   UNL d   1       2.997  -1.480   0.645  0.00  0.00    -0.386 N 
ATOM      9  C   UNL d   1       2.704  -1.247   2.055  0.00  0.00     0.149 C 
ATOM     10  C   UNL d   1       3.963  -2.536   0.382  0.00  0.00     0.149 C 
ENDBRANCH   6   8
ENDBRANCH   3   5
ENDBRANCH   1   3
BRANCH   1  11
ATOM     11  C   UNL d   1       0.618   0.367  -3.766  0.00  0.00     0.035 A 
ATOM     12  C   UNL d   1      -0.336  -0.492  -4.315  0.00  0.00     0.053 A 
ATOM     13  C   UNL d   1      -0.563  -0.505  -5.692  0.00  0.00     0.036 A 
ATOM     14 CL   UNL d   1      -1.731  -1.585  -6.353  0.00  0.00    -0.084 Cl
ATOM     15  C   UNL d   1       0.162   0.326  -6.541  0.00  0.00     0.024 A 
ATOM     16  C   UNL d   1       1.129   1.173  -6.007  0.00  0.00     0.004 A 
ATOM     17  C   UNL d   1       1.362   1.186  -4.628  0.00  0.00     0.029 A 
ENDBRANCH   1  11
TORSDOF 4
