REMARK  4 active torsions:
REMARK  status: ('A' for Active; 'I' for Inactive)
REMARK    1  A    between atoms: C_8  and  C_2 
REMARK    2  A    between atoms: C_7  and  C_3 
REMARK    3  A    between atoms: O_14  and  C_7 
REMARK    4  A    between atoms: O_17  and  C_13 
ROOT
ATOM      1  C   UNL d   1      -1.231   0.142   0.029  0.00  0.00     0.132 C 
ATOM      2  C   UNL d   1       0.536  -0.573   1.169  0.00  0.00     0.090 C 
ATOM      3  C   UNL d   1      -2.483   0.164  -0.434  0.00  0.00     0.123 C 
ATOM      4  O   UNL d   1      -0.636  -1.004   0.536  0.00  0.00    -0.306 OA
ATOM      5  C   UNL d   1       0.816   0.727   1.019  0.00  0.00     0.095 C 
ATOM      6  C   UNL d   1      -0.276   1.267   0.198  0.00  0.00     0.208 C 
ATOM      7  O   UNL d   1      -0.285   2.369  -0.299  0.00  0.00    -0.285 OA
ENDROOT
BRANCH   2   8
ATOM      8  C   UNL d   1       1.297  -1.544   1.962  0.00  0.00    -0.002 A 
ATOM      9  C   UNL d   1       2.028  -1.132   3.088  0.00  0.00     0.017 A 
ATOM     10  C   UNL d   1       2.721  -2.054   3.882  0.00  0.00     0.037 A 
ATOM     11  C   UNL d   1       2.700  -3.409   3.562  0.00  0.00     0.068 A 
ATOM     12  C   UNL d   1       1.983  -3.828   2.439  0.00  0.00     0.037 A 
ATOM     13  C   UNL d   1       1.283  -2.908   1.648  0.00  0.00     0.017 A 
BRANCH  11  14
ATOM     14  O   UNL d   1       3.329  -4.406   4.253  0.00  0.00    -0.356 OA
ATOM     15  C   UNL d   1       3.996  -4.033   5.454  0.00  0.00     0.210 C 
ENDBRANCH  11  14
ENDBRANCH   2   8
BRANCH   3  16
ATOM     16  C   UNL d   1      -3.224   1.417  -0.658  0.00  0.00     0.285 C 
ATOM     17  O   UNL d   1      -3.028   2.466  -0.074  0.00  0.00    -0.260 OA
BRANCH  16  18
ATOM     18  O   UNL d   1      -4.245   1.163  -1.518  0.00  0.00    -0.323 OA
ATOM     19  C   UNL d   1      -5.113   2.284  -1.705  0.00  0.00     0.213 C 
ENDBRANCH  16  18
ENDBRANCH   3  16
TORSDOF 4
