REMARK  2 active torsions:
REMARK  status: ('A' for Active; 'I' for Inactive)
REMARK    1  A    between atoms: C_11  and  C_6 
REMARK    2  A    between atoms: S_17  and  C_7 
ROOT
ATOM      1  N   UNL d   1      -2.190  -1.868  -0.399  0.00  0.00    -0.236 N 
ATOM      2  C   UNL d   1      -1.052  -1.152  -0.631  0.00  0.00     0.144 A 
ATOM      3  N   UNL d   1       0.073  -1.812  -0.589  0.00  0.00    -0.351 N 
ATOM      4  HN  UNL d   1       0.989  -1.572  -0.968  1.00  0.00     0.163 HD
ATOM      5  N   UNL d   1      -1.837  -3.153   0.070  0.00  0.00    -0.202 NA
ATOM      6  C   UNL d   1      -0.365  -3.018   0.177  0.00  0.00     0.214 C 
ATOM      7  C   UNL d   1      -3.414  -1.258  -0.181  0.00  0.00     0.162 A 
ATOM      8  C   UNL d   1      -1.168   0.306  -0.807  0.00  0.00     0.105 A 
ATOM      9  N   UNL d   1      -3.554   0.038  -0.283  0.00  0.00    -0.344 N 
ATOM     10  HN  UNL d   1      -4.461   0.487  -0.155  1.00  0.00     0.167 HD
ATOM     11  C   UNL d   1      -2.411   0.778  -0.575  0.00  0.00     0.116 A 
ATOM     12  C   UNL d   1      -0.030   1.132  -0.968  0.00  0.00     0.104 C 
ATOM     13  N   UNL d   1       0.880   1.843  -1.073  0.00  0.00    -0.191 NA
ATOM     14  H   UNL d   1      -2.034  -3.820  -0.680  0.00  0.00     0.150 HD
ENDROOT
BRANCH   7  15
ATOM     15  S   UNL d   1      -4.826  -2.241   0.179  0.00  0.00    -0.097 SA
ATOM     16  C   UNL d   1      -5.716  -1.109   1.267  0.00  0.00     0.099 C 
ENDBRANCH   7  15
BRANCH   6  17
ATOM     17  C   UNL d   1       0.150  -2.806   1.598  0.00  0.00     0.040 A 
ATOM     18  C   UNL d   1      -0.592  -2.081   2.549  0.00  0.00     0.127 A 
ATOM     19  F   UNL d   1      -1.868  -1.740   2.329  0.00  0.00    -0.205 F 
ATOM     20  C   UNL d   1      -0.026  -1.604   3.732  0.00  0.00     0.043 A 
ATOM     21  C   UNL d   1       1.312  -1.848   4.004  0.00  0.00     0.005 A 
ATOM     22  C   UNL d   1       2.067  -2.594   3.104  0.00  0.00     0.024 A 
ATOM     23  C   UNL d   1       1.495  -3.073   1.915  0.00  0.00     0.046 A 
ATOM     24 CL   UNL d   1       2.539  -3.943   0.845  0.00  0.00    -0.084 Cl
ENDBRANCH   6  17
TORSDOF 2
