REMARK  6 active torsions:
REMARK  status: ('A' for Active; 'I' for Inactive)
REMARK    1  A    between atoms: C_13  and  N_3 
REMARK    2  A    between atoms: C_8  and  C_4 
REMARK       I    between atoms: N_10  and  C_8 
REMARK    3  A    between atoms: C_9  and  N_11 
REMARK    4  A    between atoms: N_12  and  C_9 
REMARK    5  A    between atoms: N_11  and  N_10 
REMARK    6  A    between atoms: C_17  and  N_12 
ROOT
ATOM      1  C   UNL d   1      -2.297   0.203  -0.705  0.00  0.00     0.290 C 
ATOM      2  N   UNL d   1      -3.335   1.118  -0.691  0.00  0.00    -0.262 N 
ATOM      3  O   UNL d   1      -1.308   0.306   0.011  0.00  0.00    -0.264 OA
ATOM      4  H   UNL d   1      -4.178   0.922  -1.225  0.00  0.00     0.190 HD
ENDROOT
BRANCH   1   5
ATOM      5  C   UNL d   1      -2.509  -0.906  -1.642  0.00  0.00     0.143 A 
ATOM      6  N   UNL d   1      -3.719  -1.210  -2.166  0.00  0.00    -0.272 N 
ATOM      7  N   UNL d   1      -3.433  -2.290  -2.950  0.00  0.00    -0.196 N 
ATOM      8  HN  UNL d   1      -4.616  -0.749  -2.014  1.00  0.00     0.189 HD
ATOM      9  N   UNL d   1      -2.153  -2.729  -2.906  0.00  0.00    -0.281 N 
ATOM     10  C   UNL d   1      -1.548  -1.805  -2.155  0.00  0.00     0.057 A 
ATOM     11  HN  UNL d   1      -1.750  -3.560  -3.340  1.00  0.00     0.189 HD
ATOM     12  C   UNL d   1      -0.074  -1.821  -2.047  0.00  0.00     0.072 C 
BRANCH   7  13
ATOM     13  C   UNL d   1      -4.355  -2.864  -3.866  0.00  0.00     0.074 A 
ATOM     14  C   UNL d   1      -5.616  -2.294  -4.075  0.00  0.00     0.033 A 
ATOM     15  C   UNL d   1      -6.446  -2.807  -5.078  0.00  0.00     0.002 A 
ATOM     16  C   UNL d   1      -6.031  -3.891  -5.854  0.00  0.00     0.000 A 
ATOM     17  C   UNL d   1      -4.793  -4.485  -5.622  0.00  0.00     0.002 A 
ATOM     18  C   UNL d   1      -3.957  -3.976  -4.629  0.00  0.00     0.033 A 
ENDBRANCH   7  13
ENDBRANCH   1   5
BRANCH   2  19
ATOM     19  N   UNL d   1      -3.416   2.058   0.345  0.00  0.00    -0.273 N 
ATOM     20  H   UNL d   1      -2.701   1.994   1.071  0.00  0.00     0.189 HD
BRANCH  19  21
ATOM     21  C   UNL d   1      -4.063   3.264   0.188  0.00  0.00     0.191 C 
ATOM     22  S   UNL d   1      -4.619   3.881  -1.263  0.00  0.00    -0.039 SA
BRANCH  21  23
ATOM     23  N   UNL d   1      -4.238   3.996   1.337  0.00  0.00    -0.332 N 
ATOM     24  H   UNL d   1      -4.429   4.981   1.187  0.00  0.00     0.168 HD
BRANCH  23  25
ATOM     25  C   UNL d   1      -4.636   3.504   2.604  0.00  0.00     0.034 A 
ATOM     26  C   UNL d   1      -5.114   2.203   2.794  0.00  0.00     0.036 A 
ATOM     27  C   UNL d   1      -5.630   1.784   4.031  0.00  0.00    -0.054 A 
ATOM     28  C   UNL d   1      -6.230   0.408   4.141  0.00  0.00     0.049 C 
ATOM     29  C   UNL d   1      -5.621   2.674   5.120  0.00  0.00    -0.056 A 
ATOM     30  C   UNL d   1      -5.137   3.977   4.929  0.00  0.00     0.009 A 
ATOM     31  C   UNL d   1      -6.143   2.261   6.472  0.00  0.00     0.049 C 
ATOM     32  C   UNL d   1      -4.669   4.394   3.678  0.00  0.00     0.030 A 
ENDBRANCH  23  25
ENDBRANCH  21  23
ENDBRANCH  19  21
ENDBRANCH   2  19
TORSDOF 6
