REMARK  2 active torsions:
REMARK  status: ('A' for Active; 'I' for Inactive)
REMARK    1  A    between atoms: C_7  and  C_1 
REMARK    2  A    between atoms: N_3  and  C_2 
REMARK       I    between atoms: C_4  and  N_3 
REMARK       I    between atoms: N_10  and  C_4 
ROOT
ATOM      1  C   UNL d   1      -0.219  -0.548   1.242  0.00  0.00     0.098 A 
ATOM      2  C   UNL d   1       0.163  -1.218   0.031  0.00  0.00     0.099 A 
ATOM      3  N   UNL d   1      -0.144   0.785   1.068  0.00  0.00    -0.258 N 
ATOM      4  HN  UNL d   1      -0.317   1.501   1.773  1.00  0.00     0.195 HD
ATOM      5  C   UNL d   1       0.397  -0.194  -0.863  0.00  0.00     0.102 A 
ATOM      6  O   UNL d   1       0.213   0.996  -0.243  0.00  0.00    -0.240 OA
ATOM      7  C   UNL d   1       0.682  -0.140  -2.310  0.00  0.00     0.081 C 
ENDROOT
BRANCH   2   8
ATOM      8  N   UNL d   1       0.333  -2.564  -0.292  0.00  0.00    -0.300 N 
ATOM      9  C   UNL d   1      -0.609  -3.583  -0.214  0.00  0.00     0.324 C 
ATOM     10  N   UNL d   1      -1.948  -3.350  -0.537  0.00  0.00    -0.334 N 
ATOM     11  O   UNL d   1      -0.215  -4.748  -0.057  0.00  0.00    -0.247 OA
ATOM     12  C   UNL d   1      -2.767  -4.561  -0.684  0.00  0.00     0.127 C 
ATOM     13  C   UNL d   1      -2.713  -2.128  -0.292  0.00  0.00     0.127 C 
ATOM     14  C   UNL d   1      -3.938  -4.381  -1.646  0.00  0.00     0.020 C 
ATOM     15  C   UNL d   1      -4.790  -3.188  -1.248  0.00  0.00     0.003 C 
ATOM     16  C   UNL d   1      -3.919  -1.945  -1.208  0.00  0.00     0.020 C 
ATOM     17  C   UNL d   1       1.704  -3.017  -0.554  0.00  0.00     0.161 C 
ENDBRANCH   2   8
BRANCH   1  18
ATOM     18  C   UNL d   1      -0.628  -1.077   2.546  0.00  0.00     0.038 A 
ATOM     19  C   UNL d   1       0.222  -1.890   3.315  0.00  0.00     0.048 A 
ATOM     20 CL   UNL d   1       1.851  -2.252   2.852  0.00  0.00    -0.083 Cl
ATOM     21  C   UNL d   1      -0.189  -2.386   4.562  0.00  0.00     0.025 A 
ATOM     22  C   UNL d   1      -1.440  -2.057   5.077  0.00  0.00     0.003 A 
ATOM     23  C   UNL d   1      -2.279  -1.222   4.354  0.00  0.00     0.025 A 
ATOM     24  C   UNL d   1      -1.881  -0.732   3.100  0.00  0.00     0.048 A 
ATOM     25 CL   UNL d   1      -3.026   0.302   2.302  0.00  0.00    -0.083 Cl
ENDBRANCH   1  18
TORSDOF 2
