REMARK  2 active torsions:
REMARK  status: ('A' for Active; 'I' for Inactive)
REMARK    1  A    between atoms: C_7  and  C_4 
REMARK    2  A    between atoms: C_8  and  C_7 
ROOT
ATOM      1  C   UNL d   1      -1.355  -1.238  -0.017  0.00  0.00     0.048 A 
ATOM      2  C   UNL d   1      -0.456  -0.028  -0.007  0.00  0.00     0.257 A 
ATOM      3  N   UNL d   1      -1.332   1.058  -0.030  0.00  0.00    -0.322 N 
ATOM      4  C   UNL d   1      -1.099  -2.550   0.000  0.00  0.00     0.069 C 
ATOM      5  C   UNL d   1      -2.740  -0.742  -0.025  0.00  0.00     0.008 A 
ATOM      6  C   UNL d   1      -2.664   0.650  -0.032  0.00  0.00     0.046 A 
ATOM      7  C   UNL d   1      -3.969  -1.386  -0.020  0.00  0.00     0.033 A 
ATOM      8  O   UNL d   1       0.752   0.031   0.046  0.00  0.00    -0.267 OA
ATOM      9  C   UNL d   1      -3.794   1.444  -0.032  0.00  0.00     0.032 A 
ATOM     10  C   UNL d   1      -5.119  -0.598  -0.020  0.00  0.00     0.011 A 
ATOM     11  C   UNL d   1      -5.038   0.804  -0.026  0.00  0.00     0.021 A 
ATOM     12 BR   UNL d   1      -6.810  -1.445  -0.007  0.00  0.00    -0.051 Br
ATOM     13  H   UNL d   1      -1.003   2.013  -0.019  0.00  0.00     0.169 HD
ENDROOT
BRANCH   4  14
ATOM     14  C   UNL d   1       0.189  -3.309   0.011  0.00  0.00     0.158 C 
ATOM     15  O   UNL d   1       1.232  -2.798  -0.370  0.00  0.00    -0.292 OA
BRANCH  14  16
ATOM     16  C   UNL d   1       0.097  -4.790   0.478  0.00  0.00     0.013 C 
ATOM     17  C   UNL d   1      -0.803  -5.603  -0.472  0.00  0.00     0.023 C 
ATOM     18  C   UNL d   1       1.490  -5.443   0.478  0.00  0.00     0.023 C 
ATOM     19  C   UNL d   1      -0.461  -4.844   1.911  0.00  0.00     0.023 C 
ENDBRANCH  14  16
ENDBRANCH   4  14
TORSDOF 2
