REMARK  9 active torsions:
REMARK  status: ('A' for Active; 'I' for Inactive)
REMARK    1  A    between atoms: N_2  and  S_1 
REMARK    2  A    between atoms: C_8  and  S_1 
REMARK    3  A    between atoms: C_3  and  N_2 
REMARK       I    between atoms: C_9  and  N_13 
REMARK    4  A    between atoms: C_17  and  C_9 
REMARK    5  A    between atoms: N_13  and  C_22 
REMARK    6  A    between atoms: C_14  and  C_19 
REMARK    7  A    between atoms: O_23  and  C_14 
REMARK    8  A    between atoms: C_15  and  C_17 
REMARK    9  A    between atoms: C_19  and  C_15 
ROOT
ATOM      1  C   UNL d   1       0.556   1.475  -0.581  0.00  0.00     0.075 A 
ATOM      2  C   UNL d   1      -0.638   1.520  -1.308  0.00  0.00     0.027 A 
ATOM      3  C   UNL d   1       1.258   2.644  -0.305  0.00  0.00     0.027 A 
ATOM      4  C   UNL d   1      -0.357   3.910  -1.611  0.00  0.00     0.034 A 
ATOM      5  C   UNL d   1      -1.097   2.739  -1.813  0.00  0.00     0.031 A 
ATOM      6  C   UNL d   1       0.799   3.854  -0.824  0.00  0.00     0.031 A 
ENDROOT
BRANCH   4   7
ATOM      7  N   UNL d   1      -0.806   5.101  -2.222  0.00  0.00    -0.327 N 
ATOM      8  C   UNL d   1      -0.026   6.228  -2.428  0.00  0.00     0.222 C 
ATOM      9  O   UNL d   1       1.164   6.348  -2.140  0.00  0.00    -0.273 OA
ATOM     10  H   UNL d   1      -1.734   5.082  -2.647  0.00  0.00     0.169 HD
BRANCH   8  11
ATOM     11  C   UNL d   1      -0.732   7.366  -3.141  0.00  0.00     0.112 C 
BRANCH  11  12
ATOM     12  C   UNL d   1      -0.582   7.355  -4.688  0.00  0.00    -0.030 C 
ATOM     13  C   UNL d   1      -1.190   8.667  -5.227  0.00  0.00     0.016 C 
ATOM     14  C   UNL d   1       0.907   7.340  -5.098  0.00  0.00     0.016 C 
BRANCH  12  15
ATOM     15  C   UNL d   1      -1.258   6.137  -5.351  0.00  0.00     0.119 C 
BRANCH  15  16
ATOM     16  C   UNL d   1      -2.720   5.996  -5.013  0.00  0.00     0.140 C 
ATOM     17  O   UNL d   1      -3.108   5.437  -3.995  0.00  0.00    -0.650 OA
BRANCH  16  18
ATOM     18  O   UNL d   1      -3.551   6.578  -5.900  0.00  0.00    -0.776 OA
ATOM     19  H   UNL d   1      -3.102   7.013  -6.651  0.00  0.00     0.167 HD
ENDBRANCH  16  18
ENDBRANCH  15  16
ENDBRANCH  12  15
ENDBRANCH  11  12
ENDBRANCH   8  11
ENDBRANCH   4   7
BRANCH   1  20
ATOM     20  S   UNL d   1       1.166  -0.070   0.045  0.00  0.00     0.247 S 
ATOM     21  O   UNL d   1       1.968   0.212   1.217  0.00  0.00    -0.205 OA
ATOM     22  O   UNL d   1       0.046  -0.987   0.090  0.00  0.00    -0.205 OA
BRANCH  20  23
ATOM     23  N   UNL d   1       2.253  -0.512  -1.181  0.00  0.00    -0.165 NA
ATOM     24  H   UNL d   1       3.170  -0.544  -0.733  0.00  0.00     0.147 HD
BRANCH  23  25
ATOM     25  C   UNL d   1       1.986  -1.706  -1.843  0.00  0.00     0.117 A 
ATOM     26  N   UNL d   1       2.643  -2.827  -1.546  0.00  0.00    -0.249 N 
ATOM     27  O   UNL d   1       2.093  -3.800  -2.367  0.00  0.00    -0.241 OA
ATOM     28  HN  UNL d   1       3.392  -2.944  -0.863  1.00  0.00     0.196 HD
ATOM     29  C   UNL d   1       1.172  -3.228  -3.189  0.00  0.00     0.075 A 
ATOM     30  C   UNL d   1       1.090  -1.886  -2.911  0.00  0.00     0.079 A 
ATOM     31  C   UNL d   1       0.500  -4.125  -4.145  0.00  0.00     0.079 C 
ENDBRANCH  23  25
ENDBRANCH  20  23
ENDBRANCH   1  20
TORSDOF 9
