REMARK  0 active torsions:
REMARK  status: ('A' for Active; 'I' for Inactive)
ROOT
ATOM      1  N   UNL d   1      -2.359   0.580  -0.641  0.00  0.00    -0.288 N 
ATOM      2  C   UNL d   1      -1.229   1.363  -0.418  0.00  0.00     0.260 C 
ATOM      3  C   UNL d   1      -2.471  -0.763  -0.308  0.00  0.00     0.230 C 
ATOM      4  C   UNL d   1       0.043   0.654  -0.146  0.00  0.00     0.039 A 
ATOM      5  C   UNL d   1       0.068  -0.736  -0.050  0.00  0.00    -0.034 A 
ATOM      6  C   UNL d   1      -1.193  -1.541  -0.094  0.00  0.00     0.142 C 
ATOM      7  O   UNL d   1      -1.235   2.592  -0.439  0.00  0.00    -0.267 OA
ATOM      8  O   UNL d   1      -3.557  -1.333  -0.196  0.00  0.00    -0.273 OA
ATOM      9  C   UNL d   1      -3.584   1.253  -1.033  0.00  0.00     0.162 C 
ATOM     10  C   UNL d   1       1.232   1.390  -0.042  0.00  0.00     0.017 A 
ATOM     11  C   UNL d   1       1.301  -1.389   0.107  0.00  0.00     0.009 A 
ATOM     12  C   UNL d   1       2.451   0.733   0.122  0.00  0.00     0.001 A 
ATOM     13  C   UNL d   1       2.486  -0.657   0.183  0.00  0.00     0.001 A 
ENDROOT
TORSDOF 0
