REMARK  2 active torsions:
REMARK  status: ('A' for Active; 'I' for Inactive)
REMARK    1  A    between atoms: C_9  and  C_1 
REMARK    2  A    between atoms: C_6  and  C_7 
ROOT
ATOM      1  C   UNL d   1       1.324   0.956   1.039  0.00  0.00     0.164 A 
ATOM      2  N   UNL d   1       1.631  -0.178   0.503  0.00  0.00    -0.331 N 
ATOM      3  HN  UNL d   1       2.535  -0.484   0.141  1.00  0.00     0.168 HD
ATOM      4  C   UNL d   1       0.451  -0.870   0.538  0.00  0.00     0.111 A 
ATOM      5  O   UNL d   1       0.052   1.118   1.470  0.00  0.00    -0.255 OA
ATOM      6  C   UNL d   1       0.308  -2.092   0.010  0.00  0.00     0.049 C 
ATOM      7  C   UNL d   1      -0.601  -0.045   1.205  0.00  0.00     0.316 A 
ATOM      8  O   UNL d   1      -1.757  -0.300   1.479  0.00  0.00    -0.257 OA
ENDROOT
BRANCH   6   9
ATOM      9  C   UNL d   1      -0.949  -2.863  -0.002  0.00  0.00    -0.012 A 
ATOM     10  C   UNL d   1      -1.851  -2.708  -1.098  0.00  0.00    -0.015 A 
ATOM     11  C   UNL d   1      -3.100  -3.363  -1.038  0.00  0.00    -0.024 A 
ATOM     12  C   UNL d   1      -1.578  -1.928  -2.251  0.00  0.00     0.013 A 
ATOM     13  C   UNL d   1      -4.039  -3.185  -2.069  0.00  0.00     0.012 A 
ATOM     14  C   UNL d   1      -3.404  -4.182   0.059  0.00  0.00     0.024 A 
ATOM     15  C   UNL d   1      -3.758  -2.377  -3.170  0.00  0.00     0.001 A 
ATOM     16  C   UNL d   1      -2.521  -1.758  -3.268  0.00  0.00     0.001 A 
ATOM     17  C   UNL d   1      -2.504  -4.373   1.117  0.00  0.00    -0.024 A 
ATOM     18  C   UNL d   1      -1.258  -3.709   1.105  0.00  0.00    -0.015 A 
ATOM     19  C   UNL d   1      -2.844  -5.215   2.190  0.00  0.00     0.012 A 
ATOM     20  C   UNL d   1      -0.389  -3.932   2.204  0.00  0.00     0.013 A 
ATOM     21  C   UNL d   1      -0.738  -4.774   3.262  0.00  0.00     0.001 A 
ATOM     22  C   UNL d   1      -1.967  -5.416   3.255  0.00  0.00     0.001 A 
ENDBRANCH   6   9
BRANCH   1  23
ATOM     23  C   UNL d   1       2.189   2.127   1.246  0.00  0.00     0.032 A 
ATOM     24  C   UNL d   1       3.265   2.453   0.405  0.00  0.00     0.021 A 
ATOM     25  I   UNL d   1       3.788   1.411  -1.348  0.00  0.00    -0.044 I 
ATOM     26  C   UNL d   1       4.046   3.583   0.685  0.00  0.00     0.019 A 
ATOM     27  C   UNL d   1       3.760   4.389   1.787  0.00  0.00     0.001 A 
ATOM     28  C   UNL d   1       2.695   4.073   2.624  0.00  0.00     0.001 A 
ATOM     29  C   UNL d   1       1.914   2.948   2.357  0.00  0.00     0.017 A 
ENDBRANCH   1  23
TORSDOF 2
