REMARK  2 active torsions:
REMARK  status: ('A' for Active; 'I' for Inactive)
REMARK    1  A    between atoms: C_11  and  C_5 
REMARK    2  A    between atoms: O_20  and  C_12 
ROOT
ATOM      1  C   UNL d   1      -2.069   0.336   0.045  0.00  0.00    -0.006 C 
ATOM      2  C   UNL d   1      -1.095  -0.803  -0.001  0.00  0.00     0.189 C 
ATOM      3  C   UNL d   1       0.349  -0.428   0.006  0.00  0.00     0.021 A 
ATOM      4  C   UNL d   1       0.744   0.919  -0.033  0.00  0.00    -0.041 A 
ATOM      5  C   UNL d   1      -3.279   0.142  -0.507  0.00  0.00     0.022 C 
ATOM      6  C   UNL d   1       1.319  -1.436   0.020  0.00  0.00     0.019 A 
ATOM      7  C   UNL d   1      -1.549   1.597   0.667  0.00  0.00     0.047 C 
ATOM      8  O   UNL d   1      -1.453  -1.974  -0.062  0.00  0.00    -0.287 OA
ATOM      9  C   UNL d   1       2.110   1.231  -0.102  0.00  0.00     0.044 A 
ATOM     10  C   UNL d   1      -0.276   2.029  -0.050  0.00  0.00     0.044 C 
ATOM     11  C   UNL d   1       3.079   0.225  -0.094  0.00  0.00     0.068 A 
ATOM     12  C   UNL d   1       2.680  -1.110  -0.024  0.00  0.00     0.038 A 
ENDROOT
BRANCH   5  13
ATOM     13  C   UNL d   1      -4.305   1.179  -0.628  0.00  0.00    -0.035 A 
ATOM     14  C   UNL d   1      -4.329   2.010  -1.758  0.00  0.00     0.014 A 
ATOM     15  C   UNL d   1      -5.329   2.974  -1.899  0.00  0.00     0.043 A 
ATOM     16  C   UNL d   1      -6.297   3.104  -0.910  0.00  0.00     0.116 A 
ATOM     17  C   UNL d   1      -6.274   2.302   0.226  0.00  0.00     0.043 A 
ATOM     18  F   UNL d   1      -7.269   4.014  -1.055  0.00  0.00    -0.206 F 
ATOM     19  C   UNL d   1      -5.273   1.338   0.370  0.00  0.00     0.014 A 
ENDBRANCH   5  13
BRANCH  11  20
ATOM     20  O   UNL d   1       4.367   0.681  -0.160  0.00  0.00    -0.356 OA
ATOM     21  C   UNL d   1       5.398  -0.297  -0.157  0.00  0.00     0.210 C 
ENDBRANCH  11  20
TORSDOF 2
