REMARK  1 active torsions:
REMARK  status: ('A' for Active; 'I' for Inactive)
REMARK    1  A    between atoms: C_4  and  N_1 
ROOT
ATOM      1  N   UNL d   1       0.690   1.137  -0.409  0.00  0.00    -0.252 N 
ATOM      2  C   UNL d   1       1.405  -0.006  -0.054  0.00  0.00     0.231 C 
ATOM      3  C   UNL d   1      -0.615   1.243   0.073  0.00  0.00     0.231 C 
ATOM      4  C   UNL d   1       0.637  -1.306  -0.209  0.00  0.00     0.108 C 
ATOM      5  C   UNL d   1      -1.458   0.009  -0.154  0.00  0.00     0.108 C 
ATOM      6  O   UNL d   1       2.567  -0.043   0.349  0.00  0.00    -0.273 OA
ATOM      7  O   UNL d   1      -1.106   2.213   0.646  0.00  0.00    -0.273 OA
ATOM      8  C   UNL d   1      -0.768  -1.239   0.366  0.00  0.00    -0.001 C 
ATOM      9  C   UNL d   1      -0.766  -1.290   1.894  0.00  0.00     0.011 C 
ENDROOT
BRANCH   1  10
ATOM     10  C   UNL d   1       1.364   2.303  -0.943  0.00  0.00     0.045 A 
ATOM     11  C   UNL d   1       2.705   2.258  -1.361  0.00  0.00     0.031 A 
ATOM     12  C   UNL d   1       3.320   3.351  -1.990  0.00  0.00     0.009 A 
ATOM     13  C   UNL d   1       2.607   4.525  -2.232  0.00  0.00    -0.062 A 
ATOM     14  C   UNL d   1       1.273   4.586  -1.839  0.00  0.00     0.009 A 
ATOM     15  C   UNL d   1       3.257   5.679  -2.932  0.00  0.00     0.048 C 
ATOM     16  C   UNL d   1       0.663   3.492  -1.214  0.00  0.00     0.031 A 
ENDBRANCH   1  10
TORSDOF 1
