REMARK  4 active torsions:
REMARK  status: ('A' for Active; 'I' for Inactive)
REMARK    1  A    between atoms: C_2  and  N_1 
REMARK    2  A    between atoms: C_3  and  C_12 
REMARK    3  A    between atoms: S_10  and  C_9 
REMARK    4  A    between atoms: C_12  and  S_10 
ROOT
ATOM      1  S   UNL d   1       2.189   1.001   2.634  0.00  0.00    -0.123 SA
ENDROOT
BRANCH   1   2
ATOM      2  C   UNL d   1       1.139  -0.433   2.476  0.00  0.00     0.033 A 
ATOM      3  C   UNL d   1       0.149  -0.645   1.509  0.00  0.00     0.119 A 
ATOM      4  C   UNL d   1      -0.675  -1.784   1.515  0.00  0.00     0.037 A 
ATOM      5  C   UNL d   1      -0.520  -2.729   2.525  0.00  0.00     0.003 A 
ATOM      6  C   UNL d   1       0.446  -2.537   3.510  0.00  0.00     0.002 A 
ATOM      7  C   UNL d   1       1.266  -1.401   3.486  0.00  0.00     0.021 A 
BRANCH   3   8
ATOM      8  N   UNL d   1      -0.093   0.324   0.467  0.00  0.00    -0.114 N 
ATOM      9  O   UNL d   1      -0.682   1.366   0.778  0.00  0.00    -0.532 OA
ATOM     10  O   UNL d   1       0.301   0.030  -0.668  0.00  0.00    -0.532 OA
ENDBRANCH   3   8
ENDBRANCH   1   2
BRANCH   1  11
ATOM     11  C   UNL d   1       3.089   1.056   1.048  0.00  0.00     0.119 C 
BRANCH  11  12
ATOM     12  C   UNL d   1       4.597   1.001   1.143  0.00  0.00    -0.030 C 
ATOM     13  C   UNL d   1       5.344   0.485   0.095  0.00  0.00     0.059 C 
ATOM     14  S   UNL d   1       7.007   0.397   0.419  0.00  0.00    -0.101 SA
ATOM     15  C   UNL d   1       6.810   1.103   1.971  0.00  0.00     0.015 A 
ATOM     16  C   UNL d   1       5.477   1.462   2.213  0.00  0.00    -0.011 A 
ATOM     17  C   UNL d   1       7.832   1.325   2.918  0.00  0.00     0.019 A 
ATOM     18  C   UNL d   1       5.221   2.156   3.427  0.00  0.00     0.013 A 
ATOM     19  C   UNL d   1       6.230   2.381   4.370  0.00  0.00     0.001 A 
ATOM     20  C   UNL d   1       7.521   1.950   4.125  0.00  0.00     0.001 A 
ENDBRANCH  11  12
ENDBRANCH   1  11
TORSDOF 4
