REMARK  4 active torsions:
REMARK  status: ('A' for Active; 'I' for Inactive)
REMARK    1  A    between atoms: C_7  and  N_1 
REMARK    2  A    between atoms: C_10  and  C_3 
REMARK    3  A    between atoms: C_9  and  C_5 
REMARK    4  A    between atoms: O_11  and  C_6 
ROOT
ATOM      1  N   UNL d   1      -0.637   1.252   0.018  0.00  0.00    -0.277 N 
ATOM      2  C   UNL d   1      -1.409   0.077   0.040  0.00  0.00     0.262 A 
ATOM      3  C   UNL d   1      -0.669  -1.224   0.035  0.00  0.00     0.048 A 
ATOM      4  C   UNL d   1       1.437   0.051  -0.004  0.00  0.00     0.000 A 
ATOM      5  C   UNL d   1       0.759   1.225   0.011  0.00  0.00     0.061 A 
ATOM      6  C   UNL d   1       0.672  -1.197  -0.014  0.00  0.00     0.086 A 
ATOM      7  O   UNL d   1      -2.642   0.074   0.064  0.00  0.00    -0.267 OA
ATOM      8  C   UNL d   1       2.947  -0.045   0.022  0.00  0.00     0.054 C 
ENDROOT
BRANCH   1   9
ATOM      9  C   UNL d   1      -1.373   2.476   0.008  0.00  0.00     0.043 A 
ATOM     10  C   UNL d   1      -1.690   3.117   1.211  0.00  0.00     0.030 A 
ATOM     11  C   UNL d   1      -2.445   4.291   1.196  0.00  0.00     0.002 A 
ATOM     12  C   UNL d   1      -2.885   4.823  -0.016  0.00  0.00     0.000 A 
ATOM     13  C   UNL d   1      -2.574   4.183  -1.216  0.00  0.00     0.002 A 
ATOM     14  C   UNL d   1      -1.821   3.008  -1.206  0.00  0.00     0.030 A 
ENDBRANCH   1   9
BRANCH   5  15
ATOM     15  C   UNL d   1       1.510   2.506   0.025  0.00  0.00    -0.008 A 
ATOM     16  C   UNL d   1       1.903   3.117  -1.175  0.00  0.00     0.014 A 
ATOM     17  C   UNL d   1       2.683   4.275  -1.153  0.00  0.00     0.001 A 
ATOM     18  C   UNL d   1       3.074   4.832   0.065  0.00  0.00     0.000 A 
ATOM     19  C   UNL d   1       2.681   4.236   1.263  0.00  0.00     0.001 A 
ATOM     20  C   UNL d   1       1.902   3.078   1.244  0.00  0.00     0.014 A 
ENDBRANCH   5  15
BRANCH   3  21
ATOM     21  C   UNL d   1      -1.465  -2.526   0.099  0.00  0.00     0.019 C 
ATOM     22  C   UNL d   1      -2.261  -2.668   1.400  0.00  0.00     0.015 C 
ATOM     23  C   UNL d   1      -2.354  -2.760  -1.125  0.00  0.00     0.015 C 
ENDBRANCH   3  21
BRANCH   6  24
ATOM     24  O   UNL d   1       1.369  -2.393  -0.059  0.00  0.00    -0.359 OA
ATOM     25  H   UNL d   1       2.324  -2.249  -0.092  0.00  0.00     0.217 HD
ENDBRANCH   6  24
TORSDOF 4
