REMARK  4 active torsions:
REMARK  status: ('A' for Active; 'I' for Inactive)
REMARK    1  A    between atoms: N_2  and  C_1 
REMARK       I    between atoms: C_3  and  N_2 
REMARK    2  A    between atoms: C_7  and  N_2 
REMARK       I    between atoms: N_9  and  C_3 
REMARK    3  A    between atoms: C_8  and  C_10 
REMARK    4  A    between atoms: C_18  and  N_9 
ROOT
ATOM      1  N   UNL d   1       2.099   1.400  -0.266  0.00  0.00    -0.244 N 
ATOM      2  C   UNL d   1       3.472   0.964  -0.353  0.00  0.00     0.333 C 
ATOM      3  N   UNL d   1       3.621  -0.389  -0.612  0.00  0.00    -0.308 N 
ATOM      4  O   UNL d   1       4.435   1.718  -0.212  0.00  0.00    -0.246 OA
ATOM      5  H   UNL d   1       2.786  -0.946  -0.496  0.00  0.00     0.170 HD
ENDROOT
BRANCH   1   6
ATOM      6  C   UNL d   1       0.972   0.576  -0.034  0.00  0.00     0.151 C 
ATOM      7  N   UNL d   1      -0.244   0.899  -0.324  0.00  0.00    -0.369 N 
ATOM      8  C   UNL d   1      -1.184  -0.197  -0.013  0.00  0.00     0.137 C 
ATOM      9  HN  UNL d   1      -0.520   1.798  -0.719  1.00  0.00     0.161 HD
ATOM     10  C   UNL d   1      -0.597  -1.105   1.058  0.00  0.00     0.069 C 
ATOM     11  S   UNL d   1       1.164  -1.006   0.709  0.00  0.00    -0.087 SA
ATOM     12  C   UNL d   1      -0.857  -0.618   2.476  0.00  0.00     0.023 C 
ENDBRANCH   1   6
BRANCH   1  13
ATOM     13  C   UNL d   1       1.856   2.846  -0.365  0.00  0.00     0.047 A 
ATOM     14  C   UNL d   1       2.688   3.690  -1.122  0.00  0.00     0.046 A 
ATOM     15  C   UNL d   1       2.462   5.082  -1.212  0.00  0.00     0.050 A 
ATOM     16  C   UNL d   1       1.366   5.640  -0.545  0.00  0.00     0.016 A 
ATOM     17  C   UNL d   1       0.526   4.832   0.207  0.00  0.00     0.003 A 
ATOM     18  C   UNL d   1       0.778   3.458   0.304  0.00  0.00     0.030 A 
BRANCH  15  19
ATOM     19  C   UNL d   1       3.378   5.975  -2.012  0.00  0.00     0.417 C 
ATOM     20  F   UNL d   1       4.400   5.313  -2.625  0.00  0.00    -0.166 F 
ATOM     21  F   UNL d   1       2.718   6.636  -3.004  0.00  0.00    -0.166 F 
ATOM     22  F   UNL d   1       3.963   6.940  -1.250  0.00  0.00    -0.166 F 
ENDBRANCH  15  19
ENDBRANCH   1  13
BRANCH   3  23
ATOM     23  C   UNL d   1       4.785  -1.145  -0.845  0.00  0.00     0.036 A 
ATOM     24  C   UNL d   1       6.051  -0.605  -1.056  0.00  0.00     0.029 A 
ATOM     25  C   UNL d   1       7.128  -1.444  -1.367  0.00  0.00     0.002 A 
ATOM     26  C   UNL d   1       6.949  -2.824  -1.457  0.00  0.00     0.000 A 
ATOM     27  C   UNL d   1       5.696  -3.375  -1.212  0.00  0.00     0.002 A 
ATOM     28  C   UNL d   1       4.622  -2.538  -0.906  0.00  0.00     0.029 A 
ENDBRANCH   3  23
TORSDOF 4
