REMARK  3 active torsions:
REMARK  status: ('A' for Active; 'I' for Inactive)
REMARK    1  A    between atoms: C_2  and  S_1 
REMARK    2  A    between atoms: C_3  and  S_1 
REMARK    3  A    between atoms: O_12  and  N_8 
ROOT
ATOM      1  C   UNL d   1       0.070   1.645  -0.324  0.00  0.00     0.235 C 
ATOM      2  C   UNL d   1       0.347   0.327   0.170  0.00  0.00     0.132 C 
ATOM      3  N   UNL d   1       0.600  -0.712   0.631  0.00  0.00    -0.189 NA
ATOM      4  N   UNL d   1       0.475   2.549   0.530  0.00  0.00    -0.248 N 
ATOM      5  HN  UNL d   1       0.927   2.333   1.419  1.00  0.00     0.195 HD
ENDROOT
BRANCH   1   6
ATOM      6  S   UNL d   1      -0.706   1.950  -1.855  0.00  0.00     0.249 S 
ATOM      7  O   UNL d   1       0.272   2.633  -2.690  0.00  0.00    -0.214 OA
ATOM      8  O   UNL d   1      -1.991   2.567  -1.553  0.00  0.00    -0.214 OA
BRANCH   6   9
ATOM      9  C   UNL d   1      -1.095   0.448  -2.713  0.00  0.00     0.135 A 
ATOM     10  N   UNL d   1      -0.731  -0.701  -2.107  0.00  0.00    -0.356 N 
ATOM     11  C   UNL d   1      -1.054  -1.843  -2.753  0.00  0.00     0.089 A 
ATOM     12  HN  UNL d   1      -0.241  -0.707  -1.213  1.00  0.00     0.166 HD
ATOM     13  C   UNL d   1      -1.720  -1.878  -3.969  0.00  0.00     0.017 A 
ATOM     14  C   UNL d   1      -2.074  -0.671  -4.567  0.00  0.00     0.004 A 
ATOM     15  C   UNL d   1      -1.757   0.523  -3.931  0.00  0.00     0.042 A 
ENDBRANCH   6   9
ENDBRANCH   1   6
BRANCH   4  16
ATOM     16  O   UNL d   1       0.215   3.848   0.080  0.00  0.00    -0.288 OA
ATOM     17  H   UNL d   1       0.570   4.410   0.797  0.00  0.00     0.244 HD
ENDBRANCH   4  16
TORSDOF 3
