REMARK  2 active torsions:
REMARK  status: ('A' for Active; 'I' for Inactive)
REMARK    1  A    between atoms: C_8  and  C_4 
REMARK    2  A    between atoms: O_15  and  C_9 
ROOT
ATOM      1  C   UNL d   1       1.875   0.512   0.109  0.00  0.00    -0.002 A 
ATOM      2  C   UNL d   1       0.823   1.564   0.268  0.00  0.00     0.189 A 
ATOM      3  C   UNL d   1      -0.438   0.863   0.543  0.00  0.00     0.021 A 
ATOM      4  C   UNL d   1       3.169   0.808  -0.075  0.00  0.00     0.023 C 
ATOM      5  C   UNL d   1      -0.210  -0.513   0.542  0.00  0.00    -0.040 A 
ATOM      6  C   UNL d   1       1.218  -0.841   0.229  0.00  0.00     0.082 A 
ATOM      7  O   UNL d   1       0.973   2.767   0.193  0.00  0.00    -0.287 OA
ATOM      8  C   UNL d   1      -1.685   1.407   0.794  0.00  0.00     0.016 A 
ATOM      9  C   UNL d   1      -1.246  -1.394   0.809  0.00  0.00     0.008 A 
ATOM     10  C   UNL d   1      -2.733   0.524   1.062  0.00  0.00     0.001 A 
ATOM     11  C   UNL d   1      -2.513  -0.866   1.073  0.00  0.00     0.001 A 
ENDROOT
BRANCH   4  12
ATOM     12  C   UNL d   1       4.181  -0.238  -0.215  0.00  0.00    -0.035 A 
ATOM     13  C   UNL d   1       4.490  -0.748  -1.480  0.00  0.00     0.014 A 
ATOM     14  C   UNL d   1       5.405  -1.798  -1.617  0.00  0.00     0.037 A 
ATOM     15  C   UNL d   1       6.019  -2.348  -0.491  0.00  0.00     0.068 A 
ATOM     16  C   UNL d   1       5.719  -1.827   0.771  0.00  0.00     0.037 A 
ATOM     17  C   UNL d   1       4.805  -0.779   0.912  0.00  0.00     0.014 A 
BRANCH  15  18
ATOM     18  O   UNL d   1       6.909  -3.386  -0.488  0.00  0.00    -0.356 OA
ATOM     19  C   UNL d   1       7.234  -3.955  -1.751  0.00  0.00     0.210 C 
ENDBRANCH  15  18
ENDBRANCH   4  12
TORSDOF 2
