REMARK  4 active torsions:
REMARK  status: ('A' for Active; 'I' for Inactive)
REMARK    1  A    between atoms: C_2  and  C_1 
REMARK       I    between atoms: N_3  and  C_1 
REMARK    2  A    between atoms: C_10  and  N_3 
REMARK    3  A    between atoms: O_9  and  C_11 
REMARK    4  A    between atoms: C_13  and  O_9 
ROOT
ATOM      1  C   UNL d   1      -1.161   1.019   0.547  0.00  0.00     0.035 A 
ATOM      2  C   UNL d   1      -3.972   1.069   0.651  0.00  0.00     0.076 A 
ATOM      3  C   UNL d   1      -1.874  -0.022   1.149  0.00  0.00     0.032 A 
ATOM      4  C   UNL d   1      -1.870   2.127   0.071  0.00  0.00     0.032 A 
ATOM      5  C   UNL d   1      -3.272   2.151   0.119  0.00  0.00     0.039 A 
ATOM      6  C   UNL d   1      -3.267   0.013   1.224  0.00  0.00     0.039 A 
ENDROOT
BRANCH   1   7
ATOM      7  N   UNL d   1       0.241   1.000   0.392  0.00  0.00    -0.322 N 
ATOM      8  C   UNL d   1       1.083  -0.073   0.642  0.00  0.00     0.274 C 
ATOM      9  O   UNL d   1       0.756  -1.191   1.025  0.00  0.00    -0.266 OA
ATOM     10  H   UNL d   1       0.694   1.825   0.004  0.00  0.00     0.169 HD
BRANCH   8  11
ATOM     11  C   UNL d   1       2.526   0.194   0.390  0.00  0.00     0.116 A 
ATOM     12  N   UNL d   1       2.883   1.433  -0.057  0.00  0.00    -0.359 N 
ATOM     13  C   UNL d   1       4.216   1.598  -0.240  0.00  0.00     0.105 A 
ATOM     14  HN  UNL d   1       2.204   2.173  -0.237  1.00  0.00     0.165 HD
ATOM     15  C   UNL d   1       5.143   0.590   0.002  0.00  0.00     0.104 A 
ATOM     16  N   UNL d   1       4.784  -0.637   0.435  0.00  0.00    -0.372 N 
ATOM     17  C   UNL d   1       3.450  -0.814   0.624  0.00  0.00     0.122 A 
ATOM     18  HN  UNL d   1       5.464  -1.377   0.608  1.00  0.00     0.164 HD
ENDBRANCH   8  11
ENDBRANCH   1   7
BRANCH   2  19
ATOM     19  O   UNL d   1      -5.348   1.120   0.609  0.00  0.00    -0.311 OA
BRANCH  19  20
ATOM     20  C   UNL d   1      -6.040  -0.046   0.348  0.00  0.00     0.076 A 
ATOM     21  C   UNL d   1      -7.277  -0.191   0.978  0.00  0.00     0.037 A 
ATOM     22  C   UNL d   1      -8.031  -1.351   0.783  0.00  0.00     0.003 A 
ATOM     23  C   UNL d   1      -7.551  -2.366  -0.046  0.00  0.00     0.000 A 
ATOM     24  C   UNL d   1      -6.333  -2.209  -0.705  0.00  0.00     0.003 A 
ATOM     25  C   UNL d   1      -5.589  -1.041  -0.528  0.00  0.00     0.037 A 
ENDBRANCH  19  20
ENDBRANCH   2  19
TORSDOF 4
