REMARK  8 active torsions:
REMARK  status: ('A' for Active; 'I' for Inactive)
REMARK    1  A    between atoms: O_10  and  C_1 
REMARK    2  A    between atoms: N_2  and  O_9 
REMARK    3  A    between atoms: C_7  and  C_4 
REMARK    4  A    between atoms: N_17  and  C_4 
REMARK    5  A    between atoms: C_5  and  C_6 
REMARK    6  A    between atoms: O_9  and  C_5 
REMARK    7  A    between atoms: C_8  and  C_18 
REMARK    8  A    between atoms: C_19  and  O_10 
ROOT
ATOM      1  C   UNL d   1       2.062  -3.762  -5.580  0.00  0.00     0.304 C 
ATOM      2  O   UNL d   1       1.716  -3.445  -4.448  0.00  0.00    -0.258 OA
ENDROOT
BRANCH   1   3
ATOM      3  C   UNL d   1       3.415  -3.438  -6.087  0.00  0.00     0.085 C 
ATOM      4  C   UNL d   1       3.936  -3.861  -7.249  0.00  0.00     0.017 C 
BRANCH   4   5
ATOM      5  C   UNL d   1       5.335  -3.621  -7.636  0.00  0.00    -0.036 A 
ATOM      6  C   UNL d   1       6.386  -3.704  -6.712  0.00  0.00     0.014 A 
ATOM      7  C   UNL d   1       7.718  -3.514  -7.109  0.00  0.00     0.038 A 
ATOM      8  C   UNL d   1       8.014  -3.216  -8.435  0.00  0.00     0.078 A 
ATOM      9  C   UNL d   1       6.978  -3.191  -9.372  0.00  0.00     0.038 A 
ATOM     10  C   UNL d   1       5.650  -3.390  -8.979  0.00  0.00     0.014 A 
BRANCH   8  11
ATOM     11  O   UNL d   1       9.257  -3.010  -8.949  0.00  0.00    -0.255 OA
BRANCH  11  12
ATOM     12  C   UNL d   1      10.244  -2.368  -8.152  0.00  0.00     0.530 C 
ATOM     13  F   UNL d   1       9.786  -1.884  -6.979  0.00  0.00    -0.144 F 
ATOM     14  F   UNL d   1      10.752  -1.330  -8.856  0.00  0.00    -0.144 F 
ATOM     15  F   UNL d   1      11.249  -3.235  -7.902  0.00  0.00    -0.144 F 
ENDBRANCH  11  12
ENDBRANCH   8  11
ENDBRANCH   4   5
ENDBRANCH   1   3
BRANCH   1  16
ATOM     16  O   UNL d   1       1.321  -4.455  -6.494  0.00  0.00    -0.194 OA
BRANCH  16  17
ATOM     17  N   UNL d   1       0.650  -5.502  -5.829  0.00  0.00    -0.246 N 
ATOM     18  C   UNL d   1      -0.305  -6.004  -6.550  0.00  0.00     0.109 C 
ATOM     19  HN  UNL d   1       0.887  -5.826  -4.892  1.00  0.00     0.196 HD
BRANCH  18  20
ATOM     20  C   UNL d   1      -0.961  -7.249  -6.042  0.00  0.00     0.004 A 
ATOM     21  C   UNL d   1      -0.984  -7.523  -4.667  0.00  0.00     0.016 A 
ATOM     22  C   UNL d   1      -1.519  -8.727  -4.202  0.00  0.00     0.024 A 
ATOM     23  C   UNL d   1      -2.021  -9.658  -5.110  0.00  0.00     0.034 A 
ATOM     24  C   UNL d   1      -2.004  -9.392  -6.479  0.00  0.00     0.024 A 
ATOM     25 CL   UNL d   1      -2.648 -11.156  -4.542  0.00  0.00    -0.084 Cl
ATOM     26  C   UNL d   1      -1.476  -8.185  -6.946  0.00  0.00     0.016 A 
ENDBRANCH  18  20
BRANCH  18  27
ATOM     27  N   UNL d   1      -0.739  -5.465  -7.742  0.00  0.00    -0.286 NA
ATOM     28  H   UNL d   1      -0.449  -4.497  -7.842  0.00  0.00     0.125 HD
ATOM     29  H   UNL d   1      -1.729  -5.576  -7.926  0.00  0.00     0.125 HD
ENDBRANCH  18  27
ENDBRANCH  16  17
ENDBRANCH   1  16
TORSDOF 8
