REMARK  1 active torsions:
REMARK  status: ('A' for Active; 'I' for Inactive)
REMARK    1  A    between atoms: N_15  and  C_10 
ROOT
ATOM      1  N   UNL d   1       2.793   0.028  -0.001  0.00  0.00    -0.284 N 
ATOM      2  C   UNL d   1       2.139   1.254  -0.006  0.00  0.00     0.261 A 
ATOM      3  C   UNL d   1       2.160  -1.213  -0.008  0.00  0.00     0.261 A 
ATOM      4  C   UNL d   1       0.656   1.227  -0.010  0.00  0.00     0.046 A 
ATOM      5  C   UNL d   1      -0.026   0.005  -0.015  0.00  0.00     0.007 A 
ATOM      6  C   UNL d   1       0.678  -1.209  -0.013  0.00  0.00     0.044 A 
ATOM      7  C   UNL d   1      -1.447  -0.003  -0.008  0.00  0.00    -0.005 A 
ATOM      8  C   UNL d   1      -2.129   1.249   0.007  0.00  0.00     0.043 A 
ATOM      9  C   UNL d   1      -0.039   2.444   0.011  0.00  0.00     0.042 A 
ATOM     10  C   UNL d   1      -1.432   2.475  -0.011  0.00  0.00     0.025 A 
ATOM     11  O   UNL d   1       2.715   2.339  -0.010  0.00  0.00    -0.267 OA
ATOM     12  O   UNL d   1       2.764  -2.282  -0.010  0.00  0.00    -0.267 OA
ATOM     13  C   UNL d   1       4.245   0.013   0.006  0.00  0.00     0.163 C 
ATOM     14 BR   UNL d   1      -4.048   1.321   0.024  0.00  0.00    -0.048 Br
ATOM     15  C   UNL d   1       0.007  -2.437  -0.008  0.00  0.00     0.018 A 
ATOM     16  C   UNL d   1      -2.093  -1.265  -0.005  0.00  0.00     0.014 A 
ATOM     17  C   UNL d   1      -1.379  -2.464  -0.005  0.00  0.00     0.002 A 
ENDROOT
BRANCH  10  18
ATOM     18  N   UNL d   1      -2.078   3.707   0.192  0.00  0.00    -0.302 NA
ATOM     19  H   UNL d   1      -1.573   4.524  -0.137  0.00  0.00     0.124 HD
ATOM     20  H   UNL d   1      -3.057   3.705  -0.087  0.00  0.00     0.124 HD
ENDBRANCH  10  18
TORSDOF 1
