REMARK  5 active torsions:
REMARK  status: ('A' for Active; 'I' for Inactive)
REMARK    1  A    between atoms: C_4  and  N_3 
REMARK    2  A    between atoms: N_6  and  C_4 
REMARK    3  A    between atoms: C_8  and  C_5 
REMARK    4  A    between atoms: C_11  and  N_6 
REMARK    5  A    between atoms: C_17  and  C_11 
ROOT
ATOM      1  N   UNL d   1      -1.225  -0.495   0.195  0.00  0.00    -0.300 N 
ATOM      2  HN  UNL d   1      -2.157  -0.841   0.426  1.00  0.00     0.187 HD
ATOM      3  N   UNL d   1      -1.004   0.874   0.021  0.00  0.00    -0.267 N 
ATOM      4  C   UNL d   1      -0.227  -1.327   0.061  0.00  0.00     0.036 C 
ATOM      5  C   UNL d   1       0.338   1.396  -0.246  0.00  0.00     0.152 C 
ATOM      6  C   UNL d   1       1.193  -0.885  -0.229  0.00  0.00     0.061 C 
ATOM      7  C   UNL d   1       1.405   0.498   0.332  0.00  0.00     0.028 C 
ENDROOT
BRANCH   3   8
ATOM      8  C   UNL d   1      -2.128   1.737   0.014  0.00  0.00     0.189 C 
ATOM      9  S   UNL d   1      -2.132   3.283  -0.653  0.00  0.00    -0.039 SA
BRANCH   8  10
ATOM     10  N   UNL d   1      -3.215   1.182   0.658  0.00  0.00    -0.362 N 
ATOM     11  H   UNL d   1      -3.069   0.213   0.921  0.00  0.00     0.162 HD
BRANCH  10  12
ATOM     12  C   UNL d   1      -4.377   1.885   1.179  0.00  0.00     0.160 C 
BRANCH  12  13
ATOM     13  C   UNL d   1      -4.540   1.693   2.669  0.00  0.00    -0.041 A 
ATOM     14  C   UNL d   1      -3.477   1.947   3.551  0.00  0.00     0.009 A 
ATOM     15  C   UNL d   1      -3.656   1.842   4.932  0.00  0.00     0.001 A 
ATOM     16  C   UNL d   1      -4.901   1.491   5.449  0.00  0.00     0.000 A 
ATOM     17  C   UNL d   1      -5.967   1.245   4.586  0.00  0.00     0.001 A 
ATOM     18  C   UNL d   1      -5.789   1.348   3.205  0.00  0.00     0.009 A 
ENDBRANCH  12  13
ENDBRANCH  10  12
ENDBRANCH   8  10
ENDBRANCH   3   8
BRANCH   4  19
ATOM     19  C   UNL d   1      -0.466  -2.797   0.164  0.00  0.00    -0.012 A 
ATOM     20  C   UNL d   1       0.371  -3.719  -0.487  0.00  0.00     0.016 A 
ATOM     21  C   UNL d   1       0.149  -5.091  -0.348  0.00  0.00     0.043 A 
ATOM     22  C   UNL d   1      -0.907  -5.542   0.431  0.00  0.00     0.116 A 
ATOM     23  C   UNL d   1      -1.757  -4.644   1.069  0.00  0.00     0.043 A 
ATOM     24  F   UNL d   1      -1.112  -6.857   0.567  0.00  0.00    -0.206 F 
ATOM     25  C   UNL d   1      -1.542  -3.270   0.935  0.00  0.00     0.016 A 
ENDBRANCH   4  19
TORSDOF 5
