REMARK  8 active torsions:
REMARK  status: ('A' for Active; 'I' for Inactive)
REMARK    1  A    between atoms: C_12  and  S_1 
REMARK    2  A    between atoms: N_19  and  S_1 
REMARK    3  A    between atoms: S_2  and  C_13 
REMARK    4  A    between atoms: N_20  and  S_2 
REMARK    5  A    between atoms: N_11  and  C_6 
REMARK    6  A    between atoms: N_10  and  C_7 
REMARK    7  A    between atoms: C_33  and  N_19 
REMARK    8  A    between atoms: C_34  and  N_20 
ROOT
ATOM      1  C   UNL d   1      -0.239   3.939  -2.281  0.00  0.00     0.022 A 
ATOM      2  C   UNL d   1      -0.802   5.045  -3.087  0.00  0.00     0.022 A 
ATOM      3  C   UNL d   1      -2.189   3.159  -3.345  0.00  0.00     0.018 C 
ATOM      4  C   UNL d   1      -0.503   6.414  -3.176  0.00  0.00     0.116 A 
ATOM      5  C   UNL d   1       0.975   3.782  -1.595  0.00  0.00     0.116 A 
ATOM      6  C   UNL d   1      -1.116   2.817  -2.335  0.00  0.00    -0.008 A 
ATOM      7  C   UNL d   1      -1.927   4.571  -3.817  0.00  0.00    -0.008 A 
ATOM      8  C   UNL d   1       0.362   1.566  -0.876  0.00  0.00     0.082 A 
ATOM      9  C   UNL d   1      -2.240   6.761  -4.809  0.00  0.00     0.082 A 
ATOM     10  C   UNL d   1      -1.190   7.270  -4.050  0.00  0.00     0.062 A 
ATOM     11  C   UNL d   1       1.274   2.617  -0.877  0.00  0.00     0.062 A 
ATOM     12  C   UNL d   1      -3.194   2.347  -3.770  0.00  0.00     0.136 C 
ATOM     13  C   UNL d   1      -2.634   5.420  -4.677  0.00  0.00     0.038 A 
ATOM     14  C   UNL d   1      -0.829   1.647  -1.618  0.00  0.00     0.038 A 
ATOM     15  C   UNL d   1      -3.446   1.062  -3.216  0.00  0.00     0.111 C 
ATOM     16  C   UNL d   1      -4.091   2.697  -4.821  0.00  0.00     0.111 C 
ATOM     17  N   UNL d   1      -3.679   0.018  -2.757  0.00  0.00    -0.191 NA
ATOM     18  N   UNL d   1      -4.807   2.969  -5.698  0.00  0.00    -0.191 NA
ENDROOT
BRANCH   5  19
ATOM     19  N   UNL d   1       2.087   4.689  -1.773  0.00  0.00    -0.115 N 
ATOM     20  O   UNL d   1       2.435   4.907  -2.941  0.00  0.00    -0.532 OA
ATOM     21  O   UNL d   1       2.621   5.140  -0.754  0.00  0.00    -0.532 OA
ENDBRANCH   5  19
BRANCH   8  22
ATOM     22  S   UNL d   1       0.829   0.043  -0.071  0.00  0.00     0.259 S 
ATOM     23  O   UNL d   1       2.137   0.210   0.511  0.00  0.00    -0.201 OA
ATOM     24  O   UNL d   1       0.542  -1.010  -1.022  0.00  0.00    -0.201 OA
BRANCH  22  25
ATOM     25  N   UNL d   1      -0.296  -0.109   1.156  0.00  0.00    -0.311 N 
ATOM     26  H   UNL d   1      -0.772  -1.011   1.094  0.00  0.00     0.172 HD
BRANCH  25  27
ATOM     27  C   UNL d   1      -0.013   0.381   2.527  0.00  0.00     0.093 C 
ATOM     28  C   UNL d   1      -1.152  -0.102   3.441  0.00  0.00     0.026 C 
ATOM     29  C   UNL d   1      -2.495   0.498   3.022  0.00  0.00     0.002 C 
ATOM     30  C   UNL d   1      -2.445   2.024   2.997  0.00  0.00     0.000 C 
ATOM     31  C   UNL d   1      -1.262   2.567   2.198  0.00  0.00     0.002 C 
ATOM     32  C   UNL d   1       0.060   1.908   2.592  0.00  0.00     0.026 C 
ENDBRANCH  25  27
ENDBRANCH  22  25
ENDBRANCH   8  22
BRANCH   9  33
ATOM     33  S   UNL d   1      -3.274   7.889  -5.725  0.00  0.00     0.259 S 
ATOM     34  O   UNL d   1      -4.625   7.620  -5.284  0.00  0.00    -0.201 OA
ATOM     35  O   UNL d   1      -2.692   9.205  -5.622  0.00  0.00    -0.201 OA
BRANCH  33  36
ATOM     36  N   UNL d   1      -3.183   7.336  -7.288  0.00  0.00    -0.311 N 
ATOM     37  H   UNL d   1      -4.059   6.922  -7.604  0.00  0.00     0.172 HD
BRANCH  36  38
ATOM     38  C   UNL d   1      -2.189   7.731  -8.303  0.00  0.00     0.093 C 
ATOM     39  C   UNL d   1      -2.170   9.229  -8.633  0.00  0.00     0.026 C 
ATOM     40  C   UNL d   1      -3.483   9.734  -9.228  0.00  0.00     0.002 C 
ATOM     41  C   UNL d   1      -3.907   8.927 -10.453  0.00  0.00     0.000 C 
ATOM     42  C   UNL d   1      -3.860   7.421 -10.213  0.00  0.00     0.002 C 
ATOM     43  C   UNL d   1      -2.529   6.965  -9.598  0.00  0.00     0.026 C 
ENDBRANCH  36  38
ENDBRANCH  33  36
ENDBRANCH   9  33
BRANCH   4  44
ATOM     44  N   UNL d   1       0.335   7.079  -2.199  0.00  0.00    -0.115 N 
ATOM     45  O   UNL d   1       0.033   6.910  -1.012  0.00  0.00    -0.532 OA
ATOM     46  O   UNL d   1       1.256   7.781  -2.627  0.00  0.00    -0.532 OA
ENDBRANCH   4  44
TORSDOF 8
