REMARK  4 active torsions:
REMARK  status: ('A' for Active; 'I' for Inactive)
REMARK    1  A    between atoms: C_8  and  C_3 
REMARK    2  A    between atoms: C_9  and  C_4 
REMARK    3  A    between atoms: O_19  and  C_12 
REMARK    4  A    between atoms: O_20  and  C_14 
ROOT
ATOM      1  N   UNL d   1       0.628   0.025   0.712  0.00  0.00    -0.318 N 
ATOM      2  HN  UNL d   1       1.254   0.127   1.511  1.00  0.00     0.169 HD
ATOM      3  C   UNL d   1      -0.272   0.929   0.202  0.00  0.00     0.145 A 
ATOM      4  C   UNL d   1       0.479  -1.006  -0.090  0.00  0.00     0.182 A 
ATOM      5  N   UNL d   1      -0.927   0.505  -0.889  0.00  0.00    -0.241 N 
ATOM      6  HN  UNL d   1      -1.624   1.004  -1.442  1.00  0.00     0.196 HD
ATOM      7  O   UNL d   1      -0.426  -0.781  -1.088  0.00  0.00    -0.217 OA
ENDROOT
BRANCH   4   8
ATOM      8  C   UNL d   1       1.072  -2.336  -0.009  0.00  0.00     0.020 A 
ATOM      9  C   UNL d   1       1.900  -2.652   1.083  0.00  0.00     0.055 A 
ATOM     10  C   UNL d   1       2.441  -3.937   1.259  0.00  0.00     0.102 A 
ATOM     11  C   UNL d   1       2.160  -4.925   0.299  0.00  0.00     0.101 A 
ATOM     12  C   UNL d   1       1.350  -4.603  -0.800  0.00  0.00     0.040 A 
ATOM     13  C   UNL d   1       0.808  -3.327  -0.956  0.00  0.00     0.019 A 
BRANCH  10  14
ATOM     14  O   UNL d   1       3.220  -4.273   2.333  0.00  0.00    -0.353 OA
ATOM     15  C   UNL d   1       3.504  -3.276   3.306  0.00  0.00     0.210 C 
ENDBRANCH  10  14
BRANCH  11  16
ATOM     16  O   UNL d   1       2.571  -6.231   0.263  0.00  0.00    -0.353 OA
ATOM     17  C   UNL d   1       3.390  -6.728   1.310  0.00  0.00     0.210 C 
ENDBRANCH  11  16
ENDBRANCH   4   8
BRANCH   3  18
ATOM     18  C   UNL d   1      -0.530   2.257   0.840  0.00  0.00     0.050 A 
ATOM     19  S   UNL d   1       0.327   2.839   2.198  0.00  0.00    -0.098 SA
ATOM     20  C   UNL d   1      -0.591   4.284   2.236  0.00  0.00     0.050 A 
ATOM     21  C   UNL d   1      -1.536   4.320   1.235  0.00  0.00     0.009 A 
ATOM     22  C   UNL d   1      -1.497   3.150   0.420  0.00  0.00     0.023 A 
ENDBRANCH   3  18
TORSDOF 4
