REMARK  7 active torsions:
REMARK  status: ('A' for Active; 'I' for Inactive)
REMARK    1  A    between atoms: C_11  and  N_1 
REMARK    2  A    between atoms: C_13  and  C_5 
REMARK    3  A    between atoms: C_14  and  C_8 
REMARK    4  A    between atoms: C_9  and  C_11 
REMARK    5  A    between atoms: C_18  and  C_13 
REMARK    6  A    between atoms: O_25  and  C_18 
REMARK    7  A    between atoms: C_29  and  O_25 
ROOT
ATOM      1  N   UNL d   1       2.379  -0.679  -0.018  0.00  0.00    -0.251 N 
ATOM      2  N   UNL d   1       2.373   0.698   0.012  0.00  0.00    -0.298 N 
ATOM      3  HN  UNL d   1       3.251   1.217   0.017  1.00  0.00     0.187 HD
ATOM      4  C   UNL d   1       1.235  -1.466   0.002  0.00  0.00     0.273 A 
ATOM      5  C   UNL d   1       1.238   1.328   0.034  0.00  0.00     0.046 A 
ATOM      6  C   UNL d   1      -0.053  -0.755   0.026  0.00  0.00     0.046 A 
ATOM      7  C   UNL d   1      -0.073   0.635  -0.006  0.00  0.00     0.004 A 
ATOM      8  O   UNL d   1       1.236  -2.695  -0.055  0.00  0.00    -0.266 OA
ATOM      9  C   UNL d   1      -1.252  -1.482   0.022  0.00  0.00     0.018 A 
ATOM     10  C   UNL d   1      -1.304   1.301  -0.087  0.00  0.00     0.014 A 
ATOM     11  C   UNL d   1      -2.474  -0.815  -0.032  0.00  0.00     0.001 A 
ATOM     12  C   UNL d   1      -2.499   0.575  -0.094  0.00  0.00     0.001 A 
ENDROOT
BRANCH   1  13
ATOM     13  C   UNL d   1       3.684  -1.329  -0.113  0.00  0.00     0.217 C 
BRANCH  13  14
ATOM     14  C   UNL d   1       4.274  -1.551   1.248  0.00  0.00     0.071 A 
ATOM     15  N   UNL d   1       4.036  -2.595   2.018  0.00  0.00    -0.351 N 
ATOM     16  C   UNL d   1       4.782  -2.522   3.183  0.00  0.00     0.050 A 
ATOM     17  HN  UNL d   1       3.391  -3.351   1.789  1.00  0.00     0.166 HD
ATOM     18  C   UNL d   1       5.604  -1.411   3.262  0.00  0.00     0.082 A 
ATOM     19  S   UNL d   1       5.416  -0.426   1.876  0.00  0.00    -0.085 SA
BRANCH  16  20
ATOM     20  C   UNL d   1       4.706  -3.541   4.234  0.00  0.00    -0.003 A 
ATOM     21  C   UNL d   1       4.523  -4.912   3.964  0.00  0.00    -0.049 A 
ATOM     22  C   UNL d   1       4.467  -5.825   5.041  0.00  0.00     0.014 A 
ATOM     23  C   UNL d   1       4.331  -5.468   2.577  0.00  0.00     0.049 C 
ATOM     24  C   UNL d   1       4.614  -5.406   6.369  0.00  0.00    -0.061 A 
ATOM     25  C   UNL d   1       4.787  -4.049   6.629  0.00  0.00     0.007 A 
ATOM     26  C   UNL d   1       4.581  -6.407   7.484  0.00  0.00     0.048 C 
ATOM     27  C   UNL d   1       4.826  -3.132   5.577  0.00  0.00     0.015 A 
ENDBRANCH  16  20
ENDBRANCH  13  14
ENDBRANCH   1  13
BRANCH   5  28
ATOM     28  C   UNL d   1       1.303   2.842   0.056  0.00  0.00     0.170 C 
BRANCH  28  29
ATOM     29  C   UNL d   1       0.648   3.488   1.243  0.00  0.00     0.264 C 
ATOM     30  O   UNL d   1       0.161   2.897   2.195  0.00  0.00    -0.265 OA
BRANCH  29  31
ATOM     31  O   UNL d   1       0.584   4.835   1.038  0.00  0.00    -0.322 OA
BRANCH  31  32
ATOM     32  C   UNL d   1      -0.325   5.554   1.887  0.00  0.00     0.174 C 
ATOM     33  C   UNL d   1      -1.647   5.682   1.153  0.00  0.00     0.034 C 
ENDBRANCH  31  32
ENDBRANCH  29  31
ENDBRANCH  28  29
ENDBRANCH   5  28
TORSDOF 7
