REMARK  1 active torsions:
REMARK  status: ('A' for Active; 'I' for Inactive)
REMARK    1  A    between atoms: C_3  and  C_4 
ROOT
ATOM      1  N   UNL d   1      -3.096   0.011  -0.038  0.00  0.00    -0.191 NA
ATOM      2  C   UNL d   1      -1.935   0.008  -0.048  0.00  0.00     0.099 C 
ATOM      3  C   UNL d   1       2.332  -0.010   0.065  0.00  0.00    -0.023 A 
ATOM      4  C   UNL d   1       1.593  -1.208   0.008  0.00  0.00     0.014 A 
ATOM      5  C   UNL d   1       1.600   1.192   0.043  0.00  0.00     0.014 A 
ATOM      6  C   UNL d   1      -0.504   0.001  -0.042  0.00  0.00     0.044 A 
ATOM      7  C   UNL d   1       0.203   1.202  -0.017  0.00  0.00     0.023 A 
ATOM      8  C   UNL d   1       0.194  -1.206  -0.038  0.00  0.00     0.023 A 
ENDROOT
BRANCH   3   9
ATOM      9  C   UNL d   1       3.813  -0.017   0.161  0.00  0.00     0.013 A 
ATOM     10  C   UNL d   1       4.612   1.000  -0.394  0.00  0.00     0.127 A 
ATOM     11  F   UNL d   1       4.056   2.020  -1.068  0.00  0.00    -0.205 F 
ATOM     12  C   UNL d   1       6.003   0.997  -0.284  0.00  0.00     0.043 A 
ATOM     13  C   UNL d   1       6.645  -0.043   0.377  0.00  0.00     0.003 A 
ATOM     14  C   UNL d   1       5.890  -1.070   0.935  0.00  0.00     0.001 A 
ATOM     15  C   UNL d   1       4.494  -1.051   0.836  0.00  0.00     0.015 A 
ENDBRANCH   3   9
TORSDOF 1
