REMARK  7 active torsions:
REMARK  status: ('A' for Active; 'I' for Inactive)
REMARK    1  A    between atoms: N_2  and  C_1 
REMARK    2  A    between atoms: C_5  and  C_4 
REMARK       I    between atoms: N_7  and  C_5 
REMARK    3  A    between atoms: C_10  and  C_6 
REMARK    4  A    between atoms: C_8  and  N_7 
REMARK       I    between atoms: N_16  and  C_10 
REMARK    5  A    between atoms: C_25  and  N_16 
REMARK    6  A    between atoms: C_18  and  C_27 
REMARK    7  A    between atoms: C_27  and  C_25 
ROOT
ATOM      1  C   UNL d   1      -2.926  -0.540  -0.926  0.00  0.00     0.058 A 
ATOM      2  C   UNL d   1      -3.082  -1.591   0.006  0.00  0.00     0.050 A 
ATOM      3  C   UNL d   1      -3.941   0.431  -1.040  0.00  0.00     0.019 A 
ATOM      4  C   UNL d   1      -4.234  -1.624   0.810  0.00  0.00     0.030 A 
ATOM      5  C   UNL d   1      -5.068   0.391  -0.217  0.00  0.00     0.001 A 
ATOM      6  C   UNL d   1      -5.214  -0.636   0.706  0.00  0.00     0.002 A 
ENDROOT
BRANCH   1   7
ATOM      7  C   UNL d   1      -1.765  -0.526  -1.874  0.00  0.00     0.253 C 
ATOM      8  O   UNL d   1      -1.089  -1.538  -2.045  0.00  0.00    -0.268 OA
ATOM      9  N   UNL d   1      -1.492   0.661  -2.526  0.00  0.00    -0.356 N 
ATOM     10  H   UNL d   1      -1.948   1.515  -2.242  0.00  0.00     0.162 HD
BRANCH   9  11
ATOM     11  C   UNL d   1      -0.448   0.739  -3.533  0.00  0.00     0.127 C 
BRANCH  11  12
ATOM     12  C   UNL d   1      -0.248   2.166  -4.045  0.00  0.00     0.058 C 
BRANCH  12  13
ATOM     13  C   UNL d   1       0.861   2.240  -5.065  0.00  0.00    -0.057 A 
ATOM     14  C   UNL d   1       0.589   2.060  -6.428  0.00  0.00     0.009 A 
ATOM     15  C   UNL d   1       1.629   2.057  -7.361  0.00  0.00     0.024 A 
ATOM     16  C   UNL d   1       2.943   2.232  -6.934  0.00  0.00     0.034 A 
ATOM     17  C   UNL d   1       3.226   2.428  -5.585  0.00  0.00     0.024 A 
ATOM     18 CL   UNL d   1       4.227   2.192  -8.079  0.00  0.00    -0.084 Cl
ATOM     19  C   UNL d   1       2.187   2.432  -4.652  0.00  0.00     0.009 A 
ENDBRANCH  12  13
ENDBRANCH  11  12
ENDBRANCH   9  11
ENDBRANCH   1   7
BRANCH   2  20
ATOM     20  N   UNL d   1      -2.079  -2.580   0.172  0.00  0.00    -0.320 N 
ATOM     21  C   UNL d   1      -2.343  -3.917   0.421  0.00  0.00     0.280 C 
ATOM     22  O   UNL d   1      -3.473  -4.396   0.463  0.00  0.00    -0.265 OA
ATOM     23  H   UNL d   1      -1.175  -2.391  -0.261  0.00  0.00     0.169 HD
BRANCH  21  24
ATOM     24  C   UNL d   1      -1.165  -4.757   0.579  0.00  0.00     0.146 A 
ATOM     25  O   UNL d   1       0.068  -4.209   0.831  0.00  0.00    -0.283 OA
ATOM     26  C   UNL d   1       0.922  -5.263   0.993  0.00  0.00     0.215 A 
ATOM     27  C   UNL d   1       0.284  -6.468   0.829  0.00  0.00     0.066 A 
ATOM     28  C   UNL d   1      -1.066  -6.141   0.566  0.00  0.00     0.047 A 
BRANCH  26  29
ATOM     29  N   UNL d   1       2.286  -4.962   1.313  0.00  0.00    -0.090 N 
ATOM     30  O   UNL d   1       3.058  -5.924   1.399  0.00  0.00    -0.530 OA
ATOM     31  O   UNL d   1       2.578  -3.774   1.488  0.00  0.00    -0.530 OA
ENDBRANCH  26  29
ENDBRANCH  21  24
ENDBRANCH   2  20
TORSDOF 7
