REMARK  4 active torsions:
REMARK  status: ('A' for Active; 'I' for Inactive)
REMARK    1  A    between atoms: C_5  and  N_1 
REMARK    2  A    between atoms: C_4  and  C_3 
REMARK    3  A    between atoms: O_8  and  C_6 
REMARK    4  A    between atoms: O_9  and  C_7 
ROOT
ATOM      1  N   UNL d   1       1.099  -0.003  -0.160  0.00  0.00    -0.363 N 
ATOM      2  HN  UNL d   1       0.646  -0.850  -0.505  1.00  0.00     0.165 HD
ATOM      3  C   UNL d   1       0.405   1.051   0.145  0.00  0.00     0.102 C 
ENDROOT
BRANCH   1   4
ATOM      4  C   UNL d   1       2.498   0.058   0.000  0.00  0.00     0.065 A 
ATOM      5  C   UNL d   1       3.320   0.940  -0.717  0.00  0.00     0.092 A 
ATOM      6  C   UNL d   1       4.699   0.966  -0.526  0.00  0.00     0.039 A 
ATOM      7  C   UNL d   1       5.286   0.060   0.359  0.00  0.00     0.003 A 
ATOM      8  C   UNL d   1       4.490  -0.854   1.049  0.00  0.00     0.002 A 
ATOM      9  C   UNL d   1       3.106  -0.851   0.872  0.00  0.00     0.032 A 
BRANCH   5  10
ATOM     10  O   UNL d   1       2.793   1.782  -1.659  0.00  0.00    -0.358 OA
ATOM     11  H   UNL d   1       1.927   1.398  -1.887  0.00  0.00     0.217 HD
ENDBRANCH   5  10
ENDBRANCH   1   4
BRANCH   3  12
ATOM     12  C   UNL d   1      -1.071   1.009   0.107  0.00  0.00     0.012 A 
ATOM     13  C   UNL d   1      -1.768  -0.207   0.124  0.00  0.00     0.077 A 
ATOM     14  C   UNL d   1      -3.159  -0.221   0.152  0.00  0.00     0.037 A 
ATOM     15  C   UNL d   1      -3.864   0.983   0.145  0.00  0.00     0.003 A 
ATOM     16  C   UNL d   1      -3.176   2.198   0.112  0.00  0.00     0.001 A 
ATOM     17  C   UNL d   1      -1.779   2.215   0.100  0.00  0.00     0.015 A 
BRANCH  13  18
ATOM     18  O   UNL d   1      -1.140  -1.423   0.133  0.00  0.00    -0.360 OA
ATOM     19  H   UNL d   1      -0.178  -1.252   0.016  0.00  0.00     0.217 HD
ENDBRANCH  13  18
ENDBRANCH   3  12
TORSDOF 4
