REMARK  1 active torsions:
REMARK  status: ('A' for Active; 'I' for Inactive)
REMARK    1  A    between atoms: C_5  and  C_3 
ROOT
ATOM      1  N   UNL d   1       1.217   1.101   0.186  0.00  0.00    -0.301 N 
ATOM      2  HN  UNL d   1       1.714   1.967   0.397  1.00  0.00     0.186 HD
ATOM      3  C   UNL d   1       1.865  -0.019   0.042  0.00  0.00     0.043 C 
ATOM      4  N   UNL d   1      -0.139   1.093   0.048  0.00  0.00    -0.270 N 
ATOM      5  C   UNL d   1      -0.942  -0.015  -0.013  0.00  0.00     0.236 C 
ATOM      6  C   UNL d   1       1.163  -1.320  -0.278  0.00  0.00     0.069 C 
ATOM      7  O   UNL d   1      -2.158   0.074  -0.176  0.00  0.00    -0.272 OA
ATOM      8  C   UNL d   1      -0.258  -1.325   0.238  0.00  0.00     0.110 C 
ATOM      9  H   UNL d   1      -0.593   1.999  -0.020  0.00  0.00     0.190 HD
ENDROOT
BRANCH   3  10
ATOM     10  C   UNL d   1       3.318   0.019   0.128  0.00  0.00     0.028 A 
ATOM     11  S   UNL d   1       4.288  -1.145  -0.677  0.00  0.00    -0.100 SA
ATOM     12  C   UNL d   1       5.737  -0.408  -0.157  0.00  0.00     0.050 A 
ATOM     13  C   UNL d   1       5.500   0.702   0.621  0.00  0.00     0.008 A 
ATOM     14  C   UNL d   1       4.106   0.957   0.772  0.00  0.00     0.021 A 
ENDBRANCH   3  10
TORSDOF 1
