REMARK  6 active torsions:
REMARK  status: ('A' for Active; 'I' for Inactive)
REMARK    1  A    between atoms: N_2  and  C_1 
REMARK    2  A    between atoms: N_6  and  N_2 
REMARK    3  A    between atoms: C_3  and  C_22 
REMARK    4  A    between atoms: C_14  and  C_10 
REMARK    5  A    between atoms: O_23  and  N_15 
REMARK    6  A    between atoms: C_22  and  O_23 
ROOT
ATOM      1  N   UNL d   1      -0.245   3.762  -0.147  0.00  0.00    -0.303 N 
ATOM      2  HN  UNL d   1       0.465   3.037  -0.048  1.00  0.00     0.186 HD
ATOM      3  C   UNL d   1       0.083   5.017  -0.126  0.00  0.00     0.039 C 
ATOM      4  C   UNL d   1      -0.836   6.204  -0.195  0.00  0.00     0.071 C 
ENDROOT
BRANCH   3   5
ATOM      5  C   UNL d   1       1.563   5.293  -0.060  0.00  0.00     0.140 C 
ATOM      6  N   UNL d   1       2.065   6.370  -0.569  0.00  0.00    -0.276 N 
ATOM      7  HN  UNL d   1       1.540   7.120  -1.019  1.00  0.00     0.193 HD
BRANCH   6   8
ATOM      8  O   UNL d   1       3.463   6.329  -0.394  0.00  0.00    -0.276 OA
BRANCH   8   9
ATOM      9  C   UNL d   1       4.054   7.465  -1.033  0.00  0.00     0.244 C 
BRANCH   9  10
ATOM     10  C   UNL d   1       5.546   7.413  -0.851  0.00  0.00     0.028 A 
ATOM     11  C   UNL d   1       6.326   6.758  -1.812  0.00  0.00     0.126 A 
ATOM     12  F   UNL d   1       5.736   6.208  -2.885  0.00  0.00    -0.205 F 
ATOM     13  C   UNL d   1       7.713   6.663  -1.702  0.00  0.00     0.043 A 
ATOM     14  C   UNL d   1       8.358   7.222  -0.606  0.00  0.00     0.005 A 
ATOM     15  C   UNL d   1       7.604   7.872   0.373  0.00  0.00     0.024 A 
ATOM     16  C   UNL d   1       6.209   7.963   0.254  0.00  0.00     0.045 A 
ATOM     17 CL   UNL d   1       5.359   8.781   1.515  0.00  0.00    -0.084 Cl
ENDBRANCH   9  10
ENDBRANCH   8   9
ENDBRANCH   6   8
ENDBRANCH   3   5
BRANCH   1  18
ATOM     18  N   UNL d   1      -1.545   3.436  -0.303  0.00  0.00    -0.297 N 
ATOM     19  H   UNL d   1      -2.231   3.809   0.357  0.00  0.00     0.187 HD
BRANCH  18  20
ATOM     20  C   UNL d   1      -1.898   2.139  -0.779  0.00  0.00     0.091 A 
ATOM     21  C   UNL d   1      -1.007   1.210  -1.367  0.00  0.00     0.065 A 
ATOM     22  C   UNL d   1      -1.478   0.017  -1.936  0.00  0.00     0.050 A 
ATOM     23 CL   UNL d   1       0.716   1.411  -1.454  0.00  0.00    -0.082 Cl
ATOM     24  C   UNL d   1      -2.837  -0.270  -1.953  0.00  0.00     0.037 A 
ATOM     25  C   UNL d   1      -3.743   0.619  -1.391  0.00  0.00     0.050 A 
ATOM     26 CL   UNL d   1      -3.395  -1.720  -2.685  0.00  0.00    -0.084 Cl
ATOM     27  C   UNL d   1      -3.275   1.805  -0.816  0.00  0.00     0.065 A 
ATOM     28 CL   UNL d   1      -4.463   2.878  -0.143  0.00  0.00    -0.082 Cl
ENDBRANCH  18  20
ENDBRANCH   1  18
TORSDOF 6
