REMARK  6 active torsions:
REMARK  status: ('A' for Active; 'I' for Inactive)
REMARK    1  A    between atoms: C_7  and  C_1 
REMARK    2  A    between atoms: O_4  and  C_5 
REMARK    3  A    between atoms: C_8  and  O_4 
REMARK    4  A    between atoms: C_6  and  C_9 
REMARK    5  A    between atoms: C_9  and  C_7 
REMARK    6  A    between atoms: C_14  and  C_8 
ROOT
ATOM      1  C   UNL d   1      -1.586   6.320   3.580  0.00  0.00     0.069 A 
ATOM      2  C   UNL d   1      -1.361   4.165   1.773  0.00  0.00    -0.058 A 
ATOM      3  C   UNL d   1      -0.523   6.264   2.681  0.00  0.00     0.037 A 
ATOM      4  C   UNL d   1      -2.480   5.252   3.639  0.00  0.00     0.037 A 
ATOM      5  C   UNL d   1      -2.368   4.186   2.746  0.00  0.00     0.010 A 
ATOM      6  C   UNL d   1      -0.413   5.197   1.780  0.00  0.00     0.010 A 
ENDROOT
BRANCH   1   7
ATOM      7  O   UNL d   1      -1.665   7.451   4.351  0.00  0.00    -0.347 OA
BRANCH   7   8
ATOM      8  C   UNL d   1      -2.960   7.708   4.901  0.00  0.00     0.214 C 
BRANCH   8   9
ATOM      9  C   UNL d   1      -3.105   9.154   5.306  0.00  0.00    -0.034 A 
ATOM     10  C   UNL d   1      -2.770  10.184   4.415  0.00  0.00     0.009 A 
ATOM     11  C   UNL d   1      -3.010  11.516   4.750  0.00  0.00     0.001 A 
ATOM     12  C   UNL d   1      -3.595  11.833   5.976  0.00  0.00     0.000 A 
ATOM     13  C   UNL d   1      -3.931  10.817   6.870  0.00  0.00     0.001 A 
ATOM     14  C   UNL d   1      -3.691   9.485   6.536  0.00  0.00     0.009 A 
ENDBRANCH   8   9
ENDBRANCH   7   8
ENDBRANCH   1   7
BRANCH   2  15
ATOM     15  C   UNL d   1      -1.252   3.043   0.761  0.00  0.00     0.043 C 
BRANCH  15  16
ATOM     16  C   UNL d   1      -2.605   2.529   0.251  0.00  0.00     0.065 C 
BRANCH  16  17
ATOM     17  C   UNL d   1      -2.461   1.397  -0.760  0.00  0.00     0.260 C 
ATOM     18  O   UNL d   1      -1.792   1.841  -1.946  0.00  0.00    -0.359 OA
ATOM     19  C   UNL d   1      -2.778   1.760  -2.976  0.00  0.00     0.197 C 
ATOM     20  C   UNL d   1      -3.713   0.685  -2.496  0.00  0.00     0.197 C 
ATOM     21  O   UNL d   1      -3.771   0.912  -1.092  0.00  0.00    -0.359 OA
ENDBRANCH  16  17
ENDBRANCH  15  16
ENDBRANCH   2  15
TORSDOF 6
