REMARK  5 active torsions:
REMARK  status: ('A' for Active; 'I' for Inactive)
REMARK    1  A    between atoms: C_2  and  S_1 
REMARK    2  A    between atoms: N_3  and  S_1 
REMARK    3  A    between atoms: C_12  and  N_3 
REMARK    4  A    between atoms: C_6  and  C_7 
REMARK    5  A    between atoms: C_18  and  C_12 
ROOT
ATOM      1  C   UNL d   1       1.793   0.017  -1.329  0.00  0.00     0.123 A 
ATOM      2  C   UNL d   1       3.177  -0.137  -1.507  0.00  0.00     0.059 A 
ATOM      3  C   UNL d   1       0.984   0.009  -2.483  0.00  0.00     0.059 A 
ATOM      4  C   UNL d   1       2.915  -0.338  -3.938  0.00  0.00     0.051 A 
ATOM      5  C   UNL d   1       1.548  -0.140  -3.765  0.00  0.00     0.041 A 
ATOM      6  C   UNL d   1       3.721  -0.321  -2.798  0.00  0.00     0.041 A 
ATOM      7 CL   UNL d   1      -0.736   0.131  -2.522  0.00  0.00    -0.083 Cl
ATOM      8 CL   UNL d   1       4.375  -0.127  -0.259  0.00  0.00    -0.083 Cl
ENDROOT
BRANCH   1   9
ATOM      9  S   UNL d   1       1.025  -0.093   0.297  0.00  0.00     0.264 S 
ATOM     10  O   UNL d   1       2.052  -0.347   1.280  0.00  0.00    -0.200 OA
ATOM     11  O   UNL d   1      -0.049  -1.046   0.150  0.00  0.00    -0.200 OA
BRANCH   9  12
ATOM     12  N   UNL d   1       0.404   1.458   0.639  0.00  0.00    -0.307 N 
ATOM     13  C   UNL d   1       1.077   2.225   1.699  0.00  0.00     0.163 C 
BRANCH  12  14
ATOM     14  C   UNL d   1      -1.036   1.760   0.463  0.00  0.00     0.173 C 
BRANCH  14  15
ATOM     15  C   UNL d   1      -2.030   0.902   1.210  0.00  0.00    -0.040 A 
ATOM     16  C   UNL d   1      -2.017   0.810   2.609  0.00  0.00     0.009 A 
ATOM     17  C   UNL d   1      -2.954   0.017   3.278  0.00  0.00     0.001 A 
ATOM     18  C   UNL d   1      -3.917  -0.689   2.561  0.00  0.00     0.000 A 
ATOM     19  C   UNL d   1      -3.950  -0.600   1.173  0.00  0.00     0.001 A 
ATOM     20  C   UNL d   1      -3.018   0.195   0.504  0.00  0.00     0.009 A 
ENDBRANCH  14  15
ENDBRANCH  12  14
ENDBRANCH   9  12
ENDBRANCH   1   9
BRANCH   4  21
ATOM     21  C   UNL d   1       3.503  -0.601  -5.304  0.00  0.00     0.417 C 
ATOM     22  F   UNL d   1       2.578  -0.588  -6.302  0.00  0.00    -0.166 F 
ATOM     23  F   UNL d   1       4.443   0.319  -5.650  0.00  0.00    -0.166 F 
ATOM     24  F   UNL d   1       4.114  -1.814  -5.376  0.00  0.00    -0.166 F 
ENDBRANCH   4  21
TORSDOF 5
