REMARK  5 active torsions:
REMARK  status: ('A' for Active; 'I' for Inactive)
REMARK    1  A    between atoms: N_3  and  C_1 
REMARK    2  A    between atoms: C_6  and  N_3 
REMARK    3  A    between atoms: C_5  and  N_4 
REMARK    4  A    between atoms: C_10  and  C_5 
REMARK    5  A    between atoms: C_9  and  C_6 
ROOT
ATOM      1  C   UNL d   1       1.047  -0.039  -0.028  0.00  0.00     0.168 C 
ATOM      2  S   UNL d   1       0.207  -1.238   0.771  0.00  0.00    -0.041 SA
ATOM      3  N   UNL d   1       2.386   0.010   0.099  0.00  0.00    -0.363 N 
ATOM      4  H   UNL d   1       2.739  -0.737   0.687  0.00  0.00     0.162 HD
ENDROOT
BRANCH   1   5
ATOM      5  N   UNL d   1       0.361   0.848  -0.772  0.00  0.00    -0.363 N 
ATOM      6  H   UNL d   1      -0.644   0.728  -0.717  0.00  0.00     0.162 HD
BRANCH   5   7
ATOM      7  C   UNL d   1       0.835   1.605  -1.911  0.00  0.00     0.160 C 
BRANCH   7   8
ATOM      8  C   UNL d   1      -0.102   1.513  -3.086  0.00  0.00    -0.040 A 
ATOM      9  C   UNL d   1      -0.609   2.676  -3.684  0.00  0.00     0.012 A 
ATOM     10  C   UNL d   1      -1.397   2.587  -4.832  0.00  0.00     0.043 A 
ATOM     11  C   UNL d   1      -1.678   1.338  -5.378  0.00  0.00     0.116 A 
ATOM     12  C   UNL d   1      -1.195   0.175  -4.793  0.00  0.00     0.043 A 
ATOM     13  F   UNL d   1      -2.415   1.258  -6.491  0.00  0.00    -0.206 F 
ATOM     14  C   UNL d   1      -0.406   0.261  -3.647  0.00  0.00     0.012 A 
ENDBRANCH   7   8
ENDBRANCH   5   7
ENDBRANCH   1   5
BRANCH   3  15
ATOM     15  C   UNL d   1       3.287   1.147  -0.003  0.00  0.00     0.160 C 
BRANCH  15  16
ATOM     16  C   UNL d   1       3.544   1.802   1.332  0.00  0.00    -0.040 A 
ATOM     17  C   UNL d   1       4.860   2.070   1.738  0.00  0.00     0.012 A 
ATOM     18  C   UNL d   1       5.104   2.740   2.936  0.00  0.00     0.043 A 
ATOM     19  C   UNL d   1       4.036   3.145   3.727  0.00  0.00     0.116 A 
ATOM     20  C   UNL d   1       2.727   2.896   3.342  0.00  0.00     0.043 A 
ATOM     21  F   UNL d   1       4.275   3.797   4.874  0.00  0.00    -0.206 F 
ATOM     22  C   UNL d   1       2.479   2.232   2.143  0.00  0.00     0.012 A 
ENDBRANCH  15  16
ENDBRANCH   3  15
TORSDOF 5
