REMARK  5 active torsions:
REMARK  status: ('A' for Active; 'I' for Inactive)
REMARK    1  A    between atoms: N_11  and  C_3 
REMARK    2  A    between atoms: C_10  and  C_4 
REMARK    3  A    between atoms: C_15  and  C_24 
REMARK    4  A    between atoms: O_21  and  C_18 
REMARK    5  A    between atoms: C_24  and  O_21 
ROOT
ATOM      1  C   UNL d   1      -1.701  -0.358   0.198  0.00  0.00     0.080 A 
ATOM      2  C   UNL d   1       0.814  -0.406   0.098  0.00  0.00     0.031 A 
ATOM      3  C   UNL d   1      -1.628   0.986   0.078  0.00  0.00     0.138 A 
ATOM      4  C   UNL d   1      -0.450  -1.234   0.176  0.00  0.00     0.105 A 
ATOM      5  C   UNL d   1       0.781   0.933  -0.025  0.00  0.00     0.066 A 
ATOM      6  O   UNL d   1      -0.410   1.635  -0.074  0.00  0.00    -0.301 OA
ATOM      7  C   UNL d   1      -2.971  -1.004   0.334  0.00  0.00     0.100 C 
ATOM      8  C   UNL d   1       2.137  -1.093   0.169  0.00  0.00     0.159 C 
ATOM      9  N   UNL d   1      -4.009  -1.509   0.420  0.00  0.00    -0.191 NA
ATOM     10  O   UNL d   1       2.206  -2.301   0.379  0.00  0.00    -0.293 OA
ATOM     11  C   UNL d   1       1.998   1.812  -0.080  0.00  0.00     0.066 C 
ATOM     12  C   UNL d   1       3.388  -0.273  -0.070  0.00  0.00     0.084 C 
ATOM     13  C   UNL d   1       3.230   1.126   0.499  0.00  0.00     0.014 C 
ENDROOT
BRANCH   3  14
ATOM     14  N   UNL d   1      -2.692   1.856   0.080  0.00  0.00    -0.282 NA
ATOM     15  H   UNL d   1      -3.586   1.467  -0.216  0.00  0.00     0.126 HD
ATOM     16  H   UNL d   1      -2.471   2.743  -0.363  0.00  0.00     0.126 HD
ENDBRANCH   3  14
BRANCH   4  17
ATOM     17  C   UNL d   1      -0.539  -2.253  -0.959  0.00  0.00    -0.044 A 
ATOM     18  C   UNL d   1      -0.613  -3.630  -0.687  0.00  0.00     0.011 A 
ATOM     19  C   UNL d   1      -0.715  -4.557  -1.732  0.00  0.00     0.037 A 
ATOM     20  C   UNL d   1      -0.735  -4.115  -3.054  0.00  0.00     0.069 A 
ATOM     21  C   UNL d   1      -0.702  -2.745  -3.323  0.00  0.00     0.037 A 
ATOM     22  C   UNL d   1      -0.580  -1.824  -2.291  0.00  0.00     0.011 A 
BRANCH  20  23
ATOM     23  O   UNL d   1      -0.772  -5.083  -4.028  0.00  0.00    -0.348 OA
BRANCH  23  24
ATOM     24  C   UNL d   1      -0.259  -4.639  -5.286  0.00  0.00     0.202 C 
BRANCH  24  25
ATOM     25  C   UNL d   1       0.165  -5.821  -6.097  0.00  0.00    -0.011 C 
ATOM     26  C   UNL d   1       1.434  -6.020  -6.482  0.00  0.00     0.009 C 
ENDBRANCH  24  25
ENDBRANCH  23  24
ENDBRANCH  20  23
ENDBRANCH   4  17
TORSDOF 5
