REMARK  7 active torsions:
REMARK  status: ('A' for Active; 'I' for Inactive)
REMARK    1  A    between atoms: O_13  and  C_3 
REMARK    2  A    between atoms: S_11  and  C_4 
REMARK    3  A    between atoms: C_15  and  C_5 
REMARK    4  A    between atoms: C_17  and  C_8 
REMARK    5  A    between atoms: C_16  and  S_11 
REMARK    6  A    between atoms: C_12  and  C_15 
REMARK    7  A    between atoms: C_18  and  C_17 
ROOT
ATOM      1  C   UNL d   1       4.187  -3.723   1.021  0.00  0.00    -0.107 C 
ATOM      2  C   UNL d   1       4.803  -4.749   1.127  0.00  0.00     0.013 C 
ATOM      3  C   UNL d   1       3.406  -2.480   0.875  0.00  0.00     0.175 C 
ENDROOT
BRANCH   3   4
ATOM      4  S   UNL d   1       1.945  -2.777  -0.160  0.00  0.00    -0.082 SA
BRANCH   4   5
ATOM      5  C   UNL d   1       1.103  -1.227   0.013  0.00  0.00     0.147 A 
ATOM      6  N   UNL d   1      -0.233  -1.296   0.004  0.00  0.00    -0.317 N 
ATOM      7  C   UNL d   1      -0.867  -0.123   0.045  0.00  0.00     0.150 A 
ATOM      8  HN  UNL d   1      -0.732  -2.185  -0.033  1.00  0.00     0.170 HD
ATOM      9  C   UNL d   1      -0.279   1.123   0.088  0.00  0.00     0.019 A 
ATOM     10  C   UNL d   1       1.111   1.087   0.066  0.00  0.00     0.022 A 
ATOM     11  N   UNL d   1       1.807  -0.084   0.047  0.00  0.00    -0.340 N 
ATOM     12  HN  UNL d   1       2.827  -0.091   0.059  1.00  0.00     0.168 HD
BRANCH   7  13
ATOM     13  O   UNL d   1      -2.218  -0.263   0.024  0.00  0.00    -0.346 OA
ATOM     14  H   UNL d   1      -2.293  -1.232  -0.056  0.00  0.00     0.219 HD
ENDBRANCH   7  13
BRANCH   9  15
ATOM     15  C   UNL d   1      -1.112   2.372   0.140  0.00  0.00     0.071 C 
BRANCH  15  16
ATOM     16  C   UNL d   1      -1.531   2.997  -1.166  0.00  0.00    -0.032 C 
ATOM     17  C   UNL d   1      -1.258   2.593  -2.414  0.00  0.00     0.007 C 
ENDBRANCH  15  16
ENDBRANCH   9  15
BRANCH  10  18
ATOM     18  C   UNL d   1       1.957   2.338   0.014  0.00  0.00     0.057 C 
BRANCH  18  19
ATOM     19  C   UNL d   1       2.283   2.963   1.373  0.00  0.00     0.002 C 
ATOM     20  C   UNL d   1       3.149   2.082   2.262  0.00  0.00     0.005 C 
ENDBRANCH  18  19
ENDBRANCH  10  18
ENDBRANCH   4   5
ENDBRANCH   3   4
TORSDOF 7
