REMARK  3 active torsions:
REMARK  status: ('A' for Active; 'I' for Inactive)
REMARK       I    between atoms: N_2  and  C_1 
REMARK       I    between atoms: N_6  and  C_1 
REMARK    1  A    between atoms: C_5  and  N_4 
REMARK    2  A    between atoms: C_8  and  N_6 
REMARK    3  A    between atoms: O_24  and  C_18 
ROOT
ATOM      1  C   UNL d   1       1.188   0.159  -0.705  0.00  0.00     0.323 C 
ATOM      2  N   UNL d   1       0.541  -0.972  -1.172  0.00  0.00    -0.331 N 
ATOM      3  N   UNL d   1      -0.371  -3.328  -2.474  0.00  0.00    -0.377 N 
ATOM      4  N   UNL d   1       0.461   1.316  -0.832  0.00  0.00    -0.306 N 
ATOM      5  O   UNL d   1       2.301   0.103  -0.188  0.00  0.00    -0.247 OA
ATOM      6  C   UNL d   1       1.070  -2.292  -0.791  0.00  0.00     0.147 C 
ATOM      7  C   UNL d   1      -0.753  -0.987  -1.879  0.00  0.00     0.147 C 
ATOM      8  C   UNL d   1       1.014  -3.299  -1.956  0.00  0.00     0.143 C 
ATOM      9  C   UNL d   1      -0.783  -2.022  -3.016  0.00  0.00     0.143 C 
ATOM     10  H   UNL d   1      -0.538   1.209  -0.763  0.00  0.00     0.171 HD
ENDROOT
BRANCH   4  11
ATOM     11  C   UNL d   1       0.931   2.588  -0.460  0.00  0.00     0.069 A 
ATOM     12  C   UNL d   1       0.059   3.479   0.185  0.00  0.00     0.095 A 
ATOM     13  C   UNL d   1       0.459   4.797   0.416  0.00  0.00     0.039 A 
ATOM     14  C   UNL d   1       1.734   5.218   0.036  0.00  0.00     0.003 A 
ATOM     15  C   UNL d   1       2.615   4.322  -0.571  0.00  0.00     0.002 A 
ATOM     16  C   UNL d   1       2.217   3.007  -0.812  0.00  0.00     0.032 A 
BRANCH  12  17
ATOM     17  O   UNL d   1      -1.213   3.143   0.582  0.00  0.00    -0.354 OA
ATOM     18  C   UNL d   1      -1.261   2.034   1.486  0.00  0.00     0.210 C 
ENDBRANCH  12  17
ENDBRANCH   4  11
BRANCH   3  19
ATOM     19  C   UNL d   1      -0.862  -4.505  -3.038  0.00  0.00     0.044 A 
ATOM     20  C   UNL d   1      -1.046  -5.686  -2.255  0.00  0.00     0.017 A 
ATOM     21  C   UNL d   1      -1.616  -6.818  -2.887  0.00  0.00     0.046 A 
ATOM     22  C   UNL d   1      -0.744  -5.781  -0.874  0.00  0.00     0.018 A 
ATOM     23  C   UNL d   1      -1.816  -7.983  -2.154  0.00  0.00     0.054 A 
ATOM     24  N   UNL d   1      -2.002  -6.824  -4.168  0.00  0.00    -0.365 N 
ATOM     25  C   UNL d   1      -1.468  -8.062  -0.812  0.00  0.00     0.036 A 
ATOM     26  C   UNL d   1      -0.930  -6.965  -0.159  0.00  0.00     0.025 A 
ATOM     27 CL   UNL d   1      -1.720  -9.527   0.055  0.00  0.00    -0.084 Cl
ATOM     28  C   UNL d   1      -1.831  -5.699  -4.882  0.00  0.00     0.090 A 
ATOM     29  HN  UNL d   1      -2.412  -7.658  -4.590  1.00  0.00     0.165 HD
ATOM     30  C   UNL d   1      -1.270  -4.543  -4.375  0.00  0.00     0.047 A 
ENDBRANCH   3  19
TORSDOF 3
