REMARK  5 active torsions:
REMARK  status: ('A' for Active; 'I' for Inactive)
REMARK    1  A    between atoms: C_5  and  C_1 
REMARK    2  A    between atoms: N_14  and  C_2 
REMARK    3  A    between atoms: C_7  and  C_20 
REMARK       I    between atoms: C_15  and  N_14 
REMARK    4  A    between atoms: O_22  and  C_15 
REMARK    5  A    between atoms: N_16  and  O_22 
ROOT
ATOM      1  N   UNL d   1       1.102  -2.469   0.329  0.00  0.00    -0.297 N 
ATOM      2  C   UNL d   1       1.551  -3.280  -0.688  0.00  0.00     0.387 C 
ATOM      3  O   UNL d   1       1.582  -2.986  -1.876  0.00  0.00    -0.236 OA
ATOM      4  H   UNL d   1       1.565  -2.666   1.207  0.00  0.00     0.171 HD
ENDROOT
BRANCH   1   5
ATOM      5  C   UNL d   1       0.590  -1.188   0.163  0.00  0.00     0.098 A 
ATOM      6  C   UNL d   1       0.994   0.052   0.785  0.00  0.00     0.098 A 
ATOM      7  N   UNL d   1       0.081   1.001   0.518  0.00  0.00    -0.258 N 
ATOM      8  O   UNL d   1      -0.832   0.455  -0.342  0.00  0.00    -0.240 OA
ATOM      9  HN  UNL d   1       0.071   1.952   0.887  1.00  0.00     0.195 HD
ATOM     10  C   UNL d   1      -0.549  -0.854  -0.551  0.00  0.00     0.101 A 
ATOM     11  C   UNL d   1      -1.566  -1.571  -1.339  0.00  0.00     0.081 C 
BRANCH   6  12
ATOM     12  C   UNL d   1       2.200   0.413   1.565  0.00  0.00     0.038 A 
ATOM     13  C   UNL d   1       2.867   1.647   1.338  0.00  0.00     0.048 A 
ATOM     14 CL   UNL d   1       2.406   2.804   0.124  0.00  0.00    -0.083 Cl
ATOM     15  C   UNL d   1       4.002   2.019   2.079  0.00  0.00     0.025 A 
ATOM     16  C   UNL d   1       4.532   1.164   3.033  0.00  0.00     0.003 A 
ATOM     17  C   UNL d   1       3.907  -0.053   3.270  0.00  0.00     0.025 A 
ATOM     18  C   UNL d   1       2.740  -0.415   2.571  0.00  0.00     0.048 A 
ATOM     19 CL   UNL d   1       2.010  -1.889   3.115  0.00  0.00    -0.083 Cl
ENDBRANCH   6  12
ENDBRANCH   1   5
BRANCH   2  20
ATOM     20  O   UNL d   1       2.014  -4.465  -0.151  0.00  0.00    -0.181 OA
BRANCH  20  21
ATOM     21  N   UNL d   1       3.341  -4.724  -0.589  0.00  0.00    -0.267 N 
ATOM     22  C   UNL d   1       3.767  -5.833  -0.060  0.00  0.00     0.127 C 
ATOM     23  HN  UNL d   1       3.878  -4.130  -1.222  1.00  0.00     0.194 HD
BRANCH  22  24
ATOM     24  C   UNL d   1       5.204  -6.252  -0.105  0.00  0.00    -0.006 A 
ATOM     25  C   UNL d   1       6.209  -5.291   0.181  0.00  0.00    -0.043 A 
ATOM     26  C   UNL d   1       7.577  -5.673   0.120  0.00  0.00    -0.049 A 
ATOM     27  C   UNL d   1       5.869  -3.872   0.576  0.00  0.00     0.049 C 
ATOM     28  C   UNL d   1       8.682  -4.652   0.298  0.00  0.00     0.049 C 
ATOM     29  C   UNL d   1       7.929  -7.028  -0.101  0.00  0.00    -0.049 A 
ATOM     30  C   UNL d   1       6.920  -8.005  -0.300  0.00  0.00    -0.049 A 
ATOM     31  C   UNL d   1       9.402  -7.401  -0.104  0.00  0.00     0.049 C 
ATOM     32  C   UNL d   1       5.551  -7.609  -0.336  0.00  0.00    -0.043 A 
ATOM     33  C   UNL d   1       7.333  -9.452  -0.481  0.00  0.00     0.049 C 
ATOM     34  C   UNL d   1       4.498  -8.659  -0.627  0.00  0.00     0.049 C 
ENDBRANCH  22  24
ENDBRANCH  20  21
ENDBRANCH   2  20
TORSDOF 5
