REMARK  3 active torsions:
REMARK  status: ('A' for Active; 'I' for Inactive)
REMARK    1  A    between atoms: C_2  and  C_1 
REMARK       I    between atoms: N_3  and  C_1 
REMARK       I    between atoms: C_4  and  N_3 
REMARK       I    between atoms: N_7  and  C_4 
REMARK    2  A    between atoms: N_6  and  C_5 
REMARK    3  A    between atoms: C_10  and  N_7 
ROOT
ATOM      1  C   UNL d   1       0.886  -0.416   0.372  0.00  0.00     0.241 C 
ATOM      2  N   UNL d   1       1.341  -1.601  -0.161  0.00  0.00    -0.175 NA
ATOM      3  C   UNL d   1       0.843  -2.821   0.225  0.00  0.00     0.305 C 
ATOM      4  N   UNL d   1       0.915  -3.099   1.568  0.00  0.00    -0.313 N 
ATOM      5  O   UNL d   1       0.891  -0.175   1.574  0.00  0.00    -0.273 OA
ATOM      6  O   UNL d   1       0.410  -3.551  -0.661  0.00  0.00    -0.253 OA
ATOM      7  H   UNL d   1       1.310  -1.581  -1.181  0.00  0.00     0.141 HD
ATOM      8  H   UNL d   1       1.184  -2.316   2.160  0.00  0.00     0.170 HD
ENDROOT
BRANCH   1   9
ATOM      9  C   UNL d   1       0.392   0.595  -0.634  0.00  0.00     0.053 A 
ATOM     10  C   UNL d   1       0.834   0.650  -1.986  0.00  0.00     0.045 A 
ATOM     11  C   UNL d   1       0.078   1.450  -2.867  0.00  0.00     0.030 A 
ATOM     12  C   UNL d   1      -1.032   2.187  -2.438  0.00  0.00     0.002 A 
ATOM     13  C   UNL d   1      -1.404   2.172  -1.102  0.00  0.00     0.001 A 
ATOM     14  C   UNL d   1      -0.690   1.382  -0.198  0.00  0.00     0.019 A 
BRANCH  10  15
ATOM     15  N   UNL d   1       1.937  -0.079  -2.451  0.00  0.00    -0.380 N 
ATOM     16  C   UNL d   1       3.249   0.165  -1.812  0.00  0.00     0.123 C 
ATOM     17  C   UNL d   1       4.213   0.927  -2.723  0.00  0.00     0.020 C 
ATOM     18  C   UNL d   1       4.293   0.315  -4.117  0.00  0.00     0.003 C 
ATOM     19  C   UNL d   1       2.899   0.226  -4.725  0.00  0.00     0.020 C 
ATOM     20  C   UNL d   1       1.976  -0.596  -3.829  0.00  0.00     0.123 C 
ENDBRANCH  10  15
ENDBRANCH   1   9
BRANCH   4  21
ATOM     21  C   UNL d   1       0.606  -4.335   2.189  0.00  0.00     0.035 A 
ATOM     22  C   UNL d   1       0.206  -5.473   1.476  0.00  0.00     0.031 A 
ATOM     23  C   UNL d   1      -0.099  -6.671   2.129  0.00  0.00     0.021 A 
ATOM     24  C   UNL d   1       0.000  -6.751   3.512  0.00  0.00     0.011 A 
ATOM     25  C   UNL d   1       0.415  -5.639   4.243  0.00  0.00     0.021 A 
ATOM     26 BR   UNL d   1      -0.433  -8.363   4.393  0.00  0.00    -0.051 Br
ATOM     27  C   UNL d   1       0.716  -4.438   3.582  0.00  0.00     0.031 A 
ENDBRANCH   4  21
TORSDOF 3
