REMARK  2 active torsions:
REMARK  status: ('A' for Active; 'I' for Inactive)
REMARK    1  A    between atoms: C_5  and  C_2 
REMARK    2  A    between atoms: O_16  and  C_11 
ROOT
ATOM      1  N   UNL d   1       0.919   0.508  -0.050  0.00  0.00    -0.322 N 
ATOM      2  C   UNL d   1       1.085  -1.953  -0.257  0.00  0.00     0.147 C 
ATOM      3  C   UNL d   1       1.726  -0.608  -0.115  0.00  0.00     0.039 A 
ATOM      4  N   UNL d   1      -0.298  -1.998   0.265  0.00  0.00    -0.277 NA
ATOM      5  C   UNL d   1      -0.493   0.435  -0.056  0.00  0.00     0.060 A 
ATOM      6  C   UNL d   1      -1.072  -0.843   0.045  0.00  0.00     0.036 A 
ATOM      7  C   UNL d   1       1.724   1.623   0.015  0.00  0.00     0.097 A 
ATOM      8  C   UNL d   1       3.044  -0.193  -0.073  0.00  0.00     0.029 A 
ATOM      9  C   UNL d   1       3.041   1.216   0.016  0.00  0.00     0.020 A 
ATOM     10  C   UNL d   1      -1.288   1.584  -0.147  0.00  0.00     0.032 A 
ATOM     11  C   UNL d   1      -2.467  -0.934   0.124  0.00  0.00     0.026 A 
ATOM     12  C   UNL d   1      -2.677   1.463  -0.116  0.00  0.00     0.002 A 
ATOM     13  C   UNL d   1      -3.265   0.208   0.027  0.00  0.00     0.002 A 
ATOM     14  H   UNL d   1      -0.778  -2.841  -0.048  0.00  0.00     0.129 HD
ENDROOT
BRANCH   2  15
ATOM     15  C   UNL d   1       1.899  -3.064   0.411  0.00  0.00     0.010 A 
ATOM     16  C   UNL d   1       2.888  -3.808  -0.318  0.00  0.00    -0.015 A 
ATOM     17  C   UNL d   1       3.651  -4.791   0.372  0.00  0.00    -0.025 A 
ATOM     18  C   UNL d   1       3.181  -3.631  -1.695  0.00  0.00     0.013 A 
ATOM     19  C   UNL d   1       4.626  -5.543  -0.304  0.00  0.00     0.012 A 
ATOM     20  C   UNL d   1       3.445  -5.017   1.738  0.00  0.00     0.015 A 
ATOM     21  C   UNL d   1       4.875  -5.348  -1.659  0.00  0.00     0.001 A 
ATOM     22  C   UNL d   1       4.154  -4.390  -2.355  0.00  0.00     0.001 A 
ATOM     23  C   UNL d   1       2.496  -4.290   2.444  0.00  0.00     0.038 A 
ATOM     24  C   UNL d   1       1.737  -3.332   1.788  0.00  0.00     0.074 A 
BRANCH  24  25
ATOM     25  O   UNL d   1       0.818  -2.679   2.567  0.00  0.00    -0.360 OA
ATOM     26  H   UNL d   1       0.234  -2.169   1.963  0.00  0.00     0.217 HD
ENDBRANCH  24  25
ENDBRANCH   2  15
TORSDOF 2
