REMARK  3 active torsions:
REMARK  status: ('A' for Active; 'I' for Inactive)
REMARK    1  A    between atoms: C_12  and  N_1 
REMARK    2  A    between atoms: N_6  and  C_8 
REMARK    3  A    between atoms: C_18  and  C_12 
ROOT
ATOM      1  N   UNL d   1       2.260  -0.118   0.162  0.00  0.00    -0.276 N 
ATOM      2  C   UNL d   1       1.681   1.148   0.100  0.00  0.00     0.262 A 
ATOM      3  C   UNL d   1       1.548  -1.317   0.176  0.00  0.00     0.261 A 
ATOM      4  C   UNL d   1       0.204   1.214   0.017  0.00  0.00     0.047 A 
ATOM      5  C   UNL d   1       0.070  -1.223   0.095  0.00  0.00     0.044 A 
ATOM      6  C   UNL d   1      -0.545   0.033   0.029  0.00  0.00     0.006 A 
ATOM      7  C   UNL d   1      -1.819   2.533  -0.089  0.00  0.00     0.104 A 
ATOM      8  C   UNL d   1      -0.425   2.467  -0.048  0.00  0.00     0.054 A 
ATOM      9  C   UNL d   1      -1.961   0.109  -0.015  0.00  0.00    -0.021 A 
ATOM     10  C   UNL d   1      -2.589   1.363  -0.071  0.00  0.00     0.048 A 
ATOM     11  O   UNL d   1       2.068  -2.425   0.277  0.00  0.00    -0.267 OA
ATOM     12  O   UNL d   1       2.312   2.201   0.139  0.00  0.00    -0.267 OA
ATOM     13  C   UNL d   1      -0.699  -2.394   0.106  0.00  0.00     0.018 A 
ATOM     14  C   UNL d   1      -2.716  -1.074   0.004  0.00  0.00     0.012 A 
ATOM     15  C   UNL d   1      -2.089  -2.318   0.061  0.00  0.00     0.002 A 
ENDROOT
BRANCH   1  16
ATOM     16  C   UNL d   1       3.713  -0.188   0.291  0.00  0.00     0.174 C 
BRANCH  16  17
ATOM     17  C   UNL d   1       4.423  -0.179  -1.045  0.00  0.00    -0.040 A 
ATOM     18  C   UNL d   1       4.802   1.032  -1.644  0.00  0.00     0.009 A 
ATOM     19  C   UNL d   1       5.447   1.044  -2.881  0.00  0.00     0.001 A 
ATOM     20  C   UNL d   1       5.723  -0.155  -3.534  0.00  0.00     0.000 A 
ATOM     21  C   UNL d   1       5.358  -1.366  -2.948  0.00  0.00     0.001 A 
ATOM     22  C   UNL d   1       4.707  -1.379  -1.712  0.00  0.00     0.009 A 
ENDBRANCH  16  17
ENDBRANCH   1  16
BRANCH   7  23
ATOM     23  N   UNL d   1      -2.486   3.841  -0.145  0.00  0.00    -0.116 N 
ATOM     24  O   UNL d   1      -1.771   4.852  -0.171  0.00  0.00    -0.532 OA
ATOM     25  O   UNL d   1      -3.724   3.854  -0.163  0.00  0.00    -0.532 OA
ENDBRANCH   7  23
TORSDOF 3
