REMARK  5 active torsions:
REMARK  status: ('A' for Active; 'I' for Inactive)
REMARK    1  A    between atoms: C_3  and  N_1 
REMARK    2  A    between atoms: S_12  and  C_3 
REMARK    3  A    between atoms: N_4  and  N_6 
REMARK    4  A    between atoms: N_11  and  C_8 
REMARK    5  A    between atoms: C_10  and  C_9 
ROOT
ATOM      1  N   UNL d   1       2.338   1.432   1.816  0.00  0.00    -0.302 N 
ATOM      2  HN  UNL d   1       1.320   1.483   1.807  1.00  0.00     0.186 HD
ATOM      3  C   UNL d   1       3.066   2.074   2.686  0.00  0.00     0.032 C 
ATOM      4  C   UNL d   1       4.583   2.009   2.726  0.00  0.00     0.070 C 
ENDROOT
BRANCH   1   5
ATOM      5  N   UNL d   1       3.061   0.668   0.895  0.00  0.00    -0.280 N 
ATOM      6  C   UNL d   1       2.373   0.003   0.011  0.00  0.00     0.159 C 
ATOM      7  HN  UNL d   1       4.081   0.633   0.915  1.00  0.00     0.189 HD
BRANCH   6   8
ATOM      8  N   UNL d   1       3.003  -0.768  -0.939  0.00  0.00    -0.332 N 
ATOM      9  C   UNL d   1       4.289  -0.839  -0.960  0.00  0.00     0.179 C 
ATOM     10  HN  UNL d   1       2.452  -1.283  -1.626  1.00  0.00     0.168 HD
BRANCH   9  11
ATOM     11  N   UNL d   1       5.020  -1.575  -1.866  0.00  0.00    -0.386 N 
ATOM     12  C   UNL d   1       4.380  -2.366  -2.907  0.00  0.00     0.149 C 
ATOM     13  C   UNL d   1       6.470  -1.637  -1.827  0.00  0.00     0.149 C 
ENDBRANCH   9  11
ENDBRANCH   6   8
BRANCH   6  14
ATOM     14  S   UNL d   1       0.603   0.018  -0.068  0.00  0.00    -0.097 SA
ATOM     15  C   UNL d   1       0.317  -1.083  -1.472  0.00  0.00     0.099 C 
ENDBRANCH   6  14
ENDBRANCH   1   5
BRANCH   3  16
ATOM     16  C   UNL d   1       2.385   2.945   3.709  0.00  0.00    -0.013 A 
ATOM     17  C   UNL d   1       0.983   3.025   3.735  0.00  0.00     0.015 A 
ATOM     18  C   UNL d   1       0.329   3.843   4.663  0.00  0.00     0.020 A 
ATOM     19  C   UNL d   1       1.074   4.587   5.575  0.00  0.00     0.011 A 
ATOM     20  C   UNL d   1       2.466   4.516   5.570  0.00  0.00     0.020 A 
ATOM     21 BR   UNL d   1       0.198   5.706   6.821  0.00  0.00    -0.051 Br
ATOM     22  C   UNL d   1       3.117   3.698   4.642  0.00  0.00     0.015 A 
ENDBRANCH   3  16
TORSDOF 5
