REMARK  4 active torsions:
REMARK  status: ('A' for Active; 'I' for Inactive)
REMARK    1  A    between atoms: C_2  and  N_1 
REMARK    2  A    between atoms: C_9  and  C_4 
REMARK    3  A    between atoms: O_22  and  C_9 
REMARK    4  A    between atoms: C_25  and  O_22 
ROOT
ATOM      1  C   UNL d   1       1.275   2.182  -1.045  0.00  0.00     0.060 A 
ATOM      2  C   UNL d   1       1.516   3.523  -0.553  0.00  0.00     0.021 A 
ATOM      3  C   UNL d   1       1.699   1.921  -2.371  0.00  0.00     0.082 A 
ATOM      4  C   UNL d   1       2.161   4.453  -1.418  0.00  0.00     0.046 A 
ATOM      5  C   UNL d   1       1.159   4.019   0.729  0.00  0.00     0.060 A 
ATOM      6  N   UNL d   1       2.635   4.133  -2.621  0.00  0.00    -0.364 N 
ATOM      7  HN  UNL d   1       3.162   4.807  -3.177  1.00  0.00     0.165 HD
ATOM      8  C   UNL d   1       2.395   2.891  -3.079  0.00  0.00     0.108 A 
ATOM      9  C   UNL d   1       2.307   5.784  -1.049  0.00  0.00     0.057 A 
ATOM     10  C   UNL d   1       1.272   5.367   1.062  0.00  0.00     0.139 A 
ATOM     11  C   UNL d   1       1.832   6.257   0.167  0.00  0.00     0.074 A 
ATOM     12  F   UNL d   1       0.809   5.780   2.250  0.00  0.00    -0.204 F 
ATOM     13 CL   UNL d   1       1.947   7.932   0.539  0.00  0.00    -0.081 Cl
ENDROOT
BRANCH   1  14
ATOM     14  N   UNL d   1       0.624   1.207  -0.287  0.00  0.00    -0.374 N 
ATOM     15  C   UNL d   1       1.066  -0.208  -0.241  0.00  0.00     0.154 C 
ATOM     16  C   UNL d   1      -0.142  -1.162  -0.429  0.00  0.00     0.136 C 
ATOM     17  C   UNL d   1       0.264  -2.622  -0.297  0.00  0.00     0.041 C 
ATOM     18  O   UNL d   1      -1.160  -0.888   0.554  0.00  0.00    -0.378 OA
ATOM     19  C   UNL d   1      -1.651   0.454   0.379  0.00  0.00     0.136 C 
ATOM     20  C   UNL d   1      -0.525   1.485   0.589  0.00  0.00     0.154 C 
ATOM     21  C   UNL d   1      -2.765   0.685   1.391  0.00  0.00     0.041 C 
ENDBRANCH   1  14
BRANCH   3  22
ATOM     22  C   UNL d   1       1.230   0.770  -3.164  0.00  0.00     0.297 C 
ATOM     23  O   UNL d   1       0.075   0.369  -3.156  0.00  0.00    -0.259 OA
BRANCH  22  24
ATOM     24  O   UNL d   1       2.239   0.249  -3.906  0.00  0.00    -0.318 OA
BRANCH  24  25
ATOM     25  C   UNL d   1       1.881  -0.912  -4.678  0.00  0.00     0.174 C 
ATOM     26  C   UNL d   1       1.025  -0.558  -5.884  0.00  0.00     0.034 C 
ENDBRANCH  24  25
ENDBRANCH  22  24
ENDBRANCH   3  22
TORSDOF 4
