REMARK  2 active torsions:
REMARK  status: ('A' for Active; 'I' for Inactive)
REMARK    1  A    between atoms: C_3  and  C_1 
REMARK    2  A    between atoms: N_9  and  C_2 
REMARK       I    between atoms: N_8  and  C_3 
ROOT
ATOM      1  C   UNL d   1      -0.237   1.052  -0.067  0.00  0.00     0.098 A 
ATOM      2  C   UNL d   1      -1.156   0.020  -0.024  0.00  0.00     0.049 A 
ATOM      3  S   UNL d   1       1.370   0.432  -0.045  0.00  0.00    -0.094 SA
ATOM      4  C   UNL d   1      -0.551  -1.263   0.033  0.00  0.00     0.037 A 
ATOM      5  C   UNL d   1       0.823  -1.185   0.027  0.00  0.00     0.053 A 
ENDROOT
BRANCH   1   6
ATOM      6  C   UNL d   1      -0.496   2.484  -0.123  0.00  0.00     0.258 C 
ATOM      7  O   UNL d   1      -1.616   2.993  -0.087  0.00  0.00    -0.267 OA
ATOM      8  N   UNL d   1       0.593   3.308  -0.234  0.00  0.00    -0.365 N 
ATOM      9  H   UNL d   1       1.530   2.940  -0.303  0.00  0.00     0.159 HD
ATOM     10  H   UNL d   1       0.433   4.303  -0.295  0.00  0.00     0.159 HD
ENDBRANCH   1   6
BRANCH   2  11
ATOM     11  N   UNL d   1      -2.492   0.187  -0.037  0.00  0.00    -0.398 N 
ATOM     12  H   UNL d   1      -2.907   1.119  -0.100  0.00  0.00     0.156 HD
ATOM     13  H   UNL d   1      -3.159  -0.576  -0.049  0.00  0.00     0.156 HD
ENDBRANCH   2  11
TORSDOF 2
