REMARK  3 active torsions:
REMARK  status: ('A' for Active; 'I' for Inactive)
REMARK    1  A    between atoms: N_10  and  C_3 
REMARK    2  A    between atoms: N_14  and  C_6 
REMARK    3  A    between atoms: C_9  and  N_10 
ROOT
ATOM      1  N   UNL d   1      -1.202  -0.223  -2.133  0.00  0.00    -0.166 N 
ATOM      2  HN  UNL d   1      -1.298  -1.238  -2.124  1.00  0.00     0.187 HD
ATOM      3  C   UNL d   1      -1.606   0.533  -1.114  0.00  0.00     0.685 A 
ATOM      4  N   UNL d   1      -1.447   1.852  -1.056  0.00  0.00    -0.188 N 
ATOM      5  HN  UNL d   1      -1.738   2.409  -0.252  1.00  0.00     0.185 HD
ATOM      6  C   UNL d   1      -0.670   0.423  -3.157  0.00  0.00     0.170 A 
ATOM      7  N   UNL d   1      -0.490   1.730  -3.221  0.00  0.00    -0.328 N 
ATOM      8  HN  UNL d   1      -0.089   2.196  -4.035  1.00  0.00     0.169 HD
ATOM      9  C   UNL d   1      -0.879   2.385  -2.133  0.00  0.00     0.200 A 
ENDROOT
BRANCH   3  10
ATOM     10  N   UNL d   1      -2.256  -0.056  -0.021  0.00  0.00    -0.189 N 
ATOM     11  H   UNL d   1      -2.698   0.690   0.502  0.00  0.00     0.184 HD
BRANCH  10  12
ATOM     12  C   UNL d   1      -3.016  -1.249  -0.046  0.00  0.00     0.076 A 
ATOM     13  C   UNL d   1      -3.970  -1.546  -1.048  0.00  0.00     0.061 A 
ATOM     14 CL   UNL d   1      -4.411  -0.419  -2.292  0.00  0.00    -0.082 Cl
ATOM     15  C   UNL d   1      -4.670  -2.757  -1.041  0.00  0.00     0.026 A 
ATOM     16  C   UNL d   1      -4.478  -3.670  -0.011  0.00  0.00     0.002 A 
ATOM     17  C   UNL d   1      -3.616  -3.355   1.035  0.00  0.00     0.009 A 
ATOM     18  C   UNL d   1      -2.904  -2.142   1.046  0.00  0.00    -0.033 A 
ATOM     19  C   UNL d   1      -1.996  -1.881   2.221  0.00  0.00     0.050 C 
ENDBRANCH  10  12
ENDBRANCH   3  10
BRANCH   6  20
ATOM     20  N   UNL d   1      -0.351  -0.323  -4.277  0.00  0.00    -0.273 NA
ATOM     21  H   UNL d   1      -0.902  -1.171  -4.273  0.00  0.00     0.127 HD
ATOM     22  H   UNL d   1      -0.419   0.258  -5.101  0.00  0.00     0.127 HD
ENDBRANCH   6  20
TORSDOF 3
