REMARK  3 active torsions:
REMARK  status: ('A' for Active; 'I' for Inactive)
REMARK    1  A    between atoms: S_12  and  C_3 
REMARK    2  A    between atoms: C_13  and  N_8 
REMARK    3  A    between atoms: C_9  and  C_13 
ROOT
ATOM      1  S   UNL d   1      -1.453   0.494   0.337  0.00  0.00    -0.027 SA
ATOM      2  C   UNL d   1       0.092   1.160  -0.038  0.00  0.00     0.161 A 
ATOM      3  C   UNL d   1      -0.726  -1.054   0.266  0.00  0.00     0.129 A 
ATOM      4  N   UNL d   1       1.027   0.245  -0.192  0.00  0.00    -0.279 N 
ATOM      5  HN  UNL d   1       1.998   0.464  -0.414  1.00  0.00     0.189 HD
ATOM      6  N   UNL d   1       0.556  -1.038  -0.020  0.00  0.00    -0.286 N 
ATOM      7  HN  UNL d   1       1.133  -1.875  -0.104  1.00  0.00     0.188 HD
ATOM      8  N   UNL d   1       0.258   2.497  -0.155  0.00  0.00    -0.369 N 
ATOM      9  H   UNL d   1      -0.486   3.099   0.173  0.00  0.00     0.161 HD
ENDROOT
BRANCH   8  10
ATOM     10  C   UNL d   1       1.595   3.045  -0.062  0.00  0.00     0.126 C 
BRANCH  10  11
ATOM     11  C   UNL d   1       1.651   4.321  -0.848  0.00  0.00     0.003 A 
ATOM     12  C   UNL d   1       1.513   4.301  -2.351  0.00  0.00     0.007 A 
ATOM     13  C   UNL d   1       2.843   4.616  -1.727  0.00  0.00     0.007 A 
ENDBRANCH  10  11
ENDBRANCH   8  10
BRANCH   3  14
ATOM     14  S   UNL d   1      -1.608  -2.535   0.559  0.00  0.00    -0.108 SA
ATOM     15  C   UNL d   1      -0.320  -3.756   0.217  0.00  0.00     0.097 C 
ENDBRANCH   3  14
TORSDOF 3
