REMARK  5 active torsions:
REMARK  status: ('A' for Active; 'I' for Inactive)
REMARK    1  A    between atoms: C_11  and  C_3 
REMARK    2  A    between atoms: C_10  and  C_7 
REMARK    3  A    between atoms: O_9  and  C_8 
REMARK    4  A    between atoms: C_17  and  O_9 
REMARK    5  A    between atoms: O_18  and  C_13 
ROOT
ATOM      1  C   UNL d   1      -2.993  -3.269  -1.067  0.00  0.00     0.103 A 
ATOM      2  C   UNL d   1      -0.912  -2.865   0.140  0.00  0.00    -0.031 A 
ATOM      3  C   UNL d   1      -1.719  -2.689  -0.989  0.00  0.00     0.051 A 
ATOM      4  C   UNL d   1      -3.425  -4.101  -0.018  0.00  0.00     0.101 A 
ATOM      5  C   UNL d   1      -2.603  -4.285   1.103  0.00  0.00     0.040 A 
ATOM      6  C   UNL d   1      -1.356  -3.668   1.188  0.00  0.00     0.014 A 
ENDROOT
BRANCH   2   7
ATOM      7  C   UNL d   1       0.374  -2.178   0.237  0.00  0.00     0.047 C 
ATOM      8  C   UNL d   1       1.531  -2.620  -0.264  0.00  0.00     0.111 A 
ATOM      9  N   UNL d   1       2.723  -1.955  -0.102  0.00  0.00    -0.331 N 
ATOM     10  C   UNL d   1       1.754  -3.888  -1.013  0.00  0.00     0.316 A 
ATOM     11  C   UNL d   1       3.572  -2.752  -0.656  0.00  0.00     0.162 A 
ATOM     12  HN  UNL d   1       2.894  -1.054   0.345  1.00  0.00     0.168 HD
ATOM     13  O   UNL d   1       3.098  -3.893  -1.214  0.00  0.00    -0.256 OA
ATOM     14  O   UNL d   1       0.967  -4.737  -1.381  0.00  0.00    -0.257 OA
BRANCH  11  15
ATOM     15  C   UNL d   1       5.031  -2.578  -0.733  0.00  0.00     0.015 A 
ATOM     16  C   UNL d   1       5.602  -1.410  -0.212  0.00  0.00     0.016 A 
ATOM     17  C   UNL d   1       6.988  -1.242  -0.230  0.00  0.00     0.001 A 
ATOM     18  C   UNL d   1       7.803  -2.236  -0.770  0.00  0.00     0.000 A 
ATOM     19  C   UNL d   1       7.238  -3.396  -1.299  0.00  0.00     0.001 A 
ATOM     20  C   UNL d   1       5.852  -3.567  -1.286  0.00  0.00     0.016 A 
ENDBRANCH  11  15
ENDBRANCH   2   7
BRANCH   1  21
ATOM     21  O   UNL d   1      -3.831  -3.035  -2.129  0.00  0.00    -0.343 OA
BRANCH  21  22
ATOM     22  C   UNL d   1      -3.730  -1.767  -2.787  0.00  0.00     0.129 C 
ATOM     23  C   UNL d   1      -4.106  -0.597  -1.876  0.00  0.00     0.032 C 
ATOM     24  C   UNL d   1      -4.797   0.438  -2.752  0.00  0.00     0.002 C 
ATOM     25  C   UNL d   1      -5.082  -0.233  -4.090  0.00  0.00     0.002 C 
ATOM     26  C   UNL d   1      -4.767  -1.708  -3.906  0.00  0.00     0.032 C 
ENDBRANCH  21  22
ENDBRANCH   1  21
BRANCH   4  27
ATOM     27  O   UNL d   1      -4.637  -4.729   0.102  0.00  0.00    -0.353 OA
ATOM     28  C   UNL d   1      -5.233  -5.204  -1.096  0.00  0.00     0.210 C 
ENDBRANCH   4  27
TORSDOF 5
