REMARK  6 active torsions:
REMARK  status: ('A' for Active; 'I' for Inactive)
REMARK    1  A    between atoms: C_4  and  C_1 
REMARK       I    between atoms: C_2  and  N_3 
REMARK    2  A    between atoms: C_6  and  C_2 
REMARK    3  A    between atoms: N_3  and  C_5 
REMARK    4  A    between atoms: S_7  and  C_16 
REMARK    5  A    between atoms: C_8  and  S_7 
REMARK    6  A    between atoms: C_16  and  C_17 
ROOT
ATOM      1  C   UNL d   1      -1.939   1.724   6.912  0.00  0.00     0.051 C 
ATOM      2  C   UNL d   1      -2.966   0.990   6.274  0.00  0.00     0.027 C 
ATOM      3  C   UNL d   1      -1.702   1.560   8.285  0.00  0.00     0.031 C 
ATOM      4  C   UNL d   1      -3.495  -0.101   6.966  0.00  0.00     0.021 C 
ATOM      5  C   UNL d   1      -2.361   0.562   8.992  0.00  0.00     0.002 C 
ATOM      6  C   UNL d   1      -3.209  -0.308   8.319  0.00  0.00     0.002 C 
ENDROOT
BRANCH   2   7
ATOM      7  S   UNL d   1      -3.571   1.541   4.669  0.00  0.00    -0.123 SA
BRANCH   7   8
ATOM      8  C   UNL d   1      -4.580   0.180   4.010  0.00  0.00     0.118 C 
BRANCH   8   9
ATOM      9  C   UNL d   1      -5.966  -0.102   4.564  0.00  0.00    -0.048 A 
ATOM     10  C   UNL d   1      -6.447   0.333   5.809  0.00  0.00     0.024 A 
ATOM     11  C   UNL d   1      -7.641  -0.178   6.355  0.00  0.00     0.048 A 
ATOM     12  C   UNL d   1      -8.418  -1.059   5.592  0.00  0.00     0.016 A 
ATOM     13  C   UNL d   1      -7.999  -1.442   4.322  0.00  0.00     0.001 A 
ATOM     14  C   UNL d   1      -6.779  -0.981   3.823  0.00  0.00     0.008 A 
BRANCH  11  15
ATOM     15  C   UNL d   1      -8.062   0.152   7.769  0.00  0.00     0.417 C 
ATOM     16  F   UNL d   1      -7.192   0.969   8.425  0.00  0.00    -0.166 F 
ATOM     17  F   UNL d   1      -8.171  -0.965   8.543  0.00  0.00    -0.166 F 
ATOM     18  F   UNL d   1      -9.275   0.766   7.828  0.00  0.00    -0.166 F 
ENDBRANCH  11  15
ENDBRANCH   8   9
ENDBRANCH   7   8
ENDBRANCH   2   7
BRANCH   1  19
ATOM     19  N   UNL d   1      -1.109   2.567   6.152  0.00  0.00    -0.322 N 
ATOM     20  C   UNL d   1       0.267   2.704   6.197  0.00  0.00     0.256 C 
ATOM     21  O   UNL d   1       0.805   3.615   5.561  0.00  0.00    -0.267 OA
ATOM     22  H   UNL d   1      -1.515   2.957   5.306  0.00  0.00     0.169 HD
BRANCH  20  23
ATOM     23  C   UNL d   1       1.157   1.715   6.894  0.00  0.00     0.032 A 
ATOM     24  C   UNL d   1       0.836   0.355   7.030  0.00  0.00     0.018 A 
ATOM     25  C   UNL d   1       1.702  -0.530   7.680  0.00  0.00     0.025 A 
ATOM     26  C   UNL d   1       2.937  -0.079   8.134  0.00  0.00     0.034 A 
ATOM     27  C   UNL d   1       3.308   1.251   7.947  0.00  0.00     0.025 A 
ATOM     28 CL   UNL d   1       4.015  -1.176   8.903  0.00  0.00    -0.084 Cl
ATOM     29  C   UNL d   1       2.420   2.145   7.334  0.00  0.00     0.018 A 
ENDBRANCH  20  23
ENDBRANCH   1  19
TORSDOF 6
