REMARK  5 active torsions:
REMARK  status: ('A' for Active; 'I' for Inactive)
REMARK    1  A    between atoms: N_2  and  S_1 
REMARK    2  A    between atoms: C_9  and  S_1 
REMARK    3  A    between atoms: C_3  and  N_2 
REMARK       I    between atoms: C_7  and  N_15 
REMARK       I    between atoms: N_11  and  C_7 
REMARK    4  A    between atoms: C_14  and  N_11 
REMARK    5  A    between atoms: N_15  and  C_23 
ROOT
ATOM      1  C   UNL d   1      -0.016  -1.216   0.763  0.00  0.00     0.075 A 
ATOM      2  C   UNL d   1      -0.347  -2.298  -0.060  0.00  0.00     0.027 A 
ATOM      3  C   UNL d   1      -0.030  -1.360   2.143  0.00  0.00     0.027 A 
ATOM      4  C   UNL d   1      -0.541  -3.735   1.895  0.00  0.00     0.036 A 
ATOM      5  C   UNL d   1      -0.310  -2.609   2.699  0.00  0.00     0.031 A 
ATOM      6  C   UNL d   1      -0.619  -3.551   0.508  0.00  0.00     0.031 A 
ENDROOT
BRANCH   4   7
ATOM      7  N   UNL d   1      -0.607  -5.062   2.403  0.00  0.00    -0.309 N 
ATOM      8  C   UNL d   1      -0.293  -5.426   3.705  0.00  0.00     0.325 C 
ATOM      9  N   UNL d   1      -0.126  -6.796   3.863  0.00  0.00    -0.309 N 
ATOM     10  O   UNL d   1      -0.125  -4.611   4.604  0.00  0.00    -0.247 OA
ATOM     11  H   UNL d   1      -0.282  -7.388   3.063  0.00  0.00     0.170 HD
ATOM     12  H   UNL d   1      -0.738  -5.801   1.728  0.00  0.00     0.170 HD
BRANCH   9  13
ATOM     13  C   UNL d   1       0.436  -7.418   5.014  0.00  0.00     0.037 A 
ATOM     14  C   UNL d   1       0.749  -6.715   6.182  0.00  0.00     0.036 A 
ATOM     15  C   UNL d   1       1.442  -7.306   7.244  0.00  0.00    -0.059 A 
ATOM     16  C   UNL d   1       1.891  -6.457   8.395  0.00  0.00     0.048 C 
ATOM     17  C   UNL d   1       1.794  -8.650   7.152  0.00  0.00     0.013 A 
ATOM     18  C   UNL d   1       1.442  -9.401   6.022  0.00  0.00    -0.059 A 
ATOM     19  C   UNL d   1       0.764  -8.779   4.955  0.00  0.00     0.036 A 
ATOM     20  C   UNL d   1       1.872 -10.837   5.946  0.00  0.00     0.048 C 
ENDBRANCH   9  13
ENDBRANCH   4   7
BRANCH   1  21
ATOM     21  S   UNL d   1       0.657   0.264   0.054  0.00  0.00     0.247 S 
ATOM     22  O   UNL d   1       1.506   0.889   1.048  0.00  0.00    -0.205 OA
ATOM     23  O   UNL d   1       1.180  -0.044  -1.255  0.00  0.00    -0.205 OA
BRANCH  21  24
ATOM     24  N   UNL d   1      -0.675   1.291  -0.091  0.00  0.00    -0.165 NA
ATOM     25  H   UNL d   1      -0.382   2.204   0.247  0.00  0.00     0.147 HD
BRANCH  24  26
ATOM     26  C   UNL d   1      -1.346   1.261  -1.304  0.00  0.00     0.117 A 
ATOM     27  N   UNL d   1      -2.330   0.394  -1.548  0.00  0.00    -0.249 N 
ATOM     28  O   UNL d   1      -2.750   0.663  -2.838  0.00  0.00    -0.241 OA
ATOM     29  HN  UNL d   1      -2.695  -0.318  -0.915  1.00  0.00     0.196 HD
ATOM     30  C   UNL d   1      -2.003   1.679  -3.351  0.00  0.00     0.075 A 
ATOM     31  C   UNL d   1      -1.112   2.111  -2.403  0.00  0.00     0.079 A 
ATOM     32  C   UNL d   1      -2.293   2.058  -4.745  0.00  0.00     0.079 C 
ENDBRANCH  24  26
ENDBRANCH  21  24
ENDBRANCH   1  21
TORSDOF 5
