REMARK  5 active torsions:
REMARK  status: ('A' for Active; 'I' for Inactive)
REMARK    1  A    between atoms: C_2  and  C_1 
REMARK    2  A    between atoms: N_15  and  C_3 
REMARK    3  A    between atoms: N_4  and  C_7 
REMARK    4  A    between atoms: N_12  and  N_15 
REMARK    5  A    between atoms: C_14  and  C_18 
ROOT
ATOM      1  N   UNL d   1      -1.215  -7.468   2.026  0.00  0.00    -0.326 N 
ATOM      2  HN  UNL d   1      -0.303  -7.092   1.764  1.00  0.00     0.180 HD
ATOM      3  C   UNL d   1      -2.221  -6.679   2.300  0.00  0.00     0.115 C 
ENDROOT
BRANCH   1   4
ATOM      4  N   UNL d   1      -1.431  -8.813   2.104  0.00  0.00    -0.189 NA
ATOM      5  H   UNL d   1      -1.504  -9.177   3.054  0.00  0.00     0.154 HD
BRANCH   4   6
ATOM      6  C   UNL d   1      -0.461  -9.671   1.549  0.00  0.00     0.120 A 
ATOM      7  N   UNL d   1      -0.121 -10.706   2.368  0.00  0.00    -0.353 N 
ATOM      8  C   UNL d   1       0.771 -11.613   1.917  0.00  0.00     0.105 A 
ATOM      9  HN  UNL d   1      -0.531 -10.793   3.298  1.00  0.00     0.166 HD
ATOM     10  C   UNL d   1       1.361 -11.563   0.666  0.00  0.00     0.065 A 
ATOM     11  C   UNL d   1       0.992 -10.509  -0.175  0.00  0.00     0.044 A 
ATOM     12  C   UNL d   1       0.067  -9.554   0.260  0.00  0.00     0.074 A 
ATOM     13 CL   UNL d   1      -0.405  -8.330  -0.864  0.00  0.00    -0.081 Cl
BRANCH  10  14
ATOM     14  C   UNL d   1       2.339 -12.624   0.266  0.00  0.00     0.418 C 
ATOM     15  F   UNL d   1       2.855 -12.447  -0.980  0.00  0.00    -0.166 F 
ATOM     16  F   UNL d   1       1.787 -13.868   0.270  0.00  0.00    -0.166 F 
ATOM     17  F   UNL d   1       3.407 -12.688   1.108  0.00  0.00    -0.166 F 
ENDBRANCH  10  14
ENDBRANCH   4   6
ENDBRANCH   1   4
BRANCH   3  18
ATOM     18  C   UNL d   1      -3.604  -7.015   2.724  0.00  0.00     0.007 A 
ATOM     19  C   UNL d   1      -4.706  -6.282   2.216  0.00  0.00     0.042 A 
ATOM     20  C   UNL d   1      -5.975  -6.613   2.729  0.00  0.00     0.030 A 
ATOM     21  C   UNL d   1      -6.149  -7.589   3.718  0.00  0.00     0.002 A 
ATOM     22  C   UNL d   1      -5.049  -8.251   4.239  0.00  0.00     0.001 A 
ATOM     23  C   UNL d   1      -3.779  -7.953   3.752  0.00  0.00     0.015 A 
BRANCH  19  24
ATOM     24  N   UNL d   1      -4.551  -5.228   1.318  0.00  0.00    -0.377 N 
ATOM     25  C   UNL d   1      -5.535  -4.130   1.273  0.00  0.00     0.153 C 
ATOM     26  C   UNL d   1      -4.836  -2.849   0.760  0.00  0.00     0.291 C 
ATOM     27  N   UNL d   1      -4.157  -3.019  -0.547  0.00  0.00     0.087 N 
ATOM     28  C   UNL d   1      -3.274  -4.214  -0.520  0.00  0.00     0.291 C 
ATOM     29  C   UNL d   1      -3.373  -1.822  -0.857  0.00  0.00     0.310 C 
ATOM     30  C   UNL d   1      -3.986  -5.498  -0.020  0.00  0.00     0.153 C 
ENDBRANCH  19  24
ENDBRANCH   3  18
TORSDOF 5
