REMARK  4 active torsions:
REMARK  status: ('A' for Active; 'I' for Inactive)
REMARK    1  A    between atoms: N_6  and  C_2 
REMARK    2  A    between atoms: C_9  and  N_5 
REMARK    3  A    between atoms: C_8  and  N_6 
REMARK    4  A    between atoms: C_15  and  C_9 
ROOT
ATOM      1  C   UNL d   1       2.215   3.362   0.229  0.00  0.00     0.109 A 
ATOM      2  C   UNL d   1       0.964   3.314   0.886  0.00  0.00     0.052 A 
ATOM      3  C   UNL d   1       2.367   2.939  -1.131  0.00  0.00     0.105 C 
ATOM      4  N   UNL d   1       2.446   2.601  -2.238  0.00  0.00    -0.191 NA
ATOM      5  C   UNL d   1       3.348   3.872   0.886  0.00  0.00     0.139 A 
ATOM      6  F   UNL d   1       4.523   3.940   0.251  0.00  0.00    -0.204 F 
ATOM      7  C   UNL d   1       0.922   3.779   2.210  0.00  0.00     0.031 A 
ATOM      8  C   UNL d   1       2.063   4.261   2.865  0.00  0.00     0.005 A 
ATOM      9  C   UNL d   1       3.279   4.311   2.200  0.00  0.00     0.044 A 
ENDROOT
BRANCH   2  10
ATOM     10  N   UNL d   1      -0.168   2.739   0.282  0.00  0.00    -0.384 N 
ATOM     11  H   UNL d   1       0.001   2.398  -0.665  0.00  0.00     0.160 HD
BRANCH  10  12
ATOM     12  C   UNL d   1      -1.526   3.305   0.443  0.00  0.00     0.085 C 
ATOM     13  C   UNL d   1      -2.312   2.687   1.596  0.00  0.00     0.055 C 
ATOM     14  C   UNL d   1      -2.547   1.198   1.394  0.00  0.00     0.275 C 
ATOM     15  N   UNL d   1      -3.122   0.806   0.105  0.00  0.00     0.092 N 
ATOM     16  C   UNL d   1      -2.699   1.597  -1.056  0.00  0.00     0.275 C 
ATOM     17  C   UNL d   1      -2.364   3.074  -0.820  0.00  0.00     0.055 C 
BRANCH  15  18
ATOM     18  C   UNL d   1      -2.979  -0.663  -0.131  0.00  0.00     0.311 C 
BRANCH  18  19
ATOM     19  C   UNL d   1      -1.546  -1.139  -0.356  0.00  0.00    -0.030 C 
ATOM     20  C   UNL d   1      -0.698  -1.407   0.730  0.00  0.00     0.009 C 
ATOM     21  C   UNL d   1       0.682  -1.498   0.547  0.00  0.00     0.001 C 
ATOM     22  C   UNL d   1       1.224  -1.379  -0.729  0.00  0.00     0.000 C 
ATOM     23  C   UNL d   1       0.383  -1.239  -1.830  0.00  0.00     0.001 C 
ATOM     24  C   UNL d   1      -0.997  -1.145  -1.648  0.00  0.00     0.009 C 
ENDBRANCH  18  19
ENDBRANCH  15  18
ENDBRANCH  10  12
ENDBRANCH   2  10
TORSDOF 4
