REMARK  4 active torsions:
REMARK  status: ('A' for Active; 'I' for Inactive)
REMARK    1  A    between atoms: N_2  and  C_1 
REMARK    2  A    between atoms: N_3  and  C_1 
REMARK    3  A    between atoms: C_8  and  N_2 
REMARK    4  A    between atoms: C_7  and  N_3 
ROOT
ATOM      1  C   UNL d   1       1.009  -0.036  -0.160  0.00  0.00     0.176 C 
ATOM      2  S   UNL d   1       2.643  -0.065  -0.523  0.00  0.00    -0.041 SA
ENDROOT
BRANCH   1   3
ATOM      3  N   UNL d   1       0.433   0.299   1.045  0.00  0.00    -0.333 N 
ATOM      4  H   UNL d   1      -0.350  -0.294   1.290  0.00  0.00     0.168 HD
BRANCH   3   5
ATOM      5  C   UNL d   1       0.924   1.131   2.067  0.00  0.00     0.034 A 
ATOM      6  C   UNL d   1       1.681   2.271   1.796  0.00  0.00     0.036 A 
ATOM      7  C   UNL d   1       2.093   3.129   2.830  0.00  0.00    -0.054 A 
ATOM      8  C   UNL d   1       2.862   4.373   2.481  0.00  0.00     0.049 C 
ATOM      9  C   UNL d   1       1.764   2.812   4.162  0.00  0.00    -0.056 A 
ATOM     10  C   UNL d   1       0.986   1.675   4.423  0.00  0.00     0.009 A 
ATOM     11  C   UNL d   1       2.219   3.675   5.307  0.00  0.00     0.049 C 
ATOM     12  C   UNL d   1       0.548   0.855   3.380  0.00  0.00     0.030 A 
ENDBRANCH   3   5
ENDBRANCH   1   3
BRANCH   1  13
ATOM     13  N   UNL d   1       0.137  -0.551  -1.089  0.00  0.00    -0.333 N 
ATOM     14  H   UNL d   1       0.570  -1.126  -1.804  0.00  0.00     0.168 HD
BRANCH  13  15
ATOM     15  C   UNL d   1      -1.221  -0.228  -1.282  0.00  0.00     0.034 A 
ATOM     16  C   UNL d   1      -1.781   0.974  -0.831  0.00  0.00     0.036 A 
ATOM     17  C   UNL d   1      -3.126   1.288  -1.085  0.00  0.00    -0.054 A 
ATOM     18  C   UNL d   1      -3.665   2.622  -0.641  0.00  0.00     0.049 C 
ATOM     19  C   UNL d   1      -3.934   0.356  -1.761  0.00  0.00    -0.056 A 
ATOM     20  C   UNL d   1      -3.357  -0.833  -2.235  0.00  0.00     0.009 A 
ATOM     21  C   UNL d   1      -5.394   0.617  -2.007  0.00  0.00     0.049 C 
ATOM     22  C   UNL d   1      -2.006  -1.110  -2.018  0.00  0.00     0.030 A 
ENDBRANCH  13  15
ENDBRANCH   1  13
TORSDOF 4
