REMARK  3 active torsions:
REMARK  status: ('A' for Active; 'I' for Inactive)
REMARK    1  A    between atoms: C_5  and  C_1 
REMARK       I    between atoms: C_3  and  N_2 
REMARK    2  A    between atoms: C_4  and  C_3 
REMARK    3  A    between atoms: C_21  and  N_6 
ROOT
ATOM      1  N   UNL d   1      -2.077   2.953   0.429  0.00  0.00    -0.219 N 
ATOM      2  C   UNL d   1      -3.013   2.281   1.258  0.00  0.00     0.287 C 
ATOM      3  C   UNL d   1      -0.810   2.553   0.002  0.00  0.00     0.075 C 
ATOM      4  N   UNL d   1      -2.354   4.233   0.027  0.00  0.00    -0.302 N 
ATOM      5  HN  UNL d   1      -3.235   4.739   0.120  1.00  0.00     0.186 HD
ATOM      6  C   UNL d   1      -0.224   3.680  -0.535  0.00  0.00     0.051 C 
ATOM      7  O   UNL d   1      -2.567   1.370   1.953  0.00  0.00    -0.265 OA
ATOM      8  C   UNL d   1      -1.218   4.668  -0.511  0.00  0.00     0.110 C 
ENDROOT
BRANCH   3   9
ATOM      9  C   UNL d   1      -0.240   1.169   0.016  0.00  0.00     0.034 C 
ATOM     10  C   UNL d   1       1.091   0.779  -0.034  0.00  0.00     0.044 C 
ATOM     11  N   UNL d   1       1.079  -0.619   0.002  0.00  0.00    -0.261 N 
ATOM     12  C   UNL d   1       2.332   1.596  -0.131  0.00  0.00     0.071 C 
ATOM     13  N   UNL d   1      -0.184  -1.101  -0.140  0.00  0.00    -0.304 N 
ATOM     14  C   UNL d   1      -0.965  -0.035  -0.021  0.00  0.00     0.123 C 
ATOM     15  HN  UNL d   1      -0.469  -2.067  -0.303  1.00  0.00     0.186 HD
BRANCH  11  16
ATOM     16  C   UNL d   1       2.146  -1.555   0.140  0.00  0.00     0.056 A 
ATOM     17  C   UNL d   1       3.322  -1.240   0.829  0.00  0.00     0.031 A 
ATOM     18  C   UNL d   1       4.353  -2.180   0.920  0.00  0.00     0.002 A 
ATOM     19  C   UNL d   1       4.210  -3.439   0.340  0.00  0.00     0.000 A 
ATOM     20  C   UNL d   1       3.026  -3.774  -0.312  0.00  0.00     0.002 A 
ATOM     21  C   UNL d   1       1.990  -2.842  -0.400  0.00  0.00     0.031 A 
ENDBRANCH  11  16
ENDBRANCH   3   9
BRANCH   2  22
ATOM     22  C   UNL d   1      -4.405   2.664   1.296  0.00  0.00     0.112 A 
ATOM     23  C   UNL d   1      -5.300   3.076   0.318  0.00  0.00     0.043 A 
ATOM     24  N   UNL d   1      -6.589   3.319   0.788  0.00  0.00    -0.296 N 
ATOM     25  C   UNL d   1      -5.078   3.239  -1.141  0.00  0.00     0.071 C 
ATOM     26  N   UNL d   1      -6.700   3.084   2.083  0.00  0.00    -0.061 NA
ATOM     27  HN  UNL d   1      -7.357   3.642   0.200  1.00  0.00     0.183 HD
ATOM     28  S   UNL d   1      -5.274   2.558   2.771  0.00  0.00     0.007 SA
ENDBRANCH   2  22
TORSDOF 3
