REMARK  6 active torsions:
REMARK  status: ('A' for Active; 'I' for Inactive)
REMARK    1  A    between atoms: C_8  and  C_1 
REMARK    2  A    between atoms: O_7  and  C_2 
REMARK    3  A    between atoms: O_13  and  C_5 
REMARK    4  A    between atoms: C_6  and  O_7 
REMARK    5  A    between atoms: C_9  and  C_6 
REMARK    6  A    between atoms: O_14  and  C_8 
ROOT
ATOM      1  C   UNL d   1      -0.066   1.352  -0.591  0.00  0.00     0.116 A 
ATOM      2  C   UNL d   1       1.225   0.973  -0.272  0.00  0.00     0.105 A 
ATOM      3  C   UNL d   1       1.374  -0.442  -0.176  0.00  0.00     0.083 A 
ATOM      4  S   UNL d   1      -1.043  -0.028  -0.885  0.00  0.00    -0.057 SA
ATOM      5  C   UNL d   1       0.203  -1.123  -0.447  0.00  0.00     0.112 A 
ENDROOT
BRANCH   2   6
ATOM      6  O   UNL d   1       2.221   1.825   0.075  0.00  0.00    -0.273 OA
BRANCH   6   7
ATOM      7  C   UNL d   1       2.541   2.850  -0.771  0.00  0.00     0.299 C 
ATOM      8  O   UNL d   1       2.316   2.869  -1.969  0.00  0.00    -0.259 OA
BRANCH   7   9
ATOM      9  C   UNL d   1       3.143   3.976   0.033  0.00  0.00     0.045 A 
ATOM     10  C   UNL d   1       3.426   5.245  -0.522  0.00  0.00    -0.046 A 
ATOM     11  C   UNL d   1       3.208   5.629  -1.962  0.00  0.00     0.049 C 
ATOM     12  C   UNL d   1       3.987   6.242   0.307  0.00  0.00     0.008 A 
ATOM     13  C   UNL d   1       4.212   6.020   1.665  0.00  0.00     0.001 A 
ATOM     14  C   UNL d   1       3.893   4.791   2.221  0.00  0.00     0.001 A 
ATOM     15  C   UNL d   1       3.373   3.780   1.413  0.00  0.00     0.018 A 
ENDBRANCH   7   9
ENDBRANCH   6   7
ENDBRANCH   2   6
BRANCH   1  16
ATOM     16  C   UNL d   1      -0.693   2.656  -0.677  0.00  0.00     0.302 C 
ATOM     17  O   UNL d   1      -1.680   2.945  -1.340  0.00  0.00    -0.259 OA
BRANCH  16  18
ATOM     18  O   UNL d   1      -0.045   3.538   0.140  0.00  0.00    -0.322 OA
ATOM     19  C   UNL d   1      -0.547   4.875   0.099  0.00  0.00     0.213 C 
ENDBRANCH  16  18
ENDBRANCH   1  16
BRANCH   5  20
ATOM     20  O   UNL d   1      -0.106  -2.425  -0.419  0.00  0.00    -0.349 OA
ATOM     21  C   UNL d   1       0.930  -3.324  -0.051  0.00  0.00     0.211 C 
ENDBRANCH   5  20
TORSDOF 6
