REMARK  5 active torsions:
REMARK  status: ('A' for Active; 'I' for Inactive)
REMARK    1  A    between atoms: C_7  and  N_1 
REMARK    2  A    between atoms: C_11  and  C_7 
REMARK    3  A    between atoms: C_9  and  C_8 
REMARK    4  A    between atoms: O_17  and  C_9 
REMARK    5  A    between atoms: O_18  and  C_11 
ROOT
ATOM      1  N   UNL d   1       1.912   0.143  -0.046  0.00  0.00    -0.270 N 
ATOM      2  C   UNL d   1       1.101   1.238   0.024  0.00  0.00     0.262 A 
ATOM      3  C   UNL d   1       1.196  -1.020   0.000  0.00  0.00     0.262 A 
ATOM      4  C   UNL d   1      -0.271   0.742   0.045  0.00  0.00     0.049 A 
ATOM      5  C   UNL d   1      -0.219  -0.643   0.026  0.00  0.00     0.048 A 
ATOM      6  C   UNL d   1      -1.461   1.448   0.043  0.00  0.00     0.036 A 
ATOM      7  C   UNL d   1      -2.644   0.699   0.041  0.00  0.00     0.038 A 
ATOM      8  C   UNL d   1      -1.368  -1.407   0.015  0.00  0.00     0.019 A 
ATOM      9  O   UNL d   1       1.391   2.417   0.055  0.00  0.00    -0.267 OA
ATOM     10  O   UNL d   1       1.653  -2.144   0.085  0.00  0.00    -0.267 OA
ATOM     11  C   UNL d   1      -2.592  -0.719   0.019  0.00  0.00     0.019 A 
ENDROOT
BRANCH   1  12
ATOM     12  C   UNL d   1       3.358   0.216  -0.155  0.00  0.00     0.245 C 
BRANCH  12  13
ATOM     13  C   UNL d   1       4.040  -0.073   1.170  0.00  0.00     0.158 C 
ATOM     14  O   UNL d   1       4.885   0.657   1.670  0.00  0.00    -0.649 OA
BRANCH  13  15
ATOM     15  O   UNL d   1       3.722  -1.273   1.714  0.00  0.00    -0.775 OA
ATOM     16  H   UNL d   1       3.123  -1.831   1.163  0.00  0.00     0.167 HD
ENDBRANCH  13  15
ENDBRANCH  12  13
ENDBRANCH   1  12
BRANCH   7  17
ATOM     17  C   UNL d   1      -3.982   1.345  -0.012  0.00  0.00     0.176 C 
ATOM     18  O   UNL d   1      -4.947   0.794  -0.512  0.00  0.00    -0.646 OA
BRANCH  17  19
ATOM     19  O   UNL d   1      -4.043   2.565   0.556  0.00  0.00    -0.773 OA
ATOM     20  H   UNL d   1      -3.270   2.852   1.073  0.00  0.00     0.167 HD
ENDBRANCH  17  19
ENDBRANCH   7  17
TORSDOF 5
