REMARK  9 active torsions:
REMARK  status: ('A' for Active; 'I' for Inactive)
REMARK    1  A    between atoms: S_2  and  C_1 
REMARK    2  A    between atoms: N_8  and  S_2 
REMARK    3  A    between atoms: C_7  and  C_3 
REMARK    4  A    between atoms: C_11  and  N_4 
REMARK    5  A    between atoms: C_12  and  C_5 
REMARK    6  A    between atoms: O_20  and  C_7 
REMARK    7  A    between atoms: C_16  and  N_8 
REMARK    8  A    between atoms: C_13  and  C_14 
REMARK    9  A    between atoms: C_30  and  O_20 
ROOT
ATOM      1  C   UNL d   1      -0.354  -1.185   0.006  0.00  0.00     0.121 A 
ATOM      2  C   UNL d   1       0.995  -0.716  -0.079  0.00  0.00     0.087 A 
ATOM      3  N   UNL d   1      -0.400   1.070   0.024  0.00  0.00    -0.312 N 
ATOM      4  C   UNL d   1      -1.220  -0.078   0.055  0.00  0.00     0.074 A 
ATOM      5  C   UNL d   1       0.934   0.671   0.002  0.00  0.00     0.031 A 
ATOM      6  C   UNL d   1       2.095   1.617   0.107  0.00  0.00     0.070 C 
ENDROOT
BRANCH   1   7
ATOM      7  S   UNL d   1      -0.841  -2.856  -0.088  0.00  0.00     0.249 S 
ATOM      8  O   UNL d   1      -1.884  -2.882  -1.089  0.00  0.00    -0.205 OA
ATOM      9  O   UNL d   1       0.343  -3.651  -0.291  0.00  0.00    -0.205 OA
BRANCH   7  10
ATOM     10  N   UNL d   1      -1.552  -3.347   1.374  0.00  0.00    -0.181 NA
ATOM     11  H   UNL d   1      -1.881  -4.304   1.240  0.00  0.00     0.146 HD
BRANCH  10  12
ATOM     12  C   UNL d   1      -0.804  -3.171   2.578  0.00  0.00     0.022 A 
ATOM     13  C   UNL d   1      -0.908  -1.979   3.288  0.00  0.00     0.025 A 
ATOM     14  C   UNL d   1      -0.223  -1.810   4.492  0.00  0.00     0.010 A 
ATOM     15  C   UNL d   1       0.610  -2.818   5.004  0.00  0.00    -0.051 A 
ATOM     16  C   UNL d   1       0.712  -4.008   4.261  0.00  0.00     0.010 A 
ATOM     17  C   UNL d   1       0.017  -4.183   3.057  0.00  0.00     0.025 A 
BRANCH  15  18
ATOM     18  C   UNL d   1       1.384  -2.571   6.309  0.00  0.00    -0.024 C 
ATOM     19  C   UNL d   1       2.285  -3.753   6.724  0.00  0.00     0.019 C 
ATOM     20  C   UNL d   1       2.295  -1.336   6.130  0.00  0.00     0.019 C 
ATOM     21  C   UNL d   1       0.403  -2.308   7.473  0.00  0.00     0.019 C 
ENDBRANCH  15  18
ENDBRANCH  10  12
ENDBRANCH   7  10
ENDBRANCH   1   7
BRANCH   2  22
ATOM     22  C   UNL d   1       2.249  -1.440  -0.297  0.00  0.00     0.296 C 
ATOM     23  O   UNL d   1       3.050  -1.090  -1.156  0.00  0.00    -0.259 OA
BRANCH  22  24
ATOM     24  O   UNL d   1       2.456  -2.469   0.572  0.00  0.00    -0.318 OA
BRANCH  24  25
ATOM     25  C   UNL d   1       3.476  -3.404   0.182  0.00  0.00     0.174 C 
ATOM     26  C   UNL d   1       4.429  -3.639   1.335  0.00  0.00     0.034 C 
ENDBRANCH  24  25
ENDBRANCH  22  24
ENDBRANCH   2  22
BRANCH   4  27
ATOM     27  C   UNL d   1      -2.711  -0.046  -0.026  0.00  0.00    -0.007 A 
ATOM     28  C   UNL d   1      -3.377   0.766  -0.957  0.00  0.00     0.014 A 
ATOM     29  C   UNL d   1      -4.776   0.863  -0.971  0.00  0.00     0.001 A 
ATOM     30  C   UNL d   1      -5.541   0.098  -0.097  0.00  0.00     0.000 A 
ATOM     31  C   UNL d   1      -4.908  -0.758   0.791  0.00  0.00     0.001 A 
ATOM     32  C   UNL d   1      -3.511  -0.812   0.832  0.00  0.00     0.014 A 
ENDBRANCH   4  27
BRANCH   3  33
ATOM     33  C   UNL d   1      -0.839   2.436  -0.009  0.00  0.00     0.040 A 
ATOM     34  C   UNL d   1      -1.891   2.870   0.805  0.00  0.00     0.030 A 
ATOM     35  C   UNL d   1      -2.369   4.179   0.692  0.00  0.00     0.002 A 
ATOM     36  C   UNL d   1      -1.786   5.064  -0.214  0.00  0.00     0.000 A 
ATOM     37  C   UNL d   1      -0.724   4.645  -1.011  0.00  0.00     0.002 A 
ATOM     38  C   UNL d   1      -0.253   3.334  -0.915  0.00  0.00     0.030 A 
ENDBRANCH   3  33
TORSDOF 9
