REMARK  2 active torsions:
REMARK  status: ('A' for Active; 'I' for Inactive)
REMARK    1  A    between atoms: N_7  and  C_2 
REMARK       I    between atoms: C_9  and  N_7 
REMARK    2  A    between atoms: C_11  and  C_9 
ROOT
ATOM      1  C   UNL d   1      -0.300   0.833   0.503  0.00  0.00     0.142 C 
ATOM      2  C   UNL d   1       2.134   0.759  -0.031  0.00  0.00     0.108 C 
ATOM      3  C   UNL d   1       0.995   1.458   0.095  0.00  0.00     0.026 C 
ATOM      4  C   UNL d   1       2.099  -0.718   0.184  0.00  0.00     0.310 C 
ATOM      5  O   UNL d   1       0.892  -1.299  -0.011  0.00  0.00    -0.308 OA
ATOM      6  C   UNL d   1      -1.434   1.157  -0.435  0.00  0.00     0.269 C 
ATOM      7  C   UNL d   1      -0.276  -0.678   0.553  0.00  0.00     0.174 C 
ATOM      8  O   UNL d   1      -2.118   0.034  -0.780  0.00  0.00    -0.318 OA
ATOM      9  C   UNL d   1      -1.509  -1.122  -0.211  0.00  0.00     0.212 C 
ATOM     10  O   UNL d   1       3.128  -1.357   0.370  0.00  0.00    -0.258 OA
ATOM     11  O   UNL d   1      -1.761   2.279  -0.790  0.00  0.00    -0.264 OA
ENDROOT
BRANCH   2  12
ATOM     12  N   UNL d   1       3.378   1.307  -0.290  0.00  0.00    -0.318 N 
ATOM     13  C   UNL d   1       3.638   2.546  -0.838  0.00  0.00     0.256 C 
ATOM     14  O   UNL d   1       2.807   3.283  -1.358  0.00  0.00    -0.267 OA
ATOM     15  H   UNL d   1       4.158   0.661  -0.181  0.00  0.00     0.169 HD
BRANCH  13  16
ATOM     16  C   UNL d   1       5.058   2.995  -0.812  0.00  0.00     0.032 A 
ATOM     17  C   UNL d   1       5.534   3.782  -1.872  0.00  0.00     0.018 A 
ATOM     18  C   UNL d   1       6.816   4.334  -1.818  0.00  0.00     0.025 A 
ATOM     19  C   UNL d   1       7.618   4.107  -0.702  0.00  0.00     0.034 A 
ATOM     20  C   UNL d   1       7.160   3.313   0.350  0.00  0.00     0.025 A 
ATOM     21 CL   UNL d   1       9.171   4.842  -0.605  0.00  0.00    -0.084 Cl
ATOM     22  C   UNL d   1       5.880   2.750   0.296  0.00  0.00     0.018 A 
ENDBRANCH  13  16
ENDBRANCH   2  12
TORSDOF 2
