REMARK  2 active torsions:
REMARK  status: ('A' for Active; 'I' for Inactive)
REMARK       I    between atoms: C_2  and  N_4 
REMARK    1  A    between atoms: C_6  and  C_2 
REMARK    2  A    between atoms: N_4  and  C_5 
ROOT
ATOM      1  C   UNL d   1      -3.697  -1.353  -0.127  0.00  0.00     0.274 C 
ATOM      2  N   UNL d   1      -2.490  -2.011   0.060  0.00  0.00    -0.319 N 
ATOM      3  O   UNL d   1      -3.868  -0.143  -0.192  0.00  0.00    -0.266 OA
ATOM      4  H   UNL d   1      -2.530  -3.016  -0.096  0.00  0.00     0.169 HD
ENDROOT
BRANCH   2   5
ATOM      5  C   UNL d   1      -1.220  -1.390   0.152  0.00  0.00     0.077 A 
ATOM      6  C   UNL d   1      -1.003  -0.051   0.520  0.00  0.00     0.184 A 
ATOM      7  C   UNL d   1       0.268   0.512   0.452  0.00  0.00     0.195 A 
ATOM      8  F   UNL d   1      -1.985   0.708   1.026  0.00  0.00    -0.200 F 
ATOM      9  C   UNL d   1       1.348  -0.261   0.060  0.00  0.00     0.158 A 
ATOM     10  F   UNL d   1       0.450   1.802   0.775  0.00  0.00    -0.199 F 
ATOM     11  F   UNL d   1       2.571   0.280  -0.024  0.00  0.00    -0.203 F 
ATOM     12  C   UNL d   1       1.177  -1.609  -0.236  0.00  0.00     0.048 A 
ATOM     13  C   UNL d   1      -0.104  -2.175  -0.183  0.00  0.00     0.036 A 
ENDBRANCH   2   5
BRANCH   1  14
ATOM     14  C   UNL d   1      -4.866  -2.239  -0.381  0.00  0.00     0.116 A 
ATOM     15  N   UNL d   1      -4.664  -3.589  -0.398  0.00  0.00    -0.359 N 
ATOM     16  C   UNL d   1      -5.764  -4.313  -0.727  0.00  0.00     0.105 A 
ATOM     17  HN  UNL d   1      -3.763  -4.016  -0.182  1.00  0.00     0.165 HD
ATOM     18  C   UNL d   1      -6.989  -3.734  -1.035  0.00  0.00     0.104 A 
ATOM     19  N   UNL d   1      -7.185  -2.398  -1.010  0.00  0.00    -0.372 N 
ATOM     20  C   UNL d   1      -6.097  -1.661  -0.674  0.00  0.00     0.122 A 
ATOM     21  HN  UNL d   1      -8.087  -1.973  -1.227  1.00  0.00     0.164 HD
ENDBRANCH   1  14
TORSDOF 2
