REMARK  2 active torsions:
REMARK  status: ('A' for Active; 'I' for Inactive)
REMARK       I    between atoms: N_3  and  C_1 
REMARK    1  A    between atoms: C_6  and  C_1 
REMARK    2  A    between atoms: C_2  and  N_4 
REMARK       I    between atoms: C_5  and  N_3 
REMARK       I    between atoms: N_4  and  C_5 
ROOT
ATOM      1  C   UNL d   1       1.051  -0.123   0.041  0.00  0.00     0.265 C 
ATOM      2  N   UNL d   1       0.463   0.572  -1.004  0.00  0.00    -0.275 N 
ATOM      3  N   UNL d   1       2.408   1.042  -2.180  0.00  0.00    -0.293 N 
ATOM      4  C   UNL d   1       1.040   1.023  -2.173  0.00  0.00     0.328 C 
ATOM      5  O   UNL d   1       2.257  -0.330   0.107  0.00  0.00    -0.267 OA
ATOM      6  O   UNL d   1       0.295   1.352  -3.094  0.00  0.00    -0.247 OA
ATOM      7  H   UNL d   1      -0.545   0.656  -1.031  0.00  0.00     0.173 HD
ATOM      8  H   UNL d   1       2.853   0.451  -1.473  0.00  0.00     0.172 HD
ENDROOT
BRANCH   1   9
ATOM      9  C   UNL d   1       0.134  -0.626   1.096  0.00  0.00     0.109 A 
ATOM     10  C   UNL d   1       0.496  -1.726   1.873  0.00  0.00     0.135 A 
ATOM     11  F   UNL d   1       1.662  -2.361   1.683  0.00  0.00    -0.205 F 
ATOM     12  C   UNL d   1      -0.363  -2.230   2.853  0.00  0.00     0.043 A 
ATOM     13  C   UNL d   1      -1.601  -1.629   3.075  0.00  0.00     0.006 A 
ATOM     14  C   UNL d   1      -1.972  -0.522   2.314  0.00  0.00     0.043 A 
ATOM     15  C   UNL d   1      -1.107  -0.031   1.338  0.00  0.00     0.135 A 
ATOM     16  F   UNL d   1      -1.506   1.031   0.623  0.00  0.00    -0.205 F 
ENDBRANCH   1   9
BRANCH   3  17
ATOM     17  C   UNL d   1       3.211   1.539  -3.192  0.00  0.00     0.126 A 
ATOM     18  N   UNL d   1       2.926   2.484  -4.158  0.00  0.00    -0.281 N 
ATOM     19  N   UNL d   1       3.962   2.688  -5.011  0.00  0.00    -0.308 N 
ATOM     20  C   UNL d   1       1.804   3.384  -4.286  0.00  0.00     0.179 C 
ATOM     21  C   UNL d   1       4.935   1.918  -4.531  0.00  0.00     0.111 A 
ATOM     22  HN  UNL d   1       3.989   3.293  -5.831  1.00  0.00     0.186 HD
ATOM     23  C   UNL d   1       4.534   1.204  -3.393  0.00  0.00     0.068 A 
ENDBRANCH   3  17
TORSDOF 2
