REMARK  1 active torsions:
REMARK  status: ('A' for Active; 'I' for Inactive)
REMARK    1  A    between atoms: C_7  and  C_1 
ROOT
ATOM      1  C   UNL d   1       0.789   2.022   0.047  0.00  0.00     0.021 A 
ATOM      2  C   UNL d   1       1.500   0.795   0.057  0.00  0.00    -0.011 A 
ATOM      3  C   UNL d   1       0.753  -0.420  -0.012  0.00  0.00    -0.014 A 
ATOM      4  C   UNL d   1      -0.611   2.040   0.021  0.00  0.00     0.028 A 
ATOM      5  C   UNL d   1      -0.689  -0.387  -0.041  0.00  0.00    -0.015 A 
ATOM      6  C   UNL d   1      -1.354   0.863  -0.013  0.00  0.00    -0.024 A 
ATOM      7  C   UNL d   1       2.911   0.709   0.173  0.00  0.00     0.013 A 
ATOM      8  C   UNL d   1       1.485  -1.636  -0.033  0.00  0.00     0.013 A 
ATOM      9  C   UNL d   1      -1.522  -1.537  -0.072  0.00  0.00     0.013 A 
ATOM     10  C   UNL d   1      -2.759   0.932  -0.012  0.00  0.00     0.012 A 
ATOM     11  C   UNL d   1       2.877  -1.683   0.039  0.00  0.00     0.001 A 
ATOM     12  C   UNL d   1       3.592  -0.507   0.151  0.00  0.00     0.001 A 
ATOM     13  C   UNL d   1      -2.918  -1.458  -0.066  0.00  0.00     0.001 A 
ATOM     14  C   UNL d   1      -3.538  -0.219  -0.035  0.00  0.00     0.001 A 
ENDROOT
BRANCH   1  15
ATOM     15  C   UNL d   1       1.422   3.373   0.088  0.00  0.00     0.156 C 
ATOM     16  O   UNL d   1       0.946   4.232   0.829  0.00  0.00    -0.293 OA
ATOM     17  C   UNL d   1       2.576   3.697  -0.824  0.00  0.00     0.097 C 
ENDBRANCH   1  15
TORSDOF 1
