REMARK  5 active torsions:
REMARK  status: ('A' for Active; 'I' for Inactive)
REMARK    1  A    between atoms: C_5  and  C_1 
REMARK       I    between atoms: C_2  and  N_7 
REMARK    2  A    between atoms: C_4  and  C_2 
REMARK    3  A    between atoms: N_6  and  C_3 
REMARK    4  A    between atoms: O_16  and  C_5 
REMARK    5  A    between atoms: N_7  and  C_10 
ROOT
ATOM      1  C   UNL d   1       1.476  -0.232   0.037  0.00  0.00     0.068 A 
ATOM      2  C   UNL d   1       0.690  -1.387  -0.172  0.00  0.00     0.046 A 
ATOM      3  C   UNL d   1       0.878   1.047   0.096  0.00  0.00     0.049 A 
ATOM      4  C   UNL d   1      -0.680  -1.168  -0.422  0.00  0.00     0.032 A 
ATOM      5  C   UNL d   1      -0.490   1.224  -0.080  0.00  0.00     0.036 A 
ATOM      6  C   UNL d   1      -1.262   0.107  -0.376  0.00  0.00     0.032 A 
ENDROOT
BRANCH   5   7
ATOM      7  N   UNL d   1      -1.146   2.466   0.066  0.00  0.00    -0.323 N 
ATOM      8  C   UNL d   1      -0.555   3.692   0.339  0.00  0.00     0.259 C 
ATOM      9  O   UNL d   1       0.651   3.899   0.412  0.00  0.00    -0.267 OA
ATOM     10  H   UNL d   1      -2.159   2.443   0.005  0.00  0.00     0.169 HD
BRANCH   8  11
ATOM     11  C   UNL d   1      -1.464   4.854   0.538  0.00  0.00     0.070 A 
ATOM     12  C   UNL d   1      -2.847   4.738   0.677  0.00  0.00     0.132 A 
ATOM     13  F   UNL d   1      -3.446   3.537   0.647  0.00  0.00    -0.205 F 
ATOM     14  C   UNL d   1      -3.650   5.866   0.850  0.00  0.00     0.043 A 
ATOM     15  C   UNL d   1      -3.069   7.135   0.887  0.00  0.00     0.003 A 
ATOM     16  C   UNL d   1      -1.687   7.269   0.765  0.00  0.00     0.001 A 
ATOM     17  C   UNL d   1      -0.889   6.135   0.597  0.00  0.00     0.020 A 
ENDBRANCH   8  11
ENDBRANCH   5   7
BRANCH   1  18
ATOM     18  C   UNL d   1       2.937  -0.270   0.331  0.00  0.00     0.295 C 
ATOM     19  O   UNL d   1       3.512  -1.081   1.037  0.00  0.00    -0.259 OA
BRANCH  18  20
ATOM     20  O   UNL d   1       3.529   0.761  -0.332  0.00  0.00    -0.322 OA
ATOM     21  C   UNL d   1       4.920   0.934  -0.069  0.00  0.00     0.213 C 
ENDBRANCH  18  20
ENDBRANCH   1  18
BRANCH   2  22
ATOM     22  N   UNL d   1       1.176  -2.683  -0.071  0.00  0.00    -0.376 N 
ATOM     23  C   UNL d   1       0.305  -3.786   0.372  0.00  0.00     0.149 C 
ATOM     24  C   UNL d   1       1.162  -4.862   1.060  0.00  0.00     0.187 C 
ATOM     25  O   UNL d   1       2.211  -5.333   0.198  0.00  0.00    -0.388 OA
ATOM     26  C   UNL d   1       3.070  -4.237  -0.176  0.00  0.00     0.187 C 
ATOM     27  C   UNL d   1       2.287  -3.143  -0.925  0.00  0.00     0.149 C 
ENDBRANCH   2  22
TORSDOF 5
