REMARK  5 active torsions:
REMARK  status: ('A' for Active; 'I' for Inactive)
REMARK    1  A    between atoms: N_5  and  S_1 
REMARK    2  A    between atoms: C_7  and  S_1 
REMARK    3  A    between atoms: C_2  and  C_12 
REMARK    4  A    between atoms: C_12  and  N_5 
REMARK       I    between atoms: C_11  and  N_13 
REMARK    5  A    between atoms: N_13  and  C_17 
ROOT
ATOM      1  S   UNL d   1       0.995  -0.055   0.176  0.00  0.00     0.241 S 
ATOM      2  O   UNL d   1       0.462   0.055   1.515  0.00  0.00    -0.206 OA
ATOM      3  O   UNL d   1       2.410   0.080  -0.096  0.00  0.00    -0.206 OA
ENDROOT
BRANCH   1   4
ATOM      4  N   UNL d   1       0.198   1.045  -0.824  0.00  0.00    -0.211 NA
ATOM      5  H   UNL d   1       0.235   0.770  -1.804  0.00  0.00     0.140 HD
BRANCH   4   6
ATOM      6  C   UNL d   1      -1.146   1.450  -0.390  0.00  0.00     0.144 C 
BRANCH   6   7
ATOM      7  C   UNL d   1      -1.640   2.517  -1.327  0.00  0.00    -0.026 A 
ATOM      8  C   UNL d   1      -0.993   3.724  -1.520  0.00  0.00     0.059 A 
ATOM      9  S   UNL d   1      -1.802   4.753  -2.604  0.00  0.00    -0.101 SA
ATOM     10  C   UNL d   1      -3.071   3.618  -2.845  0.00  0.00     0.015 A 
ATOM     11  C   UNL d   1      -2.862   2.448  -2.106  0.00  0.00    -0.011 A 
ATOM     12  C   UNL d   1      -4.205   3.788  -3.666  0.00  0.00     0.019 A 
ATOM     13  C   UNL d   1      -3.841   1.425  -2.214  0.00  0.00     0.013 A 
ATOM     14  C   UNL d   1      -4.966   1.589  -3.028  0.00  0.00     0.001 A 
ATOM     15  C   UNL d   1      -5.146   2.761  -3.745  0.00  0.00     0.001 A 
ENDBRANCH   6   7
ENDBRANCH   4   6
ENDBRANCH   1   4
BRANCH   1  16
ATOM     16  C   UNL d   1       0.490  -1.628  -0.489  0.00  0.00     0.074 A 
ATOM     17  C   UNL d   1       1.308  -2.277  -1.417  0.00  0.00     0.027 A 
ATOM     18  C   UNL d   1       0.966  -3.556  -1.869  0.00  0.00     0.031 A 
ATOM     19  C   UNL d   1      -0.189  -4.197  -1.399  0.00  0.00     0.034 A 
ATOM     20  C   UNL d   1      -0.996  -3.535  -0.468  0.00  0.00     0.031 A 
ATOM     21  C   UNL d   1      -0.656  -2.257  -0.004  0.00  0.00     0.027 A 
BRANCH  19  22
ATOM     22  N   UNL d   1      -0.450  -5.497  -1.887  0.00  0.00    -0.328 N 
ATOM     23  C   UNL d   1      -1.522  -6.310  -1.576  0.00  0.00     0.218 C 
ATOM     24  O   UNL d   1      -2.460  -6.035  -0.833  0.00  0.00    -0.274 OA
ATOM     25  C   UNL d   1      -1.470  -7.656  -2.259  0.00  0.00     0.117 C 
ATOM     26  H   UNL d   1       0.235  -5.870  -2.532  0.00  0.00     0.169 HD
ENDBRANCH  19  22
ENDBRANCH   1  16
TORSDOF 5
