REMARK  2 active torsions:
REMARK  status: ('A' for Active; 'I' for Inactive)
REMARK    1  A    between atoms: C_10  and  C_6 
REMARK    2  A    between atoms: O_18  and  C_14 
ROOT
ATOM      1  C   UNL d   1      -1.691  -0.697   0.032  0.00  0.00     0.069 A 
ATOM      2  C   UNL d   1      -0.945   0.463   0.026  0.00  0.00     0.062 A 
ATOM      3  N   UNL d   1      -1.815   1.526   0.033  0.00  0.00    -0.354 N 
ATOM      4  C   UNL d   1      -1.070  -2.010   0.019  0.00  0.00     0.301 A 
ATOM      5  C   UNL d   1      -3.052  -0.321   0.047  0.00  0.00     0.050 A 
ATOM      6  C   UNL d   1      -3.121   1.067   0.041  0.00  0.00     0.044 A 
ATOM      7  C   UNL d   1       0.503   0.453   0.013  0.00  0.00     0.026 A 
ATOM      8  O   UNL d   1       0.341  -2.013   0.004  0.00  0.00    -0.274 OA
ATOM      9  C   UNL d   1       1.111  -0.815   0.003  0.00  0.00     0.092 A 
ATOM     10  O   UNL d   1      -1.711  -3.055   0.021  0.00  0.00    -0.259 OA
ATOM     11  C   UNL d   1       1.314   1.586   0.011  0.00  0.00     0.016 A 
ATOM     12  C   UNL d   1       2.494  -0.970  -0.006  0.00  0.00     0.038 A 
ATOM     13  C   UNL d   1       2.708   1.439   0.004  0.00  0.00     0.001 A 
ATOM     14  C   UNL d   1       3.295   0.169  -0.004  0.00  0.00     0.003 A 
ATOM     15  H   UNL d   1      -1.550   2.500   0.044  0.00  0.00     0.166 HD
ENDROOT
BRANCH   6  16
ATOM     16  C   UNL d   1      -4.312   1.921   0.023  0.00  0.00    -0.009 A 
ATOM     17  C   UNL d   1      -5.488   1.475   0.641  0.00  0.00     0.016 A 
ATOM     18  C   UNL d   1      -6.677   2.196   0.526  0.00  0.00     0.037 A 
ATOM     19  C   UNL d   1      -6.713   3.392  -0.188  0.00  0.00     0.068 A 
ATOM     20  C   UNL d   1      -5.541   3.869  -0.776  0.00  0.00     0.037 A 
ATOM     21  C   UNL d   1      -4.347   3.137  -0.670  0.00  0.00     0.016 A 
BRANCH  19  22
ATOM     22  O   UNL d   1      -7.954   3.951  -0.303  0.00  0.00    -0.356 OA
ATOM     23  C   UNL d   1      -8.004   5.357  -0.497  0.00  0.00     0.210 C 
ENDBRANCH  19  22
ENDBRANCH   6  16
TORSDOF 2
