REMARK  1 active torsions:
REMARK  status: ('A' for Active; 'I' for Inactive)
REMARK    1  A    between atoms: C_7  and  N_1 
ROOT
ATOM      1  N   UNL d   1       2.369  -0.706   0.032  0.00  0.00    -0.220 N 
ATOM      2  C   UNL d   1       1.190  -1.472  -0.001  0.00  0.00     0.278 A 
ATOM      3  N   UNL d   1       2.378   0.670   0.176  0.00  0.00    -0.301 N 
ATOM      4  HN  UNL d   1       3.257   1.176   0.278  1.00  0.00     0.186 HD
ATOM      5  C   UNL d   1      -0.081  -0.721   0.012  0.00  0.00     0.045 A 
ATOM      6  C   UNL d   1       1.248   1.303   0.178  0.00  0.00     0.120 A 
ATOM      7  O   UNL d   1       1.112  -2.699  -0.024  0.00  0.00    -0.265 OA
ATOM      8  C   UNL d   1      -0.051   0.659   0.061  0.00  0.00    -0.004 A 
ATOM      9  C   UNL d   1      -1.310  -1.388  -0.047  0.00  0.00     0.018 A 
ATOM     10  C   UNL d   1      -1.230   1.407   0.019  0.00  0.00     0.014 A 
ATOM     11  C   UNL d   1      -2.497  -0.654  -0.080  0.00  0.00     0.001 A 
ATOM     12  C   UNL d   1      -2.456   0.742  -0.057  0.00  0.00     0.001 A 
ENDROOT
BRANCH   1  13
ATOM     13  C   UNL d   1       3.674  -1.288  -0.102  0.00  0.00     0.060 A 
ATOM     14  C   UNL d   1       3.870  -2.523  -0.743  0.00  0.00     0.034 A 
ATOM     15  C   UNL d   1       5.148  -3.071  -0.886  0.00  0.00     0.044 A 
ATOM     16  C   UNL d   1       6.245  -2.392  -0.378  0.00  0.00     0.116 A 
ATOM     17  C   UNL d   1       6.088  -1.168   0.257  0.00  0.00     0.044 A 
ATOM     18  F   UNL d   1       7.468  -2.921  -0.508  0.00  0.00    -0.206 F 
ATOM     19  C   UNL d   1       4.810  -0.612   0.381  0.00  0.00     0.034 A 
ENDBRANCH   1  13
TORSDOF 1
