REMARK  5 active torsions:
REMARK  status: ('A' for Active; 'I' for Inactive)
REMARK    1  A    between atoms: C_6  and  C_1 
REMARK    2  A    between atoms: C_5  and  C_2 
REMARK    3  A    between atoms: O_10  and  C_5 
REMARK    4  A    between atoms: C_12  and  C_7 
REMARK    5  A    between atoms: C_11  and  O_10 
ROOT
ATOM      1  C   UNL d   1      -1.603  -0.320   0.111  0.00  0.00     0.087 A 
ATOM      2  C   UNL d   1      -0.261  -0.793   0.190  0.00  0.00     0.100 A 
ATOM      3  N   UNL d   1      -1.628   0.906  -0.439  0.00  0.00    -0.259 N 
ATOM      4  HN  UNL d   1      -2.458   1.450  -0.674  1.00  0.00     0.195 HD
ATOM      5  O   UNL d   1      -0.322   1.285  -0.624  0.00  0.00    -0.241 OA
ATOM      6  C   UNL d   1       0.499   0.280  -0.237  0.00  0.00     0.091 A 
ATOM      7  C   UNL d   1       1.946   0.586  -0.297  0.00  0.00     0.080 C 
ENDROOT
BRANCH   2   8
ATOM      8  C   UNL d   1       0.275  -2.052   0.649  0.00  0.00     0.303 C 
ATOM      9  O   UNL d   1      -0.164  -2.688   1.601  0.00  0.00    -0.259 OA
BRANCH   8  10
ATOM     10  O   UNL d   1       1.354  -2.442  -0.144  0.00  0.00    -0.274 OA
BRANCH  10  11
ATOM     11  C   UNL d   1       2.560  -3.030   0.319  0.00  0.00     0.093 A 
ATOM     12  C   UNL d   1       3.526  -3.348  -0.651  0.00  0.00     0.046 A 
ATOM     13  C   UNL d   1       4.835  -3.643  -0.256  0.00  0.00     0.060 A 
ATOM     14  C   UNL d   1       5.152  -3.653   1.095  0.00  0.00     0.117 A 
ATOM     15  C   UNL d   1       4.187  -3.383   2.062  0.00  0.00     0.045 A 
ATOM     16  F   UNL d   1       6.410  -3.906   1.474  0.00  0.00    -0.206 F 
ATOM     17  C   UNL d   1       2.883  -3.063   1.678  0.00  0.00     0.041 A 
BRANCH  12  18
ATOM     18  C   UNL d   1       3.253  -3.300  -2.108  0.00  0.00     0.158 C 
ATOM     19  O   UNL d   1       4.087  -2.790  -2.852  0.00  0.00    -0.293 OA
ATOM     20  C   UNL d   1       1.993  -3.929  -2.643  0.00  0.00     0.097 C 
ENDBRANCH  12  18
ENDBRANCH  10  11
ENDBRANCH   8  10
ENDBRANCH   2   8
BRANCH   1  21
ATOM     21  C   UNL d   1      -2.870  -0.955   0.476  0.00  0.00     0.037 A 
ATOM     22  C   UNL d   1      -3.750  -0.321   1.381  0.00  0.00     0.048 A 
ATOM     23 CL   UNL d   1      -3.324   1.117   2.255  0.00  0.00    -0.083 Cl
ATOM     24  C   UNL d   1      -5.024  -0.843   1.636  0.00  0.00     0.025 A 
ATOM     25  C   UNL d   1      -5.437  -2.017   1.017  0.00  0.00     0.003 A 
ATOM     26  C   UNL d   1      -4.572  -2.676   0.147  0.00  0.00     0.025 A 
ATOM     27  C   UNL d   1      -3.301  -2.149  -0.130  0.00  0.00     0.048 A 
ATOM     28 CL   UNL d   1      -2.341  -3.015  -1.284  0.00  0.00    -0.083 Cl
ENDBRANCH   1  21
TORSDOF 5
