REMARK  6 active torsions:
REMARK  status: ('A' for Active; 'I' for Inactive)
REMARK    1  A    between atoms: N_5  and  C_1 
REMARK    2  A    between atoms: N_7  and  C_1 
REMARK    3  A    between atoms: C_2  and  N_5 
REMARK    4  A    between atoms: C_3  and  C_8 
REMARK    5  A    between atoms: N_6  and  C_4 
REMARK    6  A    between atoms: C_9  and  N_7 
ROOT
ATOM      1  C   UNL d   1       1.099   1.673  -1.799  0.00  0.00     0.056 A 
ATOM      2  C   UNL d   1       2.236   1.082  -2.405  0.00  0.00     0.037 A 
ATOM      3  C   UNL d   1       1.449   3.754  -3.014  0.00  0.00     0.050 A 
ATOM      4  C   UNL d   1       0.737   2.998  -2.079  0.00  0.00     0.047 A 
ATOM      5  C   UNL d   1       2.947   1.860  -3.331  0.00  0.00     0.027 A 
ATOM      6  C   UNL d   1       2.556   3.171  -3.640  0.00  0.00     0.018 A 
ENDROOT
BRANCH   1   7
ATOM      7  N   UNL d   1       0.408   0.939  -0.814  0.00  0.00    -0.332 N 
ATOM      8  H   UNL d   1       0.974   0.229  -0.353  0.00  0.00     0.168 HD
BRANCH   7   9
ATOM      9  C   UNL d   1      -0.928   0.925  -0.485  0.00  0.00     0.176 C 
ATOM     10  S   UNL d   1      -1.325   0.348   1.032  0.00  0.00    -0.041 SA
BRANCH   9  11
ATOM     11  N   UNL d   1      -1.780   1.356  -1.480  0.00  0.00    -0.331 N 
ATOM     12  H   UNL d   1      -1.347   1.913  -2.199  0.00  0.00     0.168 HD
BRANCH  11  13
ATOM     13  C   UNL d   1      -3.162   1.149  -1.689  0.00  0.00     0.073 A 
ATOM     14  C   UNL d   1      -3.893   0.038  -1.249  0.00  0.00     0.145 A 
ATOM     15  C   UNL d   1      -5.243  -0.108  -1.559  0.00  0.00     0.086 A 
ATOM     16  F   UNL d   1      -3.299  -0.997  -0.637  0.00  0.00    -0.204 F 
ATOM     17  C   UNL d   1      -5.869   0.852  -2.337  0.00  0.00     0.119 A 
ATOM     18  C   UNL d   1      -5.167   1.950  -2.818  0.00  0.00     0.044 A 
ATOM     19  F   UNL d   1      -7.160   0.704  -2.660  0.00  0.00    -0.206 F 
ATOM     20  C   UNL d   1      -3.813   2.092  -2.502  0.00  0.00     0.036 A 
ENDBRANCH  11  13
ENDBRANCH   9  11
ENDBRANCH   7   9
ENDBRANCH   1   7
BRANCH   2  21
ATOM     21  N   UNL d   1       2.594  -0.247  -2.086  0.00  0.00    -0.281 NA
ATOM     22  C   UNL d   1       4.010  -0.620  -2.247  0.00  0.00     0.096 C 
ATOM     23  C   UNL d   1       4.269  -1.945  -1.527  0.00  0.00     0.015 C 
ATOM     24  C   UNL d   1       3.320  -3.041  -2.008  0.00  0.00     0.002 C 
ATOM     25  C   UNL d   1       1.866  -2.578  -1.944  0.00  0.00     0.015 C 
ATOM     26  C   UNL d   1       1.674  -1.248  -2.672  0.00  0.00     0.096 C 
ENDBRANCH   2  21
BRANCH   3  27
ATOM     27  C   UNL d   1       1.043   5.172  -3.331  0.00  0.00     0.417 C 
ATOM     28  F   UNL d   1      -0.075   5.574  -2.665  0.00  0.00    -0.166 F 
ATOM     29  F   UNL d   1       2.010   6.079  -3.027  0.00  0.00    -0.166 F 
ATOM     30  F   UNL d   1       0.764   5.344  -4.653  0.00  0.00    -0.166 F 
ENDBRANCH   3  27
TORSDOF 6
