REMARK  2 active torsions:
REMARK  status: ('A' for Active; 'I' for Inactive)
REMARK    1  A    between atoms: C_4  and  N_1 
REMARK    2  A    between atoms: C_17  and  C_11 
ROOT
ATOM      1  N   UNL d   1       0.640   1.144  -0.467  0.00  0.00    -0.251 N 
ATOM      2  C   UNL d   1       1.417   0.102   0.024  0.00  0.00     0.232 C 
ATOM      3  C   UNL d   1      -0.705   1.290  -0.154  0.00  0.00     0.232 C 
ATOM      4  C   UNL d   1       0.719  -1.228   0.202  0.00  0.00     0.113 C 
ATOM      5  C   UNL d   1      -1.482  -0.006  -0.098  0.00  0.00     0.113 C 
ATOM      6  C   UNL d   1      -0.768  -1.186   0.561  0.00  0.00    -0.031 C 
ATOM      7  O   UNL d   1      -1.306   2.358  -0.044  0.00  0.00    -0.273 OA
ATOM      8  O   UNL d   1       2.631   0.176   0.233  0.00  0.00    -0.273 OA
ATOM      9  C   UNL d   1      -1.424  -2.485   0.040  0.00  0.00     0.016 C 
ATOM     10  C   UNL d   1      -0.950  -1.140   2.088  0.00  0.00     0.016 C 
ENDROOT
BRANCH   1  11
ATOM     11  C   UNL d   1       1.327   2.225  -1.110  0.00  0.00     0.057 A 
ATOM     12  C   UNL d   1       1.561   3.459  -0.472  0.00  0.00    -0.034 A 
ATOM     13  C   UNL d   1       2.199   4.487  -1.188  0.00  0.00     0.009 A 
ATOM     14  C   UNL d   1       1.163   3.758   0.951  0.00  0.00     0.050 C 
ATOM     15  C   UNL d   1       2.615   4.302  -2.497  0.00  0.00     0.001 A 
ATOM     16  C   UNL d   1       2.398   3.082  -3.124  0.00  0.00     0.009 A 
ATOM     17  C   UNL d   1       1.760   2.025  -2.451  0.00  0.00    -0.030 A 
BRANCH  17  18
ATOM     18  C   UNL d   1       1.488   0.756  -3.236  0.00  0.00     0.036 C 
ATOM     19  C   UNL d   1       2.746   0.076  -3.765  0.00  0.00     0.010 C 
ENDBRANCH  17  18
ENDBRANCH   1  11
TORSDOF 2
