REMARK  7 active torsions:
REMARK  status: ('A' for Active; 'I' for Inactive)
REMARK    1  A    between atoms: C_7  and  C_3 
REMARK    2  A    between atoms: C_12  and  C_4 
REMARK    3  A    between atoms: C_10  and  C_20 
REMARK    4  A    between atoms: O_19  and  C_10 
REMARK    5  A    between atoms: C_21  and  C_12 
REMARK    6  A    between atoms: S_18  and  C_21 
REMARK    7  A    between atoms: C_20  and  S_18 
ROOT
ATOM      1  N   UNL d   1      -0.047  -0.347   0.884  0.00  0.00    -0.353 N 
ATOM      2  HN  UNL d   1      -0.514  -0.625   1.747  1.00  0.00     0.166 HD
ATOM      3  C   UNL d   1       0.260   0.958   0.534  0.00  0.00     0.049 A 
ATOM      4  C   UNL d   1       0.351  -1.178  -0.058  0.00  0.00     0.051 A 
ATOM      5  S   UNL d   1       1.166  -0.444  -1.384  0.00  0.00    -0.086 SA
ATOM      6  C   UNL d   1       0.963   1.089  -0.648  0.00  0.00     0.081 A 
ENDROOT
BRANCH   3   7
ATOM      7  C   UNL d   1      -0.141   2.077   1.377  0.00  0.00    -0.007 A 
ATOM      8  C   UNL d   1      -0.273   1.890   2.761  0.00  0.00     0.039 A 
ATOM      9  C   UNL d   1      -0.671   2.944   3.591  0.00  0.00     0.056 A 
ATOM     10 CL   UNL d   1      -0.792   2.634   5.286  0.00  0.00    -0.083 Cl
ATOM     11  C   UNL d   1      -0.954   4.198   3.039  0.00  0.00     0.055 A 
ATOM     12  C   UNL d   1      -0.838   4.390   1.660  0.00  0.00     0.026 A 
ATOM     13 CL   UNL d   1      -1.458   5.545   3.997  0.00  0.00    -0.083 Cl
ATOM     14  C   UNL d   1      -0.433   3.337   0.835  0.00  0.00     0.015 A 
ENDBRANCH   3   7
BRANCH   4  15
ATOM     15  C   UNL d   1       0.077  -2.654  -0.043  0.00  0.00     0.075 C 
BRANCH  15  16
ATOM     16  C   UNL d   1       1.356  -3.488   0.001  0.00  0.00     0.081 C 
BRANCH  16  17
ATOM     17  S   UNL d   1       0.935  -5.268   0.039  0.00  0.00    -0.159 SA
BRANCH  17  18
ATOM     18  C   UNL d   1       2.612  -5.979  -0.031  0.00  0.00     0.184 C 
BRANCH  18  19
ATOM     19  C   UNL d   1       3.369  -5.583  -1.284  0.00  0.00     0.267 C 
ATOM     20  O   UNL d   1       2.876  -5.306  -2.367  0.00  0.00    -0.264 OA
BRANCH  19  21
ATOM     21  O   UNL d   1       4.711  -5.595  -1.028  0.00  0.00    -0.326 OA
ATOM     22  C   UNL d   1       5.512  -5.201  -2.144  0.00  0.00     0.213 C 
ENDBRANCH  19  21
ENDBRANCH  18  19
ENDBRANCH  17  18
ENDBRANCH  16  17
ENDBRANCH  15  16
ENDBRANCH   4  15
TORSDOF 7
