REMARK  7 active torsions:
REMARK  status: ('A' for Active; 'I' for Inactive)
REMARK    1  A    between atoms: N_4  and  S_1 
REMARK    2  A    between atoms: C_5  and  S_1 
REMARK    3  A    between atoms: S_2  and  C_3 
REMARK    4  A    between atoms: C_6  and  S_2 
REMARK    5  A    between atoms: C_3  and  C_7 
REMARK    6  A    between atoms: C_7  and  N_4 
REMARK    7  A    between atoms: C_24  and  N_4 
ROOT
ATOM      1  N   UNL d   1       0.247   1.427  -0.694  0.00  0.00    -0.306 N 
ENDROOT
BRANCH   1   2
ATOM      2  S   UNL d   1       1.211   0.086  -0.202  0.00  0.00     0.260 S 
ATOM      3  O   UNL d   1       2.473   0.200  -0.907  0.00  0.00    -0.200 OA
ATOM      4  O   UNL d   1       0.445  -1.133  -0.274  0.00  0.00    -0.200 OA
BRANCH   2   5
ATOM      5  C   UNL d   1       1.557   0.379   1.526  0.00  0.00     0.079 A 
ATOM      6  C   UNL d   1       0.595   0.098   2.500  0.00  0.00     0.027 A 
ATOM      7  C   UNL d   1       0.928   0.250   3.853  0.00  0.00     0.025 A 
ATOM      8  C   UNL d   1       2.214   0.657   4.218  0.00  0.00     0.034 A 
ATOM      9  C   UNL d   1       3.172   0.931   3.244  0.00  0.00     0.025 A 
ATOM     10 CL   UNL d   1       2.629   0.798   5.881  0.00  0.00    -0.084 Cl
ATOM     11  C   UNL d   1       2.848   0.791   1.895  0.00  0.00     0.027 A 
ENDBRANCH   2   5
ENDBRANCH   1   2
BRANCH   1  12
ATOM     12  C   UNL d   1      -1.243   1.349  -0.545  0.00  0.00     0.150 C 
BRANCH  12  13
ATOM     13  C   UNL d   1      -1.864   0.207  -1.337  0.00  0.00     0.166 C 
BRANCH  13  14
ATOM     14  S   UNL d   1      -3.636   0.295  -1.291  0.00  0.00     0.177 S 
ATOM     15  O   UNL d   1      -4.057   0.255   0.100  0.00  0.00    -0.223 OA
ATOM     16  O   UNL d   1      -4.069   1.368  -2.166  0.00  0.00    -0.223 OA
BRANCH  14  17
ATOM     17  C   UNL d   1      -4.127  -1.247  -2.038  0.00  0.00     0.059 A 
ATOM     18  C   UNL d   1      -4.251  -2.389  -1.239  0.00  0.00     0.025 A 
ATOM     19  C   UNL d   1      -4.604  -3.607  -1.827  0.00  0.00     0.025 A 
ATOM     20  C   UNL d   1      -4.842  -3.671  -3.201  0.00  0.00     0.034 A 
ATOM     21  C   UNL d   1      -4.739  -2.526  -3.992  0.00  0.00     0.025 A 
ATOM     22 CL   UNL d   1      -5.265  -5.173  -3.924  0.00  0.00    -0.084 Cl
ATOM     23  C   UNL d   1      -4.385  -1.304  -3.412  0.00  0.00     0.025 A 
ENDBRANCH  14  17
ENDBRANCH  13  14
ENDBRANCH  12  13
ENDBRANCH   1  12
BRANCH   1  24
ATOM     24  C   UNL d   1       0.862   2.747  -0.337  0.00  0.00     0.131 C 
ATOM     25  C   UNL d   1       0.299   3.928  -1.106  0.00  0.00     0.027 C 
ENDBRANCH   1  24
TORSDOF 7
