REMARK  3 active torsions:
REMARK  status: ('A' for Active; 'I' for Inactive)
REMARK    1  A    between atoms: C_3  and  C_1 
REMARK       I    between atoms: N_5  and  C_1 
REMARK    2  A    between atoms: C_2  and  C_3 
REMARK    3  A    between atoms: C_7  and  N_5 
ROOT
ATOM      1  C   UNL d   1       0.816   0.027  -0.082  0.00  0.00     0.226 C 
ATOM      2  N   UNL d   1       1.107   1.103  -0.902  0.00  0.00    -0.327 N 
ATOM      3  O   UNL d   1       0.938  -1.159  -0.394  0.00  0.00    -0.273 OA
ATOM      4  H   UNL d   1       1.124   2.022  -0.475  0.00  0.00     0.169 HD
ENDROOT
BRANCH   1   5
ATOM      5  C   UNL d   1       0.241   0.395   1.275  0.00  0.00     0.142 C 
BRANCH   5   6
ATOM      6  C   UNL d   1       1.235   0.853   2.324  0.00  0.00    -0.038 A 
ATOM      7  C   UNL d   1       2.294   0.030   2.815  0.00  0.00    -0.019 A 
ATOM      8  C   UNL d   1       3.158   0.551   3.815  0.00  0.00    -0.025 A 
ATOM      9  C   UNL d   1       2.543  -1.295   2.387  0.00  0.00     0.013 A 
ATOM     10  C   UNL d   1       4.230  -0.218   4.301  0.00  0.00     0.012 A 
ATOM     11  C   UNL d   1       2.936   1.833   4.334  0.00  0.00     0.012 A 
ATOM     12  C   UNL d   1       4.466  -1.505   3.825  0.00  0.00     0.001 A 
ATOM     13  C   UNL d   1       3.617  -2.047   2.873  0.00  0.00     0.001 A 
ATOM     14  C   UNL d   1       1.878   2.614   3.881  0.00  0.00     0.001 A 
ATOM     15  C   UNL d   1       1.039   2.131   2.882  0.00  0.00     0.008 A 
ENDBRANCH   5   6
ENDBRANCH   1   5
BRANCH   2  16
ATOM     16  C   UNL d   1       1.469   1.031  -2.272  0.00  0.00     0.034 A 
ATOM     17  C   UNL d   1       1.388  -0.146  -3.023  0.00  0.00     0.031 A 
ATOM     18  C   UNL d   1       1.749  -0.169  -4.374  0.00  0.00     0.020 A 
ATOM     19  C   UNL d   1       2.191   0.996  -4.991  0.00  0.00     0.006 A 
ATOM     20  C   UNL d   1       2.269   2.182  -4.265  0.00  0.00     0.020 A 
ATOM     21  I   UNL d   1       2.723   0.955  -6.998  0.00  0.00    -0.045 I 
ATOM     22  C   UNL d   1       1.904   2.200  -2.910  0.00  0.00     0.031 A 
ENDBRANCH   2  16
TORSDOF 3
