REMARK  5 active torsions:
REMARK  status: ('A' for Active; 'I' for Inactive)
REMARK    1  A    between atoms: S_14  and  C_6 
REMARK       I    between atoms: C_9  and  N_13 
REMARK    2  A    between atoms: C_17  and  C_9 
REMARK    3  A    between atoms: C_12  and  C_20 
REMARK       I    between atoms: N_16  and  C_12 
REMARK    4  A    between atoms: N_13  and  N_16 
REMARK    5  A    between atoms: C_20  and  S_14 
ROOT
ATOM      1  S   UNL d   1       1.426  -3.420   0.086  0.00  0.00    -0.102 SA
ENDROOT
BRANCH   1   2
ATOM      2  C   UNL d   1       1.436  -1.642  -0.098  0.00  0.00     0.084 A 
ATOM      3  C   UNL d   1       2.611  -0.882  -0.283  0.00  0.00     0.039 A 
ATOM      4  C   UNL d   1       2.376   0.467  -0.542  0.00  0.00     0.089 A 
ATOM      5  C   UNL d   1       4.045  -1.132  -0.278  0.00  0.00    -0.029 A 
ATOM      6  S   UNL d   1       3.785   1.366  -0.851  0.00  0.00    -0.075 SA
ATOM      7  N   UNL d   1       1.190   1.096  -0.588  0.00  0.00    -0.346 N 
ATOM      8  C   UNL d   1       4.765   0.006  -0.620  0.00  0.00    -0.008 A 
ATOM      9  C   UNL d   1       6.254   0.106  -0.746  0.00  0.00     0.047 C 
ATOM     10  C   UNL d   1       6.876  -1.291  -0.836  0.00  0.00     0.005 C 
ATOM     11  C   UNL d   1       6.274  -2.228   0.218  0.00  0.00     0.005 C 
ATOM     12  C   UNL d   1       4.758  -2.424   0.020  0.00  0.00     0.040 C 
ATOM     13  C   UNL d   1       0.169   0.284  -0.350  0.00  0.00     0.182 A 
ATOM     14  HN  UNL d   1       1.087   2.091  -0.784  1.00  0.00     0.167 HD
ATOM     15  N   UNL d   1       0.228  -1.029  -0.114  0.00  0.00    -0.346 N 
ATOM     16  HN  UNL d   1      -0.625  -1.563   0.052  1.00  0.00     0.167 HD
ENDBRANCH   1   2
BRANCH   1  17
ATOM     17  C   UNL d   1      -0.340  -3.704  -0.269  0.00  0.00     0.185 C 
BRANCH  17  18
ATOM     18  C   UNL d   1      -0.827  -5.136  -0.312  0.00  0.00     0.245 C 
ATOM     19  N   UNL d   1      -0.098  -6.108   0.328  0.00  0.00    -0.267 N 
ATOM     20  H   UNL d   1       0.872  -5.991   0.614  0.00  0.00     0.190 HD
ATOM     21  O   UNL d   1      -1.923  -5.407  -0.818  0.00  0.00    -0.271 OA
BRANCH  19  22
ATOM     22  N   UNL d   1      -0.654  -7.400   0.383  0.00  0.00    -0.263 N 
ATOM     23  C   UNL d   1       0.179  -8.498   0.329  0.00  0.00     0.270 C 
ATOM     24  O   UNL d   1       1.403  -8.420   0.287  0.00  0.00    -0.266 OA
ATOM     25  H   UNL d   1      -1.629  -7.464   0.088  0.00  0.00     0.190 HD
BRANCH  23  26
ATOM     26  C   UNL d   1      -0.499  -9.826   0.327  0.00  0.00     0.033 A 
ATOM     27  C   UNL d   1       0.100 -10.894  -0.355  0.00  0.00     0.019 A 
ATOM     28  C   UNL d   1      -0.479 -12.166  -0.315  0.00  0.00     0.025 A 
ATOM     29  C   UNL d   1      -1.647 -12.374   0.417  0.00  0.00     0.034 A 
ATOM     30  C   UNL d   1      -2.251 -11.319   1.100  0.00  0.00     0.025 A 
ATOM     31 CL   UNL d   1      -2.338 -13.948   0.498  0.00  0.00    -0.084 Cl
ATOM     32  C   UNL d   1      -1.680 -10.042   1.055  0.00  0.00     0.019 A 
ENDBRANCH  23  26
ENDBRANCH  19  22
ENDBRANCH  17  18
ENDBRANCH   1  17
TORSDOF 5
