REMARK  4 active torsions:
REMARK  status: ('A' for Active; 'I' for Inactive)
REMARK    1  A    between atoms: C_5  and  C_1 
REMARK    2  A    between atoms: C_8  and  C_5 
REMARK    3  A    between atoms: N_11  and  C_8 
REMARK    4  A    between atoms: O_12  and  N_9 
ROOT
ATOM      1  C   UNL d   1      -6.628   0.771  -0.057  0.00  0.00     0.058 A 
ATOM      2  N   UNL d   1      -7.944   0.738  -0.003  0.00  0.00    -0.352 N 
ATOM      3  HN  UNL d   1      -8.504  -0.113   0.042  1.00  0.00     0.166 HD
ATOM      4  S   UNL d   1      -5.932   2.342  -0.056  0.00  0.00    -0.074 SA
ATOM      5  C   UNL d   1      -8.456   2.024  -0.015  0.00  0.00     0.050 A 
ATOM      6  C   UNL d   1      -7.505   3.045  -0.029  0.00  0.00     0.033 A 
ATOM      7  C   UNL d   1      -9.823   2.369  -0.025  0.00  0.00     0.031 A 
ATOM      8  C   UNL d   1      -7.874   4.402  -0.031  0.00  0.00     0.021 A 
ATOM      9  C   UNL d   1     -10.202   3.716  -0.041  0.00  0.00     0.002 A 
ATOM     10  C   UNL d   1      -9.237   4.718  -0.039  0.00  0.00     0.002 A 
ENDROOT
BRANCH   1  11
ATOM     11  C   UNL d   1      -5.778  -0.453  -0.183  0.00  0.00     0.136 C 
BRANCH  11  12
ATOM     12  C   UNL d   1      -4.872  -0.632   1.022  0.00  0.00     0.081 C 
ATOM     13  N   UNL d   1      -3.586  -0.635   0.810  0.00  0.00    -0.262 N 
ATOM     14  HN  UNL d   1      -3.150  -0.507  -0.103  1.00  0.00     0.195 HD
BRANCH  13  15
ATOM     15  O   UNL d   1      -2.880  -0.838   2.008  0.00  0.00    -0.289 OA
ATOM     16  H   UNL d   1      -1.967  -0.960   1.686  0.00  0.00     0.244 HD
ENDBRANCH  13  15
BRANCH  12  17
ATOM     17  N   UNL d   1      -5.427  -0.822   2.266  0.00  0.00    -0.290 NA
ATOM     18  H   UNL d   1      -6.320  -0.375   2.448  0.00  0.00     0.125 HD
ATOM     19  H   UNL d   1      -4.739  -0.701   3.003  0.00  0.00     0.125 HD
ENDBRANCH  12  17
ENDBRANCH  11  12
ENDBRANCH   1  11
TORSDOF 4
