REMARK  3 active torsions:
REMARK  status: ('A' for Active; 'I' for Inactive)
REMARK    1  A    between atoms: C_2  and  C_1 
REMARK       I    between atoms: N_3  and  C_2 
REMARK    2  A    between atoms: C_4  and  N_3 
REMARK    3  A    between atoms: O_19  and  C_14 
ROOT
ATOM      1  C   UNL d   1       0.321  -2.469  -0.199  0.00  0.00     0.257 C 
ATOM      2  N   UNL d   1       1.039  -3.632  -0.000  0.00  0.00    -0.323 N 
ATOM      3  O   UNL d   1      -0.871  -2.432  -0.497  0.00  0.00    -0.267 OA
ATOM      4  H   UNL d   1       1.966  -3.537   0.398  0.00  0.00     0.169 HD
ENDROOT
BRANCH   1   5
ATOM      5  C   UNL d   1       1.048  -1.162  -0.080  0.00  0.00     0.052 A 
ATOM      6  C   UNL d   1       2.229  -0.912   0.636  0.00  0.00     0.026 A 
ATOM      7  C   UNL d   1       2.794   0.372   0.627  0.00  0.00     0.023 A 
ATOM      8 BR   UNL d   1       3.142  -2.192   1.706  0.00  0.00    -0.050 Br
ATOM      9  C   UNL d   1       2.192   1.409  -0.086  0.00  0.00     0.038 A 
ATOM     10  C   UNL d   1       1.026   1.180  -0.808  0.00  0.00     0.069 A 
ATOM     11  C   UNL d   1       0.453  -0.091  -0.788  0.00  0.00     0.055 A 
BRANCH  10  12
ATOM     12  O   UNL d   1       0.529   2.267  -1.471  0.00  0.00    -0.356 OA
ATOM     13  C   UNL d   1      -0.338   1.989  -2.567  0.00  0.00     0.210 C 
ENDBRANCH  10  12
ENDBRANCH   1   5
BRANCH   2  14
ATOM     14  C   UNL d   1       0.599  -4.953  -0.244  0.00  0.00     0.038 A 
ATOM     15  C   UNL d   1      -0.561  -5.261  -0.959  0.00  0.00     0.053 A 
ATOM     16  C   UNL d   1      -0.907  -6.593  -1.202  0.00  0.00     0.037 A 
ATOM     17 CL   UNL d   1      -2.323  -6.953  -2.115  0.00  0.00    -0.084 Cl
ATOM     18  C   UNL d   1      -0.116  -7.632  -0.729  0.00  0.00     0.048 A 
ATOM     19  C   UNL d   1       1.037  -7.327  -0.012  0.00  0.00     0.037 A 
ATOM     20  C   UNL d   1       1.402  -5.999   0.225  0.00  0.00     0.053 A 
ATOM     21 CL   UNL d   1       2.028  -8.602   0.585  0.00  0.00    -0.084 Cl
ENDBRANCH   2  14
TORSDOF 3
