REMARK  8 active torsions:
REMARK  status: ('A' for Active; 'I' for Inactive)
REMARK    1  A    between atoms: C_4  and  S_1 
REMARK    2  A    between atoms: N_5  and  S_1 
REMARK    3  A    between atoms: C_8  and  C_2 
REMARK    4  A    between atoms: C_3  and  O_10 
REMARK    5  A    between atoms: C_6  and  N_5 
REMARK    6  A    between atoms: C_7  and  C_14 
REMARK    7  A    between atoms: O_30  and  C_8 
REMARK    8  A    between atoms: O_10  and  C_13 
ROOT
ATOM      1  C   UNL d   1       0.896   2.645  -0.880  0.00  0.00     0.057 A 
ATOM      2  C   UNL d   1      -0.120   3.616  -0.832  0.00  0.00     0.098 A 
ATOM      3  C   UNL d   1       2.591   4.384  -0.625  0.00  0.00     0.049 A 
ATOM      4  C   UNL d   1       2.239   3.038  -0.800  0.00  0.00     0.043 A 
ATOM      5  C   UNL d   1       1.571   5.335  -0.500  0.00  0.00     0.019 A 
ATOM      6  C   UNL d   1       0.231   4.952  -0.581  0.00  0.00     0.040 A 
ENDROOT
BRANCH   1   7
ATOM      7  N   UNL d   1       0.652   1.239  -0.983  0.00  0.00    -0.179 NA
ATOM      8  H   UNL d   1      -0.017   0.960  -1.702  0.00  0.00     0.146 HD
BRANCH   7   9
ATOM      9  S   UNL d   1       0.294   0.388   0.448  0.00  0.00     0.246 S 
ATOM     10  O   UNL d   1      -0.624   1.191   1.230  0.00  0.00    -0.206 OA
ATOM     11  O   UNL d   1      -0.068  -0.952   0.051  0.00  0.00    -0.206 OA
BRANCH   9  12
ATOM     12  C   UNL d   1       1.841   0.274   1.362  0.00  0.00     0.081 A 
ATOM     13  C   UNL d   1       1.839   0.799   2.671  0.00  0.00     0.033 A 
ATOM     14  C   UNL d   1       2.982   0.745   3.490  0.00  0.00    -0.039 A 
ATOM     15  C   UNL d   1       2.923   1.280   4.894  0.00  0.00     0.050 C 
ATOM     16  C   UNL d   1       4.152   0.193   2.962  0.00  0.00     0.040 A 
ATOM     17  C   UNL d   1       4.153  -0.354   1.675  0.00  0.00     0.032 A 
ATOM     18 CL   UNL d   1       5.622   0.144   3.865  0.00  0.00    -0.084 Cl
ATOM     19  C   UNL d   1       2.993  -0.362   0.869  0.00  0.00    -0.037 A 
ATOM     20  C   UNL d   1       3.112  -1.034  -0.469  0.00  0.00     0.050 C 
ENDBRANCH   9  12
ENDBRANCH   7   9
ENDBRANCH   1   7
BRANCH   2  21
ATOM     21  O   UNL d   1      -1.443   3.251  -1.003  0.00  0.00    -0.307 OA
BRANCH  21  22
ATOM     22  C   UNL d   1      -2.323   4.053  -1.680  0.00  0.00     0.099 A 
ATOM     23  C   UNL d   1      -3.689   4.041  -1.433  0.00  0.00     0.114 A 
ATOM     24  S   UNL d   1      -4.508   5.198  -2.420  0.00  0.00    -0.093 SA
ATOM     25  C   UNL d   1      -3.070   5.675  -3.197  0.00  0.00     0.053 A 
ATOM     26  C   UNL d   1      -1.984   4.972  -2.732  0.00  0.00     0.046 A 
BRANCH  23  27
ATOM     27  C   UNL d   1      -4.515   3.269  -0.516  0.00  0.00     0.302 C 
ATOM     28  O   UNL d   1      -5.709   3.454  -0.296  0.00  0.00    -0.259 OA
BRANCH  27  29
ATOM     29  O   UNL d   1      -3.784   2.283   0.073  0.00  0.00    -0.322 OA
ATOM     30  C   UNL d   1      -4.532   1.448   0.958  0.00  0.00     0.213 C 
ENDBRANCH  27  29
ENDBRANCH  23  27
ENDBRANCH  21  22
ENDBRANCH   2  21
BRANCH   3  31
ATOM     31  C   UNL d   1       4.035   4.811  -0.546  0.00  0.00     0.417 C 
ATOM     32  F   UNL d   1       4.915   3.778  -0.656  0.00  0.00    -0.166 F 
ATOM     33  F   UNL d   1       4.370   5.694  -1.526  0.00  0.00    -0.166 F 
ATOM     34  F   UNL d   1       4.325   5.429   0.632  0.00  0.00    -0.166 F 
ENDBRANCH   3  31
TORSDOF 8
