REMARK  5 active torsions:
REMARK  status: ('A' for Active; 'I' for Inactive)
REMARK    1  A    between atoms: N_4  and  C_1 
REMARK    2  A    between atoms: N_9  and  C_1 
REMARK    3  A    between atoms: C_8  and  N_4 
REMARK    4  A    between atoms: N_5  and  N_9 
REMARK    5  A    between atoms: C_14  and  C_13 
ROOT
ATOM      1  C   UNL d   1       1.122  -0.074  -0.042  0.00  0.00     0.191 C 
ATOM      2  S   UNL d   1       0.433   1.411  -0.394  0.00  0.00    -0.039 SA
ENDROOT
BRANCH   1   3
ATOM      3  N   UNL d   1       0.489  -1.271   0.222  0.00  0.00    -0.332 N 
ATOM      4  H   UNL d   1       1.038  -1.866   0.834  0.00  0.00     0.168 HD
BRANCH   3   5
ATOM      5  C   UNL d   1      -0.846  -1.622  -0.041  0.00  0.00     0.035 A 
ATOM      6  C   UNL d   1      -1.529  -2.437   0.864  0.00  0.00     0.053 A 
ATOM      7  C   UNL d   1      -2.871  -2.767   0.634  0.00  0.00     0.042 A 
ATOM      8 CL   UNL d   1      -3.689  -3.704   1.836  0.00  0.00    -0.084 Cl
ATOM      9  C   UNL d   1      -3.534  -2.336  -0.526  0.00  0.00    -0.040 A 
ATOM     10  C   UNL d   1      -2.816  -1.577  -1.458  0.00  0.00     0.011 A 
ATOM     11  C   UNL d   1      -4.979  -2.648  -0.794  0.00  0.00     0.050 C 
ATOM     12  C   UNL d   1      -1.489  -1.223  -1.214  0.00  0.00     0.030 A 
ENDBRANCH   3   5
ENDBRANCH   1   3
BRANCH   1  13
ATOM     13  N   UNL d   1       2.495  -0.126   0.042  0.00  0.00    -0.276 N 
ATOM     14  H   UNL d   1       2.985   0.738  -0.172  0.00  0.00     0.189 HD
BRANCH  13  15
ATOM     15  N   UNL d   1       3.181  -1.305   0.116  0.00  0.00    -0.309 N 
ATOM     16  C   UNL d   1       4.460  -1.168  -0.057  0.00  0.00     0.120 C 
ATOM     17  HN  UNL d   1       2.733  -2.204   0.291  1.00  0.00     0.186 HD
BRANCH  16  18
ATOM     18  C   UNL d   1       5.383  -2.311  -0.080  0.00  0.00    -0.004 A 
ATOM     19  C   UNL d   1       6.744  -2.075  -0.223  0.00  0.00     0.100 A 
ATOM     20  N   UNL d   1       7.674  -3.059  -0.270  0.00  0.00    -0.374 N 
ATOM     21  C   UNL d   1       7.218  -4.327  -0.175  0.00  0.00     0.087 A 
ATOM     22  HN  UNL d   1       8.668  -2.853  -0.372  1.00  0.00     0.164 HD
ATOM     23  C   UNL d   1       5.877  -4.659  -0.038  0.00  0.00     0.018 A 
ATOM     24  C   UNL d   1       4.941  -3.628   0.009  0.00  0.00     0.015 A 
ENDBRANCH  16  18
ENDBRANCH  13  15
ENDBRANCH   1  13
TORSDOF 5
