REMARK  6 active torsions:
REMARK  status: ('A' for Active; 'I' for Inactive)
REMARK    1  A    between atoms: C_12  and  C_3 
REMARK    2  A    between atoms: O_15  and  C_4 
REMARK    3  A    between atoms: S_11  and  C_5 
REMARK    4  A    between atoms: C_8  and  C_10 
REMARK    5  A    between atoms: C_10  and  S_11 
REMARK    6  A    between atoms: C_16  and  C_12 
ROOT
ATOM      1  N   UNL d   1      -0.482   1.335   0.150  0.00  0.00    -0.317 N 
ATOM      2  HN  UNL d   1      -0.906   2.258   0.235  1.00  0.00     0.170 HD
ATOM      3  C   UNL d   1      -0.705  -1.070   0.031  0.00  0.00     0.019 A 
ATOM      4  C   UNL d   1      -1.216   0.212   0.161  0.00  0.00     0.150 A 
ATOM      5  C   UNL d   1       0.836   1.170   0.021  0.00  0.00     0.146 A 
ATOM      6  N   UNL d   1       1.450  -0.018  -0.068  0.00  0.00    -0.340 N 
ATOM      7  HN  UNL d   1       2.465  -0.081  -0.143  1.00  0.00     0.167 HD
ATOM      8  C   UNL d   1       0.681  -1.127  -0.054  0.00  0.00     0.018 A 
ATOM      9  C   UNL d   1       1.434  -2.425  -0.130  0.00  0.00     0.069 C 
ENDROOT
BRANCH   5  10
ATOM     10  S   UNL d   1       1.886   2.594  -0.084  0.00  0.00    -0.089 SA
BRANCH  10  11
ATOM     11  C   UNL d   1       0.893   3.788   0.863  0.00  0.00     0.126 C 
BRANCH  11  12
ATOM     12  C   UNL d   1       1.638   5.089   1.035  0.00  0.00     0.012 A 
ATOM     13  C   UNL d   1       1.437   6.117   0.106  0.00  0.00     0.125 A 
ATOM     14  F   UNL d   1       0.563   5.948  -0.898  0.00  0.00    -0.205 F 
ATOM     15  C   UNL d   1       2.121   7.329   0.184  0.00  0.00     0.043 A 
ATOM     16  C   UNL d   1       3.038   7.539   1.209  0.00  0.00     0.005 A 
ATOM     17  C   UNL d   1       3.260   6.532   2.147  0.00  0.00     0.024 A 
ATOM     18  C   UNL d   1       2.567   5.316   2.062  0.00  0.00     0.044 A 
ATOM     19 CL   UNL d   1       2.910   4.124   3.266  0.00  0.00    -0.084 Cl
ENDBRANCH  11  12
ENDBRANCH  10  11
ENDBRANCH   5  10
BRANCH   4  20
ATOM     20  O   UNL d   1      -2.550   0.448   0.326  0.00  0.00    -0.346 OA
ATOM     21  H   UNL d   1      -2.942  -0.308   0.789  0.00  0.00     0.219 HD
ENDBRANCH   4  20
BRANCH   3  22
ATOM     22  C   UNL d   1      -1.572  -2.299  -0.015  0.00  0.00     0.083 C 
BRANCH  22  23
ATOM     23  C   UNL d   1      -1.651  -3.121   1.255  0.00  0.00    -0.054 A 
ATOM     24  C   UNL d   1      -1.261  -2.636   2.511  0.00  0.00     0.008 A 
ATOM     25  C   UNL d   1      -1.280  -3.469   3.634  0.00  0.00     0.007 A 
ATOM     26  C   UNL d   1      -1.715  -4.793   3.532  0.00  0.00    -0.062 A 
ATOM     27  C   UNL d   1      -2.157  -5.267   2.294  0.00  0.00     0.007 A 
ATOM     28  C   UNL d   1      -1.638  -5.701   4.723  0.00  0.00     0.048 C 
ATOM     29  C   UNL d   1      -2.132  -4.437   1.170  0.00  0.00     0.008 A 
ENDBRANCH  22  23
ENDBRANCH   3  22
TORSDOF 6
