REMARK  3 active torsions:
REMARK  status: ('A' for Active; 'I' for Inactive)
REMARK    1  A    between atoms: C_7  and  N_3 
REMARK    2  A    between atoms: C_8  and  C_4 
REMARK    3  A    between atoms: C_9  and  C_5 
ROOT
ATOM      1  N   UNL d   1       1.153  -0.198   0.112  0.00  0.00    -0.301 N 
ATOM      2  HN  UNL d   1       2.151  -0.397   0.183  1.00  0.00     0.187 HD
ATOM      3  N   UNL d   1       0.143  -1.113   0.120  0.00  0.00    -0.283 N 
ATOM      4  C   UNL d   1       0.606   0.975  -0.002  0.00  0.00     0.038 A 
ATOM      5  C   UNL d   1      -1.188  -0.518  -0.001  0.00  0.00     0.147 A 
ATOM      6  C   UNL d   1      -0.896   0.980  -0.047  0.00  0.00     0.091 A 
ENDROOT
BRANCH   3   7
ATOM      7  C   UNL d   1       0.413  -2.480   0.061  0.00  0.00     0.051 A 
ATOM      8  C   UNL d   1       1.616  -2.992   0.572  0.00  0.00     0.031 A 
ATOM      9  C   UNL d   1       1.888  -4.365   0.572  0.00  0.00     0.002 A 
ATOM     10  C   UNL d   1       0.966  -5.256   0.031  0.00  0.00     0.000 A 
ATOM     11  C   UNL d   1      -0.225  -4.775  -0.499  0.00  0.00     0.002 A 
ATOM     12  C   UNL d   1      -0.499  -3.403  -0.473  0.00  0.00     0.031 A 
ENDBRANCH   3   7
BRANCH   5  13
ATOM     13  C   UNL d   1      -2.101  -0.863   1.165  0.00  0.00    -0.033 A 
ATOM     14  C   UNL d   1      -1.597  -1.068   2.460  0.00  0.00     0.009 A 
ATOM     15  C   UNL d   1      -2.450  -1.376   3.520  0.00  0.00     0.001 A 
ATOM     16  C   UNL d   1      -3.823  -1.466   3.302  0.00  0.00     0.000 A 
ATOM     17  C   UNL d   1      -4.340  -1.253   2.027  0.00  0.00     0.001 A 
ATOM     18  C   UNL d   1      -3.487  -0.952   0.963  0.00  0.00     0.009 A 
ENDBRANCH   5  13
BRANCH   4  19
ATOM     19  C   UNL d   1       1.381   2.233  -0.102  0.00  0.00    -0.012 A 
ATOM     20  C   UNL d   1       2.779   2.182  -0.072  0.00  0.00     0.013 A 
ATOM     21  C   UNL d   1       3.529   3.354  -0.202  0.00  0.00     0.001 A 
ATOM     22  C   UNL d   1       2.884   4.579  -0.364  0.00  0.00     0.000 A 
ATOM     23  C   UNL d   1       1.493   4.638  -0.390  0.00  0.00     0.001 A 
ATOM     24  C   UNL d   1       0.740   3.470  -0.260  0.00  0.00     0.013 A 
ENDBRANCH   4  19
TORSDOF 3
