REMARK  6 active torsions:
REMARK  status: ('A' for Active; 'I' for Inactive)
REMARK    1  A    between atoms: C_3  and  S_1 
REMARK    2  A    between atoms: N_7  and  S_1 
REMARK    3  A    between atoms: S_2  and  C_3 
REMARK    4  A    between atoms: C_4  and  C_5 
REMARK    5  A    between atoms: C_6  and  N_8 
REMARK    6  A    between atoms: N_8  and  N_7 
ROOT
ATOM      1  C   UNL d   1      -0.576   6.060  -2.363  0.00  0.00     0.065 A 
ATOM      2  C   UNL d   1       0.433   3.817  -1.101  0.00  0.00     0.142 A 
ATOM      3  N   UNL d   1      -0.880   3.833  -1.452  0.00  0.00    -0.349 N 
ATOM      4  HN  UNL d   1      -1.489   3.038  -1.257  1.00  0.00     0.167 HD
ATOM      5  C   UNL d   1       1.272   4.915  -1.334  0.00  0.00     0.080 A 
ATOM      6  C   UNL d   1       0.767   6.034  -1.980  0.00  0.00     0.045 A 
ATOM      7  C   UNL d   1      -1.349   4.944  -2.069  0.00  0.00     0.106 A 
ATOM      8 CL   UNL d   1       2.936   4.891  -0.871  0.00  0.00    -0.080 Cl
ENDROOT
BRANCH   2   9
ATOM      9  N   UNL d   1       0.945   2.688  -0.434  0.00  0.00    -0.275 N 
ATOM     10  H   UNL d   1       1.950   2.563  -0.587  0.00  0.00     0.189 HD
BRANCH   9  11
ATOM     11  N   UNL d   1       0.197   1.433  -0.325  0.00  0.00    -0.225 N 
ATOM     12  H   UNL d   1      -0.774   1.385  -0.662  0.00  0.00     0.200 HD
BRANCH  11  13
ATOM     13  S   UNL d   1       1.059  -0.009  -0.131  0.00  0.00     0.257 S 
ATOM     14  O   UNL d   1       0.127  -1.079  -0.377  0.00  0.00    -0.203 OA
ATOM     15  O   UNL d   1       2.277   0.164  -0.902  0.00  0.00    -0.203 OA
BRANCH  13  16
ATOM     16  C   UNL d   1       1.446   0.121   1.576  0.00  0.00     0.303 C 
BRANCH  16  17
ATOM     17  S   UNL d   1       2.523  -1.142   2.146  0.00  0.00     0.155 S 
ATOM     18  O   UNL d   1       2.821  -0.816   3.530  0.00  0.00    -0.227 OA
ATOM     19  O   UNL d   1       1.964  -2.438   1.824  0.00  0.00    -0.227 OA
ATOM     20  C   UNL d   1       4.051  -0.955   1.254  0.00  0.00     0.162 C 
ENDBRANCH  16  17
ENDBRANCH  13  16
ENDBRANCH  11  13
ENDBRANCH   9  11
ENDBRANCH   2   9
BRANCH   1  21
ATOM     21  C   UNL d   1      -1.188   7.232  -3.064  0.00  0.00     0.418 C 
ATOM     22  F   UNL d   1      -0.298   8.234  -3.310  0.00  0.00    -0.166 F 
ATOM     23  F   UNL d   1      -1.718   6.898  -4.270  0.00  0.00    -0.166 F 
ATOM     24  F   UNL d   1      -2.197   7.796  -2.349  0.00  0.00    -0.166 F 
ENDBRANCH   1  21
TORSDOF 6
