REMARK  4 active torsions:
REMARK  status: ('A' for Active; 'I' for Inactive)
REMARK    1  A    between atoms: C_4  and  C_1 
REMARK       I    between atoms: N_5  and  C_1 
REMARK    2  A    between atoms: C_6  and  C_2 
REMARK    3  A    between atoms: C_3  and  N_5 
REMARK    4  A    between atoms: O_14  and  C_6 
ROOT
ATOM      1  C   UNL d   1      -1.925  -2.147   0.975  0.00  0.00     0.066 A 
ATOM      2  C   UNL d   1      -1.249  -1.151   0.236  0.00  0.00     0.052 A 
ATOM      3  C   UNL d   1      -1.995  -0.321  -0.616  0.00  0.00     0.054 A 
ATOM      4  C   UNL d   1      -3.322  -2.277   0.861  0.00  0.00     0.022 A 
ATOM      5  C   UNL d   1      -3.377  -0.464  -0.723  0.00  0.00     0.036 A 
ATOM      6  C   UNL d   1      -4.046  -1.433   0.016  0.00  0.00     0.025 A 
ATOM      7 CL   UNL d   1      -4.265   0.559  -1.784  0.00  0.00    -0.084 Cl
ENDROOT
BRANCH   2   8
ATOM      8  N   UNL d   1       0.159  -1.012   0.335  0.00  0.00    -0.322 N 
ATOM      9  C   UNL d   1       0.873   0.131   0.031  0.00  0.00     0.257 C 
ATOM     10  O   UNL d   1       0.401   1.241  -0.199  0.00  0.00    -0.267 OA
ATOM     11  H   UNL d   1       0.661  -1.786   0.773  0.00  0.00     0.169 HD
BRANCH   9  12
ATOM     12  C   UNL d   1       2.342   0.015   0.071  0.00  0.00     0.054 A 
ATOM     13  C   UNL d   1       3.053  -0.836  -0.781  0.00  0.00     0.049 A 
ATOM     14 CL   UNL d   1       2.279  -1.905  -1.894  0.00  0.00    -0.083 Cl
ATOM     15  C   UNL d   1       4.451  -0.797  -0.784  0.00  0.00     0.025 A 
ATOM     16  C   UNL d   1       5.136   0.084   0.057  0.00  0.00     0.002 A 
ATOM     17  C   UNL d   1       4.427   0.930   0.909  0.00  0.00     0.001 A 
ATOM     18  C   UNL d   1       3.032   0.902   0.912  0.00  0.00     0.019 A 
ENDBRANCH   9  12
ENDBRANCH   2   8
BRANCH   1  19
ATOM     19  C   UNL d   1      -1.171  -3.025   1.911  0.00  0.00     0.295 C 
ATOM     20  O   UNL d   1       0.031  -3.225   1.832  0.00  0.00    -0.259 OA
BRANCH  19  21
ATOM     21  O   UNL d   1      -1.997  -3.499   2.879  0.00  0.00    -0.322 OA
ATOM     22  C   UNL d   1      -1.342  -4.265   3.891  0.00  0.00     0.213 C 
ENDBRANCH  19  21
ENDBRANCH   1  19
TORSDOF 4
