REMARK  6 active torsions:
REMARK  status: ('A' for Active; 'I' for Inactive)
REMARK    1  A    between atoms: C_12  and  C_6 
REMARK    2  A    between atoms: O_18  and  C_7 
REMARK    3  A    between atoms: O_19  and  C_10 
REMARK    4  A    between atoms: O_20  and  C_11 
REMARK    5  A    between atoms: O_21  and  C_13 
REMARK    6  A    between atoms: O_22  and  C_14 
ROOT
ATOM      1  C   UNL d   1      -1.174  -0.729   0.096  0.00  0.00     0.045 A 
ATOM      2  C   UNL d   1      -1.781   0.655   0.091  0.00  0.00     0.257 A 
ATOM      3  C   UNL d   1       0.285  -0.556   0.080  0.00  0.00     0.009 A 
ATOM      4  N   UNL d   1      -0.697   1.514   0.095  0.00  0.00    -0.322 N 
ATOM      5  C   UNL d   1       0.504   0.819   0.078  0.00  0.00     0.049 A 
ATOM      6  C   UNL d   1      -1.843  -1.891   0.095  0.00  0.00     0.029 C 
ATOM      7  C   UNL d   1       1.357  -1.435   0.032  0.00  0.00     0.054 A 
ATOM      8  C   UNL d   1       1.768   1.365   0.051  0.00  0.00     0.070 A 
ATOM      9  C   UNL d   1       2.667  -0.913  -0.008  0.00  0.00     0.102 A 
ATOM     10  C   UNL d   1       2.868   0.495   0.008  0.00  0.00     0.103 A 
ATOM     11  O   UNL d   1      -2.958   0.979   0.077  0.00  0.00    -0.267 OA
ATOM     12  H   UNL d   1      -0.804   2.517   0.085  0.00  0.00     0.169 HD
ENDROOT
BRANCH   6  13
ATOM     13  C   UNL d   1      -3.303  -1.990   0.027  0.00  0.00    -0.030 A 
ATOM     14  C   UNL d   1      -3.930  -2.038  -1.216  0.00  0.00     0.051 A 
ATOM     15  C   UNL d   1      -5.330  -2.114  -1.321  0.00  0.00     0.105 A 
ATOM     16  C   UNL d   1      -6.130  -2.132  -0.151  0.00  0.00     0.135 A 
ATOM     17  C   UNL d   1      -5.487  -2.031   1.105  0.00  0.00     0.105 A 
ATOM     18  C   UNL d   1      -4.084  -1.976   1.176  0.00  0.00     0.051 A 
BRANCH  15  19
ATOM     19  O   UNL d   1      -5.933  -2.082  -2.557  0.00  0.00    -0.353 OA
ATOM     20  C   UNL d   1      -5.212  -2.708  -3.617  0.00  0.00     0.210 C 
ENDBRANCH  15  19
BRANCH  16  21
ATOM     21  O   UNL d   1      -7.495  -2.234  -0.121  0.00  0.00    -0.351 OA
ATOM     22  C   UNL d   1      -8.230  -2.598  -1.278  0.00  0.00     0.210 C 
ENDBRANCH  16  21
BRANCH  17  23
ATOM     23  O   UNL d   1      -6.034  -1.953   2.362  0.00  0.00    -0.353 OA
ATOM     24  C   UNL d   1      -7.430  -2.081   2.562  0.00  0.00     0.210 C 
ENDBRANCH  17  23
ENDBRANCH   6  13
BRANCH   9  25
ATOM     25  O   UNL d   1       3.780  -1.711  -0.067  0.00  0.00    -0.353 OA
ATOM     26  C   UNL d   1       3.613  -3.121  -0.117  0.00  0.00     0.210 C 
ENDBRANCH   9  25
BRANCH  10  27
ATOM     27  O   UNL d   1       4.048   1.193  -0.017  0.00  0.00    -0.353 OA
ATOM     28  C   UNL d   1       5.278   0.487  -0.021  0.00  0.00     0.210 C 
ENDBRANCH  10  27
TORSDOF 6
