REMARK  10 active torsions:
REMARK  status: ('A' for Active; 'I' for Inactive)
REMARK    1  A    between atoms: S_15  and  C_3 
REMARK    2  A    between atoms: S_16  and  C_4 
REMARK    3  A    between atoms: C_33  and  C_13 
REMARK    4  A    between atoms: C_14  and  C_34 
REMARK    5  A    between atoms: C_17  and  S_15 
REMARK    6  A    between atoms: C_18  and  S_16 
REMARK    7  A    between atoms: C_22  and  C_17 
REMARK    8  A    between atoms: C_21  and  C_18 
REMARK    9  A    between atoms: C_35  and  C_33 
REMARK   10  A    between atoms: C_34  and  C_35 
ROOT
ATOM      1  C   UNL d   1      -2.380   2.454   0.130  0.00  0.00     0.016 C 
ENDROOT
BRANCH   1   2
ATOM      2  C   UNL d   1      -2.864   3.904   0.186  0.00  0.00     0.086 C 
BRANCH   2   3
ATOM      3  C   UNL d   1      -4.338   4.012   0.071  0.00  0.00     0.141 A 
ATOM      4  O   UNL d   1      -5.109   3.524   1.096  0.00  0.00    -0.272 OA
ATOM      5  C   UNL d   1      -6.379   3.785   0.636  0.00  0.00     0.203 A 
ATOM      6  N   UNL d   1      -6.369   4.391  -0.533  0.00  0.00    -0.272 N 
ATOM      7  N   UNL d   1      -5.049   4.543  -0.897  0.00  0.00    -0.281 N 
ATOM      8  HN  UNL d   1      -7.184   4.690  -1.069  1.00  0.00     0.189 HD
ATOM      9  HN  UNL d   1      -4.695   4.981  -1.748  1.00  0.00     0.189 HD
BRANCH   5  10
ATOM     10  S   UNL d   1      -7.839   3.330   1.453  0.00  0.00    -0.080 SA
BRANCH  10  11
ATOM     11  C   UNL d   1      -7.316   3.364   3.186  0.00  0.00     0.121 C 
BRANCH  11  12
ATOM     12  C   UNL d   1      -8.482   3.071   4.103  0.00  0.00    -0.048 A 
ATOM     13  C   UNL d   1      -8.810   1.748   4.441  0.00  0.00     0.009 A 
ATOM     14  C   UNL d   1      -9.919   1.474   5.247  0.00  0.00     0.019 A 
ATOM     15  C   UNL d   1     -10.707   2.520   5.717  0.00  0.00     0.011 A 
ATOM     16  C   UNL d   1     -10.399   3.838   5.393  0.00  0.00     0.019 A 
ATOM     17 BR   UNL d   1     -12.218   2.146   6.793  0.00  0.00    -0.051 Br
ATOM     18  C   UNL d   1      -9.290   4.112   4.586  0.00  0.00     0.009 A 
ENDBRANCH  11  12
ENDBRANCH  10  11
ENDBRANCH   5  10
ENDBRANCH   2   3
ENDBRANCH   1   2
BRANCH   1  19
ATOM     19  C   UNL d   1      -0.851   2.378   0.168  0.00  0.00     0.086 C 
BRANCH  19  20
ATOM     20  C   UNL d   1      -0.367   0.978   0.098  0.00  0.00     0.141 A 
ATOM     21  N   UNL d   1      -0.596   0.070  -0.824  0.00  0.00    -0.281 N 
ATOM     22  N   UNL d   1       0.137  -1.038  -0.463  0.00  0.00    -0.272 N 
ATOM     23  HN  UNL d   1      -1.196   0.167  -1.643  1.00  0.00     0.189 HD
ATOM     24  C   UNL d   1       0.764  -0.739   0.657  0.00  0.00     0.203 A 
ATOM     25  HN  UNL d   1       0.186  -1.923  -0.967  1.00  0.00     0.189 HD
ATOM     26  O   UNL d   1       0.478   0.535   1.086  0.00  0.00    -0.272 OA
BRANCH  24  27
ATOM     27  S   UNL d   1       1.870  -1.819   1.440  0.00  0.00    -0.080 SA
BRANCH  27  28
ATOM     28  C   UNL d   1       1.672  -1.347   3.178  0.00  0.00     0.121 C 
BRANCH  28  29
ATOM     29  C   UNL d   1       2.494  -2.246   4.074  0.00  0.00    -0.048 A 
ATOM     30  C   UNL d   1       3.835  -1.941   4.356  0.00  0.00     0.009 A 
ATOM     31  C   UNL d   1       4.610  -2.798   5.142  0.00  0.00     0.019 A 
ATOM     32  C   UNL d   1       4.050  -3.970   5.648  0.00  0.00     0.011 A 
ATOM     33  C   UNL d   1       2.722  -4.289   5.378  0.00  0.00     0.019 A 
ATOM     34 BR   UNL d   1       5.104  -5.138   6.694  0.00  0.00    -0.051 Br
ATOM     35  C   UNL d   1       1.946  -3.432   4.592  0.00  0.00     0.009 A 
ENDBRANCH  28  29
ENDBRANCH  27  28
ENDBRANCH  24  27
ENDBRANCH  19  20
ENDBRANCH   1  19
TORSDOF 10
