REMARK  3 active torsions:
REMARK  status: ('A' for Active; 'I' for Inactive)
REMARK    1  A    between atoms: C_7  and  C_2 
REMARK    2  A    between atoms: N_11  and  C_8 
REMARK    3  A    between atoms: O_13  and  C_10 
ROOT
ATOM      1  C   UNL d   1      -0.455   1.064  -0.028  0.00  0.00     0.078 C 
ATOM      2  C   UNL d   1       0.972   0.640  -0.023  0.00  0.00     0.078 C 
ATOM      3  N   UNL d   1       1.088  -0.656   0.153  0.00  0.00    -0.294 N 
ATOM      4  HN  UNL d   1       1.950  -1.186   0.285  1.00  0.00     0.187 HD
ATOM      5  C   UNL d   1      -1.192  -0.212  -0.166  0.00  0.00     0.275 C 
ATOM      6  N   UNL d   1      -0.207  -1.154   0.123  0.00  0.00    -0.261 N 
ATOM      7  C   UNL d   1      -0.908   2.281   0.302  0.00  0.00     0.104 C 
ATOM      8  O   UNL d   1      -2.354  -0.399  -0.466  0.00  0.00    -0.266 OA
ATOM      9  C   UNL d   1      -0.482  -2.553   0.321  0.00  0.00     0.181 C 
ENDROOT
BRANCH   2  10
ATOM     10  C   UNL d   1       2.128   1.538  -0.188  0.00  0.00     0.026 A 
ATOM     11  C   UNL d   1       3.348   1.252   0.447  0.00  0.00     0.078 A 
ATOM     12  C   UNL d   1       4.445   2.095   0.281  0.00  0.00     0.037 A 
ATOM     13  C   UNL d   1       4.348   3.214  -0.545  0.00  0.00     0.003 A 
ATOM     14  C   UNL d   1       3.154   3.485  -1.211  0.00  0.00     0.001 A 
ATOM     15  C   UNL d   1       2.052   2.645  -1.041  0.00  0.00     0.016 A 
BRANCH  11  16
ATOM     16  O   UNL d   1       3.534   0.161   1.246  0.00  0.00    -0.360 OA
ATOM     17  H   UNL d   1       2.784  -0.453   1.104  0.00  0.00     0.217 HD
ENDBRANCH  11  16
ENDBRANCH   2  10
BRANCH   7  18
ATOM     18  N   UNL d   1      -2.167   2.803   0.594  0.00  0.00    -0.398 N 
ATOM     19  C   UNL d   1      -3.396   2.008   0.661  0.00  0.00     0.148 C 
ATOM     20  C   UNL d   1      -2.368   4.223   0.890  0.00  0.00     0.148 C 
ENDBRANCH   7  18
TORSDOF 3
