REMARK  3 active torsions:
REMARK  status: ('A' for Active; 'I' for Inactive)
REMARK       I    between atoms: N_2  and  C_1 
REMARK    1  A    between atoms: C_4  and  N_2 
REMARK    2  A    between atoms: C_11  and  C_5 
REMARK    3  A    between atoms: C_12  and  C_11 
ROOT
ATOM      1  C   UNL d   1       0.960  -1.708   1.910  0.00  0.00     0.034 A 
ATOM      2  C   UNL d   1       2.055  -3.368   3.920  0.00  0.00    -0.058 A 
ATOM      3  C   UNL d   1       2.039  -1.275   2.679  0.00  0.00     0.030 A 
ATOM      4  C   UNL d   1       0.413  -2.970   2.172  0.00  0.00     0.030 A 
ATOM      5  C   UNL d   1       0.952  -3.790   3.171  0.00  0.00     0.009 A 
ATOM      6  C   UNL d   1       2.582  -2.095   3.674  0.00  0.00     0.009 A 
ENDROOT
BRANCH   1   7
ATOM      7  N   UNL d   1       0.376  -0.948   0.873  0.00  0.00    -0.328 N 
ATOM      8  C   UNL d   1       0.771   0.302   0.428  0.00  0.00     0.218 C 
ATOM      9  O   UNL d   1       1.712   0.968   0.844  0.00  0.00    -0.274 OA
ATOM     10  C   UNL d   1      -0.083   0.828  -0.699  0.00  0.00     0.117 C 
ATOM     11  H   UNL d   1      -0.401  -1.383   0.395  0.00  0.00     0.169 HD
ENDBRANCH   1   7
BRANCH   2  12
ATOM     12  C   UNL d   1       2.678  -4.255   4.970  0.00  0.00     0.038 C 
BRANCH  12  13
ATOM     13  C   UNL d   1       3.203  -5.592   4.432  0.00  0.00     0.000 C 
ATOM     14  C   UNL d   1       4.311  -5.432   3.400  0.00  0.00     0.005 C 
ENDBRANCH  12  13
ENDBRANCH   2  12
TORSDOF 3
