REMARK  0 active torsions:
REMARK  status: ('A' for Active; 'I' for Inactive)
ROOT
ATOM      1  N   UNL d   1       1.813  -1.547  -0.031  0.00  0.00    -0.292 N 
ATOM      2  C   UNL d   1       0.906  -0.503  -0.008  0.00  0.00     0.080 A 
ATOM      3  C   UNL d   1       1.599   0.713   0.003  0.00  0.00     0.078 A 
ATOM      4  N   UNL d   1       3.090  -0.961   0.016  0.00  0.00    -0.263 N 
ATOM      5  C   UNL d   1       3.021   0.412   0.006  0.00  0.00     0.273 A 
ATOM      6  C   UNL d   1      -0.502  -0.446  -0.005  0.00  0.00     0.026 A 
ATOM      7  C   UNL d   1      -1.092   0.856   0.001  0.00  0.00     0.084 A 
ATOM      8  N   UNL d   1      -0.366   2.001   0.005  0.00  0.00    -0.362 N 
ATOM      9  HN  UNL d   1      -0.832   2.908   0.007  1.00  0.00     0.165 HD
ATOM     10  C   UNL d   1       0.978   1.925   0.006  0.00  0.00     0.108 A 
ATOM     11  C   UNL d   1      -2.486   0.950   0.002  0.00  0.00     0.146 A 
ATOM     12  C   UNL d   1      -3.322  -0.160  -0.001  0.00  0.00     0.086 A 
ATOM     13  C   UNL d   1      -1.368  -1.565  -0.011  0.00  0.00     0.058 A 
ATOM     14  O   UNL d   1       3.928   1.218  -0.004  0.00  0.00    -0.266 OA
ATOM     15  C   UNL d   1      -2.751  -1.412  -0.007  0.00  0.00     0.120 A 
ATOM     16  F   UNL d   1      -3.072   2.159   0.005  0.00  0.00    -0.204 F 
ATOM     17  C   UNL d   1       1.729  -2.985   0.016  0.00  0.00     0.178 C 
ATOM     18  F   UNL d   1      -3.531  -2.500  -0.009  0.00  0.00    -0.206 F 
ATOM     19  H   UNL d   1       3.946  -1.500  -0.036  0.00  0.00     0.190 HD
ENDROOT
TORSDOF 0
