REMARK  13 active torsions:
REMARK  status: ('A' for Active; 'I' for Inactive)
REMARK    1  A    between atoms: C_7  and  C_1 
REMARK    2  A    between atoms: O_15  and  C_1 
REMARK    3  A    between atoms: C_8  and  C_2 
REMARK    4  A    between atoms: O_14  and  C_2 
REMARK    5  A    between atoms: C_10  and  C_4 
REMARK    6  A    between atoms: C_11  and  C_5 
REMARK    7  A    between atoms: C_9  and  C_6 
REMARK    8  A    between atoms: O_28  and  C_10 
REMARK    9  A    between atoms: O_27  and  C_11 
REMARK   10  A    between atoms: O_29  and  C_13 
REMARK   11  A    between atoms: O_30  and  C_17 
REMARK   12  A    between atoms: C_32  and  O_27 
REMARK   13  A    between atoms: C_31  and  O_28 
ROOT
ATOM      1  C   UNL d   1       0.788   1.316  -0.346  0.00  0.00     0.371 C 
ATOM      2  C   UNL d   1       0.840  -1.185  -0.263  0.00  0.00     0.371 C 
ATOM      3  N   UNL d   1       1.504   0.083   0.041  0.00  0.00     0.174 N 
ATOM      4  C   UNL d   1      -0.564  -1.208   0.390  0.00  0.00     0.170 C 
ATOM      5  C   UNL d   1      -0.678   1.344   0.168  0.00  0.00     0.170 C 
ATOM      6  C   UNL d   1      -1.410   0.009  -0.095  0.00  0.00     0.056 C 
ATOM      7  H   UNL d   1       2.408   0.112  -0.435  0.00  0.00     0.324 HD
ENDROOT
BRANCH   6   8
ATOM      8  C   UNL d   1      -2.852  -0.055   0.399  0.00  0.00    -0.049 A 
ATOM      9  C   UNL d   1      -3.821  -0.675  -0.396  0.00  0.00     0.047 A 
ATOM     10  C   UNL d   1      -5.180  -0.754  -0.025  0.00  0.00     0.102 A 
ATOM     11  C   UNL d   1      -5.569  -0.192   1.204  0.00  0.00     0.101 A 
ATOM     12  C   UNL d   1      -4.596   0.416   2.002  0.00  0.00     0.040 A 
ATOM     13  C   UNL d   1      -3.261   0.490   1.615  0.00  0.00     0.010 A 
BRANCH  10  14
ATOM     14  O   UNL d   1      -6.144  -1.343  -0.796  0.00  0.00    -0.353 OA
ATOM     15  C   UNL d   1      -5.767  -1.882  -2.056  0.00  0.00     0.210 C 
ENDBRANCH  10  14
BRANCH  11  16
ATOM     16  O   UNL d   1      -6.809  -0.132   1.778  0.00  0.00    -0.353 OA
ATOM     17  C   UNL d   1      -7.907  -0.735   1.113  0.00  0.00     0.210 C 
ENDBRANCH  11  16
ENDBRANCH   6   8
BRANCH   4  18
ATOM     18  C   UNL d   1      -0.408  -1.209   1.909  0.00  0.00     0.269 C 
ATOM     19  O   UNL d   1      -0.337  -0.200   2.601  0.00  0.00    -0.265 OA
BRANCH  18  20
ATOM     20  O   UNL d   1      -0.344  -2.474   2.410  0.00  0.00    -0.321 OA
BRANCH  20  21
ATOM     21  C   UNL d   1      -0.101  -2.542   3.826  0.00  0.00     0.174 C 
ATOM     22  C   UNL d   1       1.361  -2.269   4.150  0.00  0.00     0.034 C 
ENDBRANCH  20  21
ENDBRANCH  18  20
ENDBRANCH   4  18
BRANCH   5  23
ATOM     23  C   UNL d   1      -1.405   2.489  -0.514  0.00  0.00     0.269 C 
ATOM     24  O   UNL d   1      -1.468   2.583  -1.737  0.00  0.00    -0.265 OA
BRANCH  23  25
ATOM     25  O   UNL d   1      -1.883   3.381   0.378  0.00  0.00    -0.321 OA
BRANCH  25  26
ATOM     26  C   UNL d   1      -2.542   4.529  -0.179  0.00  0.00     0.174 C 
ATOM     27  C   UNL d   1      -1.526   5.567  -0.625  0.00  0.00     0.034 C 
ENDBRANCH  25  26
ENDBRANCH  23  25
ENDBRANCH   5  23
BRANCH   2  28
ATOM     28  C   UNL d   1       0.733  -1.649  -1.812  0.00  0.00     0.449 C 
ATOM     29  F   UNL d   1       1.564  -0.956  -2.621  0.00  0.00    -0.166 F 
ATOM     30  F   UNL d   1       1.123  -2.949  -1.932  0.00  0.00    -0.166 F 
ATOM     31  F   UNL d   1      -0.516  -1.577  -2.318  0.00  0.00    -0.166 F 
ENDBRANCH   2  28
BRANCH   2  32
ATOM     32  O   UNL d   1       1.645  -2.176   0.403  0.00  0.00    -0.355 OA
ATOM     33  H   UNL d   1       2.424  -2.349  -0.154  0.00  0.00     0.213 HD
ENDBRANCH   2  32
BRANCH   1  34
ATOM     34  C   UNL d   1       1.546   2.614   0.228  0.00  0.00     0.449 C 
ATOM     35  F   UNL d   1       2.752   2.291   0.766  0.00  0.00    -0.166 F 
ATOM     36  F   UNL d   1       1.785   3.515  -0.754  0.00  0.00    -0.166 F 
ATOM     37  F   UNL d   1       0.843   3.254   1.187  0.00  0.00    -0.166 F 
ENDBRANCH   1  34
BRANCH   1  38
ATOM     38  O   UNL d   1       0.821   1.265  -1.774  0.00  0.00    -0.355 OA
ATOM     39  H   UNL d   1       0.146   1.868  -2.156  0.00  0.00     0.213 HD
ENDBRANCH   1  38
TORSDOF 13
