REMARK  8 active torsions:
REMARK  status: ('A' for Active; 'I' for Inactive)
REMARK    1  A    between atoms: N_2  and  C_1 
REMARK    2  A    between atoms: N_5  and  C_1 
REMARK    3  A    between atoms: C_3  and  N_2 
REMARK    4  A    between atoms: C_6  and  C_3 
REMARK    5  A    between atoms: C_7  and  C_3 
REMARK    6  A    between atoms: C_8  and  N_5 
REMARK    7  A    between atoms: C_11  and  C_6 
REMARK    8  A    between atoms: C_10  and  C_8 
ROOT
ATOM      1  N   UNL d   1       0.788   1.220  -0.416  0.00  0.00    -0.363 N 
ATOM      2  H   UNL d   1      -0.176   0.919  -0.383  0.00  0.00     0.162 HD
ENDROOT
BRANCH   1   3
ATOM      3  C   UNL d   1       1.623   0.395   0.284  0.00  0.00     0.146 C 
ATOM      4  S   UNL d   1       3.238   0.087   0.019  0.00  0.00    -0.047 SA
BRANCH   3   5
ATOM      5  N   UNL d   1       1.030  -0.223   1.359  0.00  0.00    -0.265 NA
ATOM      6  H   UNL d   1       1.653  -0.925   1.739  0.00  0.00     0.130 HD
BRANCH   5   7
ATOM      7  C   UNL d   1       0.422   0.578   2.412  0.00  0.00     0.133 C 
BRANCH   7   8
ATOM      8  C   UNL d   1      -1.067   0.387   2.514  0.00  0.00    -0.045 A 
ATOM      9  C   UNL d   1      -1.616  -0.889   2.723  0.00  0.00     0.011 A 
ATOM     10  C   UNL d   1      -2.996  -1.050   2.852  0.00  0.00     0.043 A 
ATOM     11  C   UNL d   1      -3.826   0.061   2.776  0.00  0.00     0.116 A 
ATOM     12  C   UNL d   1      -3.303   1.334   2.586  0.00  0.00     0.043 A 
ATOM     13  F   UNL d   1      -5.151  -0.095   2.896  0.00  0.00    -0.206 F 
ATOM     14  C   UNL d   1      -1.923   1.498   2.460  0.00  0.00     0.011 A 
ENDBRANCH   7   8
ENDBRANCH   5   7
ENDBRANCH   3   5
ENDBRANCH   1   3
BRANCH   1  15
ATOM     15  C   UNL d   1       1.139   2.197  -1.466  0.00  0.00     0.120 C 
BRANCH  15  16
ATOM     16  C   UNL d   1       1.671   1.568  -2.790  0.00  0.00     0.068 C 
BRANCH  16  17
ATOM     17  C   UNL d   1       0.768   0.713  -3.654  0.00  0.00    -0.056 A 
ATOM     18  C   UNL d   1      -0.358   1.238  -4.299  0.00  0.00     0.007 A 
ATOM     19  C   UNL d   1      -1.069   0.480  -5.234  0.00  0.00     0.001 A 
ATOM     20  C   UNL d   1      -0.655  -0.815  -5.545  0.00  0.00     0.000 A 
ATOM     21  C   UNL d   1       0.456  -1.355  -4.906  0.00  0.00     0.001 A 
ATOM     22  C   UNL d   1       1.158  -0.602  -3.964  0.00  0.00     0.007 A 
ENDBRANCH  16  17
ENDBRANCH  15  16
BRANCH  15  23
ATOM     23  C   UNL d   1       0.061   3.264  -1.709  0.00  0.00    -0.035 A 
ATOM     24  C   UNL d   1      -1.226   3.222  -1.148  0.00  0.00     0.009 A 
ATOM     25  C   UNL d   1      -2.194   4.175  -1.487  0.00  0.00     0.001 A 
ATOM     26  C   UNL d   1      -1.896   5.191  -2.393  0.00  0.00     0.000 A 
ATOM     27  C   UNL d   1      -0.618   5.276  -2.933  0.00  0.00     0.001 A 
ATOM     28  C   UNL d   1       0.353   4.338  -2.578  0.00  0.00     0.009 A 
ENDBRANCH  15  23
ENDBRANCH   1  15
TORSDOF 8
