REMARK  6 active torsions:
REMARK  status: ('A' for Active; 'I' for Inactive)
REMARK    1  A    between atoms: C_8  and  N_3 
REMARK    2  A    between atoms: C_9  and  C_8 
REMARK       I    between atoms: N_13  and  C_9 
REMARK    3  A    between atoms: C_11  and  N_14 
REMARK    4  A    between atoms: N_12  and  C_11 
REMARK    5  A    between atoms: C_15  and  N_12 
REMARK    6  A    between atoms: N_14  and  N_13 
ROOT
ATOM      1  C   UNL d   1       3.042  -1.087   1.187  0.00  0.00     0.262 C 
ATOM      2  N   UNL d   1       3.950  -0.037   1.077  0.00  0.00    -0.266 N 
ATOM      3  O   UNL d   1       3.038  -1.858   2.149  0.00  0.00    -0.269 OA
ATOM      4  H   UNL d   1       3.743   0.744   0.451  0.00  0.00     0.190 HD
ENDROOT
BRANCH   1   5
ATOM      5  C   UNL d   1       2.109  -1.214  -0.008  0.00  0.00     0.215 C 
ATOM      6  C   UNL d   1       1.772  -2.684  -0.266  0.00  0.00     0.046 C 
BRANCH   5   7
ATOM      7  N   UNL d   1       0.914  -0.394   0.147  0.00  0.00    -0.189 N 
ATOM      8  N   UNL d   1      -0.080  -0.432  -0.770  0.00  0.00    -0.115 N 
ATOM      9  C   UNL d   1      -0.794   0.643  -0.418  0.00  0.00     0.709 A 
ATOM     10  HN  UNL d   1      -0.240  -1.099  -1.525  1.00  0.00     0.207 HD
ATOM     11  N   UNL d   1      -0.224   1.320   0.634  0.00  0.00    -0.113 N 
ATOM     12  N   UNL d   1      -1.954   1.061  -0.971  0.00  0.00    -0.211 N 
ATOM     13  N   UNL d   1       0.880   0.671   0.967  0.00  0.00     0.012 NA
ATOM     14  HN  UNL d   1      -0.586   2.165   1.077  1.00  0.00     0.203 HD
ATOM     15  C   UNL d   1      -2.521   2.375  -0.659  0.00  0.00     0.167 C 
ATOM     16  C   UNL d   1      -2.471   0.469  -2.207  0.00  0.00     0.167 C 
ATOM     17  C   UNL d   1      -4.054   2.271  -0.653  0.00  0.00     0.188 C 
ATOM     18  O   UNL d   1      -4.553   1.747  -1.896  0.00  0.00    -0.388 OA
ATOM     19  C   UNL d   1      -4.007   0.438  -2.143  0.00  0.00     0.188 C 
ENDBRANCH   5   7
ENDBRANCH   1   5
BRANCH   2  20
ATOM     20  N   UNL d   1       4.706   0.315   2.205  0.00  0.00    -0.273 N 
ATOM     21  H   UNL d   1       4.828  -0.413   2.913  0.00  0.00     0.189 HD
BRANCH  20  22
ATOM     22  C   UNL d   1       5.128   1.604   2.390  0.00  0.00     0.191 C 
ATOM     23  S   UNL d   1       5.029   2.793   1.205  0.00  0.00    -0.039 SA
BRANCH  22  24
ATOM     24  N   UNL d   1       5.520   2.000   3.636  0.00  0.00    -0.331 N 
ATOM     25  H   UNL d   1       5.434   3.006   3.749  0.00  0.00     0.168 HD
BRANCH  24  26
ATOM     26  C   UNL d   1       5.694   1.256   4.822  0.00  0.00     0.056 A 
ATOM     27  C   UNL d   1       6.387   0.038   4.925  0.00  0.00     0.060 A 
ATOM     28 CL   UNL d   1       7.278  -0.649   3.612  0.00  0.00    -0.082 Cl
ATOM     29  C   UNL d   1       6.486  -0.611   6.162  0.00  0.00     0.026 A 
ATOM     30  C   UNL d   1       5.913  -0.049   7.303  0.00  0.00     0.002 A 
ATOM     31  C   UNL d   1       5.269   1.181   7.219  0.00  0.00     0.002 A 
ATOM     32  C   UNL d   1       5.177   1.837   5.989  0.00  0.00     0.031 A 
ENDBRANCH  24  26
ENDBRANCH  22  24
ENDBRANCH  20  22
ENDBRANCH   2  20
TORSDOF 6
