REMARK  8 active torsions:
REMARK  status: ('A' for Active; 'I' for Inactive)
REMARK    1  A    between atoms: N_5  and  C_1 
REMARK    2  A    between atoms: N_6  and  C_4 
REMARK       I    between atoms: C_8  and  N_6 
REMARK    3  A    between atoms: O_17  and  C_7 
REMARK    4  A    between atoms: C_18  and  C_8 
REMARK    5  A    between atoms: C_9  and  C_19 
REMARK    6  A    between atoms: O_16  and  C_9 
REMARK    7  A    between atoms: S_14  and  C_18 
REMARK    8  A    between atoms: C_19  and  S_14 
ROOT
ATOM      1  C   UNL d   1      -0.548   1.274   0.058  0.00  0.00     0.112 A 
ATOM      2  N   UNL d   1      -1.323   0.173   0.099  0.00  0.00    -0.326 N 
ATOM      3  HN  UNL d   1      -2.337   0.236   0.188  1.00  0.00     0.169 HD
ATOM      4  C   UNL d   1       0.861   1.194  -0.042  0.00  0.00     0.073 A 
ATOM      5  C   UNL d   1      -0.691  -1.022   0.014  0.00  0.00     0.142 A 
ATOM      6  C   UNL d   1       1.482  -0.043  -0.146  0.00  0.00     0.037 A 
ATOM      7  C   UNL d   1       0.685  -1.179  -0.107  0.00  0.00     0.058 A 
ENDROOT
BRANCH   4   8
ATOM      8  N   UNL d   1       1.602   2.391   0.102  0.00  0.00    -0.324 N 
ATOM      9  C   UNL d   1       2.574   2.784  -0.794  0.00  0.00     0.231 C 
ATOM     10  O   UNL d   1       2.962   2.134  -1.758  0.00  0.00    -0.272 OA
ATOM     11  H   UNL d   1       1.066   3.127   0.555  0.00  0.00     0.169 HD
BRANCH   9  12
ATOM     12  C   UNL d   1       3.166   4.151  -0.492  0.00  0.00     0.177 C 
BRANCH  12  13
ATOM     13  S   UNL d   1       4.732   3.957   0.415  0.00  0.00    -0.149 SA
BRANCH  13  14
ATOM     14  C   UNL d   1       5.665   2.883  -0.731  0.00  0.00     0.184 C 
BRANCH  14  15
ATOM     15  C   UNL d   1       5.914   3.554  -2.064  0.00  0.00     0.149 C 
ATOM     16  O   UNL d   1       6.835   4.329  -2.273  0.00  0.00    -0.649 OA
BRANCH  15  17
ATOM     17  O   UNL d   1       5.001   3.254  -3.019  0.00  0.00    -0.776 OA
ATOM     18  H   UNL d   1       4.287   2.634  -2.731  0.00  0.00     0.167 HD
ENDBRANCH  15  17
ENDBRANCH  14  15
ENDBRANCH  13  14
ENDBRANCH  12  13
ENDBRANCH   9  12
ENDBRANCH   4   8
BRANCH   1  19
ATOM     19  N   UNL d   1      -1.109   2.554   0.139  0.00  0.00    -0.263 NA
ATOM     20  C   UNL d   1      -2.424   2.685   0.778  0.00  0.00     0.123 C 
ATOM     21  C   UNL d   1      -2.564   4.176   1.154  0.00  0.00     0.182 C 
ATOM     22  O   UNL d   1      -2.442   5.039   0.004  0.00  0.00    -0.389 OA
ATOM     23  C   UNL d   1      -1.211   4.812  -0.705  0.00  0.00     0.182 C 
ATOM     24  C   UNL d   1      -1.075   3.336  -1.116  0.00  0.00     0.123 C 
ENDBRANCH   1  19
BRANCH   5  25
ATOM     25  O   UNL d   1      -1.420  -2.196   0.062  0.00  0.00    -0.341 OA
ATOM     26  C   UNL d   1      -2.825  -1.980   0.122  0.00  0.00     0.211 C 
ENDBRANCH   5  25
TORSDOF 8
