REMARK  1 active torsions:
REMARK  status: ('A' for Active; 'I' for Inactive)
REMARK    1  A    between atoms: C_2  and  N_1 
ROOT
ATOM      1  C   UNL d   1       0.005   2.288  -0.145  0.00  0.00     0.046 A 
ATOM      2  N   UNL d   1      -1.917   5.854   2.543  0.00  0.00    -0.191 NA
ATOM      3  C   UNL d   1      -1.375   5.231   1.726  0.00  0.00     0.099 C 
ATOM      4  C   UNL d   1      -0.702   3.065   0.787  0.00  0.00     0.052 A 
ATOM      5  C   UNL d   1      -0.687   4.467   0.728  0.00  0.00     0.046 A 
ATOM      6  C   UNL d   1       0.716   2.968  -1.148  0.00  0.00     0.030 A 
ATOM      7  C   UNL d   1       0.715   4.364  -1.226  0.00  0.00     0.004 A 
ATOM      8  C   UNL d   1       0.017   5.115  -0.286  0.00  0.00     0.023 A 
ENDROOT
BRANCH   1   9
ATOM      9  N   UNL d   1       0.003   0.862  -0.079  0.00  0.00    -0.252 N 
ATOM     10  C   UNL d   1      -0.953   0.115   0.573  0.00  0.00     0.231 A 
ATOM     11  C   UNL d   1      -0.662  -1.341   0.382  0.00  0.00     0.113 A 
ATOM     12  O   UNL d   1      -1.945   0.491   1.183  0.00  0.00    -0.273 OA
ATOM     13  C   UNL d   1       0.641  -1.378  -0.374  0.00  0.00     0.113 A 
ATOM     14  C   UNL d   1       0.961   0.057  -0.656  0.00  0.00     0.231 A 
ATOM     15  O   UNL d   1       1.975   0.375  -1.265  0.00  0.00    -0.273 OA
ENDBRANCH   1   9
TORSDOF 1
