REMARK  3 active torsions:
REMARK  status: ('A' for Active; 'I' for Inactive)
REMARK    1  A    between atoms: S_2  and  N_1 
REMARK    2  A    between atoms: C_8  and  S_2 
REMARK    3  A    between atoms: N_7  and  C_5 
ROOT
ATOM      1  N   UNL d   1       1.456  -1.194   0.011  0.00  0.00    -0.174 N 
ATOM      2  N   UNL d   1       2.309  -0.141   0.143  0.00  0.00    -0.267 N 
ATOM      3  HN  UNL d   1       3.324  -0.167   0.245  1.00  0.00     0.190 HD
ATOM      4  C   UNL d   1       1.514   0.935   0.110  0.00  0.00     0.143 A 
ATOM      5  C   UNL d   1       0.142   0.594   0.007  0.00  0.00     0.078 A 
ATOM      6  C   UNL d   1       0.116  -0.811   0.023  0.00  0.00     0.086 A 
ATOM      7  C   UNL d   1      -1.082   1.271  -0.159  0.00  0.00     0.132 A 
ATOM      8  C   UNL d   1      -1.097  -1.530  -0.024  0.00  0.00     0.033 A 
ATOM      9  F   UNL d   1      -1.119   2.597  -0.336  0.00  0.00    -0.205 F 
ATOM     10  C   UNL d   1      -2.292  -0.814  -0.101  0.00  0.00     0.005 A 
ATOM     11  C   UNL d   1      -2.290   0.575  -0.182  0.00  0.00     0.043 A 
ENDROOT
BRANCH   1  12
ATOM     12  S   UNL d   1       1.975  -2.841  -0.192  0.00  0.00     0.285 S 
ATOM     13  O   UNL d   1       3.414  -2.853   0.010  0.00  0.00    -0.198 OA
ATOM     14  O   UNL d   1       1.098  -3.622   0.672  0.00  0.00    -0.198 OA
BRANCH  12  15
ATOM     15  C   UNL d   1       1.675  -3.381  -1.846  0.00  0.00     0.109 C 
ATOM     16  C   UNL d   1       1.259  -2.500  -2.835  0.00  0.00     0.066 A 
ATOM     17  N   UNL d   1       1.302  -1.166  -2.674  0.00  0.00    -0.364 N 
ATOM     18  C   UNL d   1       0.761  -3.063  -4.030  0.00  0.00    -0.008 A 
ATOM     19  C   UNL d   1       0.783  -0.361  -3.626  0.00  0.00     0.088 A 
ATOM     20  HN  UNL d   1       1.723  -0.763  -1.836  1.00  0.00     0.165 HD
ATOM     21  C   UNL d   1       0.166  -0.835  -4.761  0.00  0.00     0.018 A 
ATOM     22  C   UNL d   1       0.170  -2.207  -4.971  0.00  0.00     0.015 A 
ATOM     23  C   UNL d   1       0.838  -4.448  -4.261  0.00  0.00     0.014 C 
ATOM     24  C   UNL d   1       1.380  -5.294  -3.299  0.00  0.00     0.003 C 
ATOM     25  C   UNL d   1       1.772  -4.766  -2.076  0.00  0.00     0.028 C 
ENDBRANCH  12  15
ENDBRANCH   1  12
BRANCH   4  26
ATOM     26  N   UNL d   1       2.142   2.231   0.193  0.00  0.00    -0.304 N 
ATOM     27  C   UNL d   1       1.665   3.361   0.861  0.00  0.00     0.014 A 
ATOM     28  C   UNL d   1       2.528   4.411   0.628  0.00  0.00     0.027 A 
ATOM     29  C   UNL d   1       0.493   3.399   1.785  0.00  0.00     0.068 C 
ATOM     30  C   UNL d   1       3.611   3.922  -0.117  0.00  0.00     0.027 A 
ATOM     31  C   UNL d   1       3.381   2.584  -0.363  0.00  0.00     0.014 A 
ATOM     32  C   UNL d   1       4.276   1.678  -1.146  0.00  0.00     0.068 C 
ENDBRANCH   4  26
TORSDOF 3
