REMARK  6 active torsions:
REMARK  status: ('A' for Active; 'I' for Inactive)
REMARK    1  A    between atoms: C_2  and  C_1 
REMARK       I    between atoms: N_9  and  C_2 
REMARK    2  A    between atoms: C_7  and  C_10 
REMARK    3  A    between atoms: C_11  and  N_9 
REMARK    4  A    between atoms: S_12  and  C_14 
REMARK    5  A    between atoms: C_19  and  S_12 
REMARK    6  A    between atoms: C_20  and  C_19 
ROOT
ATOM      1  C   UNL d   1       2.096  -3.062   0.059  0.00  0.00     0.051 A 
ATOM      2  C   UNL d   1       2.492  -2.075   0.993  0.00  0.00     0.027 A 
ATOM      3  C   UNL d   1       3.057  -3.654  -0.775  0.00  0.00     0.031 A 
ATOM      4  C   UNL d   1       3.854  -1.748   1.079  0.00  0.00     0.021 A 
ATOM      5  C   UNL d   1       4.402  -3.306  -0.678  0.00  0.00     0.002 A 
ATOM      6  C   UNL d   1       4.801  -2.359   0.253  0.00  0.00     0.002 A 
ENDROOT
BRANCH   2   7
ATOM      7  S   UNL d   1       1.248  -1.367   2.102  0.00  0.00    -0.123 SA
BRANCH   7   8
ATOM      8  C   UNL d   1       2.099   0.059   2.861  0.00  0.00     0.118 C 
BRANCH   8   9
ATOM      9  C   UNL d   1       1.312   0.647   4.008  0.00  0.00    -0.048 A 
ATOM     10  C   UNL d   1       0.261   1.548   3.780  0.00  0.00     0.024 A 
ATOM     11  C   UNL d   1      -0.447   2.116   4.853  0.00  0.00     0.048 A 
ATOM     12  C   UNL d   1      -0.089   1.770   6.165  0.00  0.00     0.016 A 
ATOM     13  C   UNL d   1       0.946   0.868   6.402  0.00  0.00     0.001 A 
ATOM     14  C   UNL d   1       1.638   0.306   5.330  0.00  0.00     0.008 A 
BRANCH  11  15
ATOM     15  C   UNL d   1      -1.578   3.088   4.617  0.00  0.00     0.417 C 
ATOM     16  F   UNL d   1      -1.791   3.365   3.300  0.00  0.00    -0.166 F 
ATOM     17  F   UNL d   1      -2.767   2.632   5.100  0.00  0.00    -0.166 F 
ATOM     18  F   UNL d   1      -1.365   4.289   5.219  0.00  0.00    -0.166 F 
ENDBRANCH  11  15
ENDBRANCH   8   9
ENDBRANCH   7   8
ENDBRANCH   2   7
BRANCH   1  19
ATOM     19  N   UNL d   1       0.726  -3.418  -0.052  0.00  0.00    -0.321 N 
ATOM     20  C   UNL d   1       0.239  -4.628  -0.529  0.00  0.00     0.266 C 
ATOM     21  O   UNL d   1       0.967  -5.595  -0.760  0.00  0.00    -0.267 OA
ATOM     22  H   UNL d   1       0.077  -2.801   0.425  0.00  0.00     0.169 HD
BRANCH  20  23
ATOM     23  C   UNL d   1      -1.192  -4.720  -0.699  0.00  0.00     0.110 A 
ATOM     24  C   UNL d   1      -2.002  -5.843  -0.832  0.00  0.00     0.043 A 
ATOM     25  N   UNL d   1      -3.345  -5.561  -1.072  0.00  0.00    -0.296 N 
ATOM     26  C   UNL d   1      -1.613  -7.276  -0.758  0.00  0.00     0.071 C 
ATOM     27  N   UNL d   1      -3.577  -4.261  -1.123  0.00  0.00    -0.061 NA
ATOM     28  HN  UNL d   1      -4.065  -6.273  -1.194  1.00  0.00     0.183 HD
ATOM     29  S   UNL d   1      -2.202  -3.349  -0.882  0.00  0.00     0.007 SA
ENDBRANCH  20  23
ENDBRANCH   1  19
TORSDOF 6
