REMARK  7 active torsions:
REMARK  status: ('A' for Active; 'I' for Inactive)
REMARK    1  A    between atoms: C_2  and  C_1 
REMARK       I    between atoms: N_5  and  C_1 
REMARK    2  A    between atoms: C_3  and  O_9 
REMARK    3  A    between atoms: S_14  and  C_4 
REMARK    4  A    between atoms: C_10  and  N_5 
REMARK    5  A    between atoms: O_9  and  C_15 
REMARK    6  A    between atoms: C_22  and  S_14 
REMARK    7  A    between atoms: C_24  and  C_22 
ROOT
ATOM      1  C   UNL d   1       0.635   0.135  -0.471  0.00  0.00     0.259 C 
ATOM      2  N   UNL d   1       1.997   0.295  -0.700  0.00  0.00    -0.323 N 
ATOM      3  O   UNL d   1      -0.149  -0.497  -1.171  0.00  0.00    -0.267 OA
ATOM      4  H   UNL d   1       2.537   0.766   0.014  0.00  0.00     0.169 HD
ENDROOT
BRANCH   1   5
ATOM      5  C   UNL d   1       0.080   0.869   0.686  0.00  0.00     0.065 A 
ATOM      6  C   UNL d   1      -0.824   0.287   1.583  0.00  0.00     0.085 A 
ATOM      7  N   UNL d   1      -1.462   1.028   2.532  0.00  0.00    -0.360 N 
ATOM      8  C   UNL d   1      -1.221   2.355   2.577  0.00  0.00     0.089 A 
ATOM      9  HN  UNL d   1      -2.106   0.591   3.191  1.00  0.00     0.166 HD
ATOM     10  C   UNL d   1      -0.331   2.999   1.743  0.00  0.00     0.018 A 
ATOM     11  C   UNL d   1       0.331   2.245   0.780  0.00  0.00     0.021 A 
BRANCH   6  12
ATOM     12  S   UNL d   1      -1.131  -1.475   1.678  0.00  0.00    -0.111 SA
BRANCH  12  13
ATOM     13  C   UNL d   1      -2.869  -1.469   2.239  0.00  0.00     0.080 C 
BRANCH  13  14
ATOM     14  C   UNL d   1      -3.384  -2.899   2.398  0.00  0.00     0.006 C 
ATOM     15  C   UNL d   1      -4.846  -2.910   2.824  0.00  0.00     0.006 C 
ENDBRANCH  13  14
ENDBRANCH  12  13
ENDBRANCH   6  12
ENDBRANCH   1   5
BRANCH   2  16
ATOM     16  C   UNL d   1       2.718  -0.183  -1.821  0.00  0.00     0.035 A 
ATOM     17  C   UNL d   1       2.120  -0.797  -2.924  0.00  0.00     0.032 A 
ATOM     18  C   UNL d   1       2.883  -1.245  -4.014  0.00  0.00     0.039 A 
ATOM     19  C   UNL d   1       4.260  -1.058  -4.030  0.00  0.00     0.078 A 
ATOM     20  C   UNL d   1       4.867  -0.454  -2.925  0.00  0.00     0.039 A 
ATOM     21  C   UNL d   1       4.105  -0.012  -1.834  0.00  0.00     0.032 A 
BRANCH  19  22
ATOM     22  O   UNL d   1       5.117  -1.399  -5.036  0.00  0.00    -0.255 OA
BRANCH  22  23
ATOM     23  C   UNL d   1       4.570  -1.838  -6.268  0.00  0.00     0.530 C 
ATOM     24  F   UNL d   1       3.568  -1.040  -6.696  0.00  0.00    -0.144 F 
ATOM     25  F   UNL d   1       5.546  -1.809  -7.205  0.00  0.00    -0.144 F 
ATOM     26  F   UNL d   1       4.123  -3.108  -6.166  0.00  0.00    -0.144 F 
ENDBRANCH  22  23
ENDBRANCH  19  22
ENDBRANCH   2  16
TORSDOF 7
