REMARK  4 active torsions:
REMARK  status: ('A' for Active; 'I' for Inactive)
REMARK    1  A    between atoms: C_13  and  C_3 
REMARK    2  A    between atoms: N_9  and  C_4 
REMARK    3  A    between atoms: C_14  and  N_9 
REMARK    4  A    between atoms: O_17  and  C_16 
ROOT
ATOM      1  C   UNL d   1       0.023  -0.492   0.079  0.00  0.00     0.076 A 
ATOM      2  S   UNL d   1       1.715  -0.789   0.124  0.00  0.00    -0.084 SA
ATOM      3  C   UNL d   1       2.112   0.881   0.027  0.00  0.00     0.018 A 
ATOM      4  C   UNL d   1      -1.050  -1.391   0.097  0.00  0.00     0.126 A 
ATOM      5  C   UNL d   1       0.960   1.644  -0.035  0.00  0.00     0.050 A 
ATOM      6  C   UNL d   1      -0.234   0.870  -0.015  0.00  0.00     0.055 A 
ATOM      7  N   UNL d   1      -2.297  -0.867   0.005  0.00  0.00    -0.337 N 
ATOM      8  HN  UNL d   1      -3.113  -1.479  -0.013  1.00  0.00     0.168 HD
ATOM      9  N   UNL d   1      -1.486   1.382  -0.078  0.00  0.00    -0.351 N 
ATOM     10  HN  UNL d   1      -1.675   2.383  -0.133  1.00  0.00     0.166 HD
ATOM     11  C   UNL d   1      -2.448   0.460  -0.062  0.00  0.00     0.182 A 
ENDROOT
BRANCH   4  12
ATOM     12  N   UNL d   1      -0.885  -2.774   0.239  0.00  0.00    -0.341 N 
ATOM     13  H   UNL d   1       0.049  -3.073   0.489  0.00  0.00     0.167 HD
BRANCH  12  14
ATOM     14  C   UNL d   1      -1.702  -3.792  -0.287  0.00  0.00     0.036 A 
ATOM     15  C   UNL d   1      -2.459  -3.602  -1.455  0.00  0.00     0.066 A 
ATOM     16  C   UNL d   1      -3.289  -4.608  -1.951  0.00  0.00     0.070 A 
ATOM     17  C   UNL d   1      -3.394  -5.809  -1.250  0.00  0.00     0.037 A 
ATOM     18  C   UNL d   1      -2.659  -6.012  -0.082  0.00  0.00     0.005 A 
ATOM     19  C   UNL d   1      -1.808  -5.012   0.390  0.00  0.00     0.029 A 
BRANCH  16  20
ATOM     20  O   UNL d   1      -4.039  -4.534  -3.094  0.00  0.00    -0.356 OA
ATOM     21  C   UNL d   1      -3.907  -3.345  -3.865  0.00  0.00     0.210 C 
ENDBRANCH  16  20
ENDBRANCH  12  14
ENDBRANCH   4  12
BRANCH   3  22
ATOM     22  C   UNL d   1       3.515   1.337   0.003  0.00  0.00    -0.019 A 
ATOM     23  C   UNL d   1       3.854   2.535  -0.650  0.00  0.00     0.013 A 
ATOM     24  C   UNL d   1       5.172   3.005  -0.661  0.00  0.00     0.001 A 
ATOM     25  C   UNL d   1       6.174   2.283  -0.020  0.00  0.00     0.000 A 
ATOM     26  C   UNL d   1       5.861   1.092   0.630  0.00  0.00     0.001 A 
ATOM     27  C   UNL d   1       4.542   0.625   0.643  0.00  0.00     0.013 A 
ENDBRANCH   3  22
TORSDOF 4
