REMARK  4 active torsions:
REMARK  status: ('A' for Active; 'I' for Inactive)
REMARK    1  A    between atoms: C_8  and  C_1 
REMARK       I    between atoms: C_2  and  N_4 
REMARK    2  A    between atoms: C_5  and  C_2 
REMARK    3  A    between atoms: N_7  and  C_3 
REMARK       I    between atoms: N_4  and  C_6 
REMARK       I    between atoms: C_6  and  N_7 
REMARK    4  A    between atoms: O_17  and  C_8 
ROOT
ATOM      1  C   UNL d   1       0.199   3.109   0.930  0.00  0.00     0.264 C 
ATOM      2  N   UNL d   1       1.394   3.721   0.589  0.00  0.00    -0.275 N 
ATOM      3  C   UNL d   1       2.572   3.049   0.357  0.00  0.00     0.327 C 
ATOM      4  N   UNL d   1       2.503   2.070  -0.604  0.00  0.00    -0.307 N 
ATOM      5  O   UNL d   1      -0.004   1.911   0.771  0.00  0.00    -0.267 OA
ATOM      6  O   UNL d   1       3.584   3.421   0.946  0.00  0.00    -0.247 OA
ATOM      7  H   UNL d   1       1.593   4.569   1.103  0.00  0.00     0.173 HD
ATOM      8  H   UNL d   1       1.656   2.039  -1.166  0.00  0.00     0.170 HD
ENDROOT
BRANCH   4   9
ATOM      9  C   UNL d   1       3.593   1.313  -1.037  0.00  0.00     0.060 A 
ATOM     10  C   UNL d   1       3.667   0.762  -2.312  0.00  0.00     0.106 A 
ATOM     11  S   UNL d   1       5.095  -0.175  -2.509  0.00  0.00    -0.094 SA
ATOM     12  C   UNL d   1       5.664   0.231  -0.958  0.00  0.00     0.053 A 
ATOM     13  C   UNL d   1       4.772   1.030  -0.280  0.00  0.00     0.038 A 
BRANCH  10  14
ATOM     14  C   UNL d   1       2.745   0.976  -3.419  0.00  0.00     0.302 C 
ATOM     15  O   UNL d   1       1.661   1.539  -3.321  0.00  0.00    -0.259 OA
BRANCH  14  16
ATOM     16  O   UNL d   1       3.291   0.570  -4.604  0.00  0.00    -0.322 OA
ATOM     17  C   UNL d   1       2.579   0.995  -5.767  0.00  0.00     0.213 C 
ENDBRANCH  14  16
ENDBRANCH  10  14
ENDBRANCH   4   9
BRANCH   1  18
ATOM     18  C   UNL d   1      -0.900   4.003   1.420  0.00  0.00     0.092 A 
ATOM     19  C   UNL d   1      -2.219   3.599   1.160  0.00  0.00     0.133 A 
ATOM     20  F   UNL d   1      -2.483   2.449   0.523  0.00  0.00    -0.205 F 
ATOM     21  C   UNL d   1      -3.316   4.388   1.515  0.00  0.00     0.043 A 
ATOM     22  C   UNL d   1      -3.119   5.611   2.142  0.00  0.00     0.005 A 
ATOM     23  C   UNL d   1      -1.822   6.027   2.433  0.00  0.00     0.025 A 
ATOM     24  C   UNL d   1      -0.719   5.227   2.087  0.00  0.00     0.052 A 
ATOM     25 CL   UNL d   1       0.826   5.839   2.569  0.00  0.00    -0.083 Cl
ENDBRANCH   1  18
TORSDOF 4
