REMARK  7 active torsions:
REMARK  status: ('A' for Active; 'I' for Inactive)
REMARK    1  A    between atoms: C_19  and  C_1 
REMARK    2  A    between atoms: C_20  and  C_2 
REMARK    3  A    between atoms: S_12  and  C_5 
REMARK    4  A    between atoms: C_6  and  S_23 
REMARK    5  A    between atoms: C_11  and  S_12 
REMARK    6  A    between atoms: N_18  and  C_17 
REMARK    7  A    between atoms: S_23  and  C_24 
ROOT
ATOM      1  C   UNL d   1       2.244  -2.842  -0.150  0.00  0.00     0.111 A 
ATOM      2  C   UNL d   1       2.945  -2.363   0.951  0.00  0.00     0.136 A 
ATOM      3  N   UNL d   1       2.893  -3.386  -1.217  0.00  0.00    -0.343 N 
ATOM      4  HN  UNL d   1       2.372  -3.759  -2.011  1.00  0.00     0.167 HD
ATOM      5  C   UNL d   1       4.248  -3.418  -1.198  0.00  0.00     0.078 A 
ATOM      6  C   UNL d   1       4.342  -2.376   0.954  0.00  0.00     0.042 A 
ATOM      7  C   UNL d   1       5.003  -2.903  -0.149  0.00  0.00     0.040 A 
ENDROOT
BRANCH   1   8
ATOM      8  S   UNL d   1       0.471  -2.779  -0.342  0.00  0.00    -0.032 SA
BRANCH   8   9
ATOM      9  C   UNL d   1       0.339  -1.178  -0.988  0.00  0.00     0.169 A 
ATOM     10  N   UNL d   1      -0.830  -0.638  -1.459  0.00  0.00    -0.312 N 
ATOM     11  C   UNL d   1      -0.493   0.610  -1.946  0.00  0.00     0.209 A 
ATOM     12  C   UNL d   1      -2.134  -1.252  -1.462  0.00  0.00     0.160 C 
ATOM     13  N   UNL d   1       0.794   0.813  -1.710  0.00  0.00    -0.279 N 
ATOM     14  N   UNL d   1       1.308  -0.303  -1.107  0.00  0.00    -0.278 N 
ATOM     15  HN  UNL d   1       1.315   1.659  -1.940  1.00  0.00     0.188 HD
ATOM     16  HN  UNL d   1       2.274  -0.432  -0.804  1.00  0.00     0.189 HD
BRANCH  11  17
ATOM     17  C   UNL d   1      -1.415   1.561  -2.625  0.00  0.00     0.450 C 
ATOM     18  F   UNL d   1      -2.655   1.043  -2.838  0.00  0.00    -0.163 F 
ATOM     19  F   UNL d   1      -1.596   2.697  -1.906  0.00  0.00    -0.163 F 
ATOM     20  F   UNL d   1      -0.954   1.933  -3.848  0.00  0.00    -0.163 F 
ENDBRANCH  11  17
ENDBRANCH   8   9
ENDBRANCH   1   8
BRANCH   2  21
ATOM     21  N   UNL d   1       2.258  -1.879   2.123  0.00  0.00    -0.113 N 
ATOM     22  O   UNL d   1       1.444  -2.636   2.662  0.00  0.00    -0.532 OA
ATOM     23  O   UNL d   1       2.583  -0.760   2.545  0.00  0.00    -0.532 OA
ENDBRANCH   2  21
BRANCH   5  24
ATOM     24  S   UNL d   1       5.036  -4.145  -2.617  0.00  0.00    -0.035 SA
BRANCH  24  25
ATOM     25  C   UNL d   1       5.349  -5.710  -1.946  0.00  0.00     0.169 A 
ATOM     26  N   UNL d   1       5.325  -6.873  -2.676  0.00  0.00    -0.312 N 
ATOM     27  C   UNL d   1       5.621  -7.878  -1.778  0.00  0.00     0.209 A 
ATOM     28  C   UNL d   1       5.019  -6.972  -4.081  0.00  0.00     0.160 C 
ATOM     29  N   UNL d   1       5.837  -7.325  -0.593  0.00  0.00    -0.279 N 
ATOM     30  N   UNL d   1       5.672  -5.972  -0.704  0.00  0.00    -0.278 N 
ATOM     31  HN  UNL d   1       6.086  -7.826   0.260  1.00  0.00     0.188 HD
ATOM     32  HN  UNL d   1       5.780  -5.289   0.047  1.00  0.00     0.189 HD
BRANCH  27  33
ATOM     33  C   UNL d   1       5.698  -9.337  -2.062  0.00  0.00     0.450 C 
ATOM     34  F   UNL d   1       5.298  -9.672  -3.317  0.00  0.00    -0.163 F 
ATOM     35  F   UNL d   1       6.965  -9.809  -1.931  0.00  0.00    -0.163 F 
ATOM     36  F   UNL d   1       4.918 -10.062  -1.219  0.00  0.00    -0.163 F 
ENDBRANCH  27  33
ENDBRANCH  24  25
ENDBRANCH   5  24
TORSDOF 7
