REMARK  4 active torsions:
REMARK  status: ('A' for Active; 'I' for Inactive)
REMARK    1  A    between atoms: N_9  and  C_6 
REMARK    2  A    between atoms: C_12  and  N_9 
REMARK    3  A    between atoms: C_13  and  C_12 
REMARK    4  A    between atoms: O_21  and  C_14 
ROOT
ATOM      1  C   UNL d   1      -2.474  -0.689  -0.003  0.00  0.00     0.103 A 
ATOM      2  C   UNL d   1      -1.933   0.701   0.016  0.00  0.00     0.200 A 
ATOM      3  C   UNL d   1      -1.324  -1.631   0.003  0.00  0.00     0.200 A 
ATOM      4  C   UNL d   1      -0.466   0.550   0.004  0.00  0.00     0.029 A 
ATOM      5  C   UNL d   1      -0.124  -0.799  -0.003  0.00  0.00     0.029 A 
ATOM      6  C   UNL d   1      -3.744  -1.127  -0.035  0.00  0.00     0.128 C 
ATOM      7  N   UNL d   1      -5.775   0.492  -0.003  0.00  0.00    -0.190 NA
ATOM      8  C   UNL d   1      -4.840  -0.202  -0.020  0.00  0.00     0.118 C 
ATOM      9  O   UNL d   1      -1.346  -2.846   0.028  0.00  0.00    -0.286 OA
ATOM     10  O   UNL d   1      -2.542   1.748   0.030  0.00  0.00    -0.286 OA
ATOM     11  C   UNL d   1       0.513   1.528  -0.003  0.00  0.00     0.016 A 
ATOM     12  C   UNL d   1       1.188  -1.233  -0.013  0.00  0.00     0.016 A 
ATOM     13  C   UNL d   1       1.852   1.110  -0.015  0.00  0.00     0.001 A 
ATOM     14  C   UNL d   1       2.186  -0.259  -0.019  0.00  0.00     0.001 A 
ENDROOT
BRANCH   6  15
ATOM     15  N   UNL d   1      -4.088  -2.479  -0.109  0.00  0.00    -0.376 N 
ATOM     16  H   UNL d   1      -3.292  -3.125  -0.045  0.00  0.00     0.160 HD
BRANCH  15  17
ATOM     17  C   UNL d   1      -5.387  -3.118  -0.029  0.00  0.00     0.159 C 
BRANCH  17  18
ATOM     18  C   UNL d   1      -5.311  -4.465  -0.716  0.00  0.00    -0.040 A 
ATOM     19  C   UNL d   1      -4.965  -5.622  -0.005  0.00  0.00     0.011 A 
ATOM     20  C   UNL d   1      -4.830  -6.847  -0.669  0.00  0.00     0.037 A 
ATOM     21  C   UNL d   1      -5.050  -6.944  -2.045  0.00  0.00     0.068 A 
ATOM     22  C   UNL d   1      -5.397  -5.799  -2.759  0.00  0.00     0.037 A 
ATOM     23  C   UNL d   1      -5.518  -4.568  -2.099  0.00  0.00     0.011 A 
BRANCH  21  24
ATOM     24  O   UNL d   1      -4.832  -8.183  -2.581  0.00  0.00    -0.356 OA
ATOM     25  C   UNL d   1      -5.529  -8.489  -3.783  0.00  0.00     0.210 C 
ENDBRANCH  21  24
ENDBRANCH  17  18
ENDBRANCH  15  17
ENDBRANCH   6  15
TORSDOF 4
