REMARK  4 active torsions:
REMARK  status: ('A' for Active; 'I' for Inactive)
REMARK    1  A    between atoms: C_6  and  C_1 
REMARK    2  A    between atoms: C_5  and  N_14 
REMARK    3  A    between atoms: C_7  and  C_6 
REMARK    4  A    between atoms: N_14  and  C_8 
ROOT
ATOM      1  C   UNL d   1       0.898  -0.103  -0.042  0.00  0.00     0.111 C 
ATOM      2  C   UNL d   1       0.241   1.050  -0.329  0.00  0.00     0.116 C 
ATOM      3  C   UNL d   1       0.176  -1.358   0.211  0.00  0.00     0.105 C 
ATOM      4  N   UNL d   1      -0.412  -2.339   0.407  0.00  0.00    -0.191 NA
ENDROOT
BRANCH   1   5
ATOM      5  C   UNL d   1       2.419  -0.074  -0.131  0.00  0.00     0.210 C 
ATOM      6  O   UNL d   1       2.962   0.758  -0.868  0.00  0.00    -0.285 OA
BRANCH   5   7
ATOM      7  C   UNL d   1       3.172  -1.042   0.663  0.00  0.00     0.056 A 
ATOM      8  S   UNL d   1       4.716  -1.547   0.102  0.00  0.00    -0.098 SA
ATOM      9  C   UNL d   1       4.951  -2.574   1.446  0.00  0.00     0.050 A 
ATOM     10  C   UNL d   1       3.890  -2.529   2.320  0.00  0.00     0.009 A 
ATOM     11  C   UNL d   1       2.864  -1.643   1.872  0.00  0.00     0.023 A 
ENDBRANCH   5   7
ENDBRANCH   1   5
BRANCH   2  12
ATOM     12  N   UNL d   1      -1.127   1.258  -0.279  0.00  0.00    -0.349 N 
ATOM     13  H   UNL d   1      -1.659   0.553   0.230  0.00  0.00     0.167 HD
BRANCH  12  14
ATOM     14  C   UNL d   1      -1.846   2.345  -0.640  0.00  0.00     0.128 A 
ATOM     15  N   UNL d   1      -3.064   2.617  -0.160  0.00  0.00    -0.245 N 
ATOM     16  O   UNL d   1      -3.458   3.797  -0.760  0.00  0.00    -0.241 OA
ATOM     17  HN  UNL d   1      -3.595   2.064   0.514  1.00  0.00     0.196 HD
ATOM     18  C   UNL d   1      -2.497   4.202  -1.630  0.00  0.00     0.076 A 
ATOM     19  C   UNL d   1      -1.455   3.309  -1.596  0.00  0.00     0.084 A 
ATOM     20  C   UNL d   1      -2.770   5.438  -2.382  0.00  0.00     0.079 C 
ENDBRANCH  12  14
ENDBRANCH   2  12
TORSDOF 4
