REMARK  4 active torsions:
REMARK  status: ('A' for Active; 'I' for Inactive)
REMARK    1  A    between atoms: C_7  and  N_1 
REMARK    2  A    between atoms: C_13  and  N_4 
REMARK    3  A    between atoms: C_8  and  C_7 
REMARK    4  A    between atoms: C_11  and  C_13 
ROOT
ATOM      1  N   UNL d   1       0.806   1.073  -0.295  0.00  0.00    -0.336 N 
ATOM      2  C   UNL d   1       1.610   0.141   0.330  0.00  0.00     0.140 C 
ATOM      3  S   UNL d   1       1.098  -1.495  -0.004  0.00  0.00    -0.070 SA
ATOM      4  N   UNL d   1      -1.262  -0.128  -0.298  0.00  0.00     0.119 N 
ATOM      5  C   UNL d   1      -0.592   1.107   0.088  0.00  0.00     0.400 C 
ATOM      6  C   UNL d   1      -0.646  -1.289   0.344  0.00  0.00     0.356 C 
ATOM      7  S   UNL d   1       2.982   0.460   1.233  0.00  0.00    -0.053 SA
ENDROOT
BRANCH   1   8
ATOM      8  C   UNL d   1       1.352   2.302  -0.879  0.00  0.00     0.172 C 
BRANCH   8   9
ATOM      9  C   UNL d   1       1.206   2.267  -2.379  0.00  0.00     0.000 A 
ATOM     10  S   UNL d   1       1.048   3.739  -3.247  0.00  0.00    -0.105 SA
ATOM     11  C   UNL d   1       1.056   2.932  -4.754  0.00  0.00     0.050 A 
ATOM     12  C   UNL d   1       1.153   1.567  -4.609  0.00  0.00     0.008 A 
ATOM     13  C   UNL d   1       1.239   1.184  -3.240  0.00  0.00     0.017 A 
ENDBRANCH   8   9
ENDBRANCH   1   8
BRANCH   4  14
ATOM     14  C   UNL d   1      -2.684  -0.095   0.129  0.00  0.00     0.321 C 
BRANCH  14  15
ATOM     15  C   UNL d   1      -3.458   1.068  -0.429  0.00  0.00     0.011 A 
ATOM     16  S   UNL d   1      -4.157   2.221   0.636  0.00  0.00    -0.105 SA
ATOM     17  C   UNL d   1      -4.737   3.163  -0.666  0.00  0.00     0.050 A 
ATOM     18  C   UNL d   1      -4.433   2.601  -1.885  0.00  0.00     0.008 A 
ATOM     19  C   UNL d   1      -3.700   1.388  -1.748  0.00  0.00     0.017 A 
ENDBRANCH  14  15
ENDBRANCH   4  14
TORSDOF 4
