REMARK  2 active torsions:
REMARK  status: ('A' for Active; 'I' for Inactive)
REMARK    1  A    between atoms: C_14  and  C_5 
REMARK    2  A    between atoms: C_7  and  C_13 
ROOT
ATOM      1  N   UNL d   1       0.730   0.227  -1.119  0.00  0.00    -0.347 N 
ATOM      2  HN  UNL d   1       1.095   0.369  -2.061  1.00  0.00     0.167 HD
ATOM      3  C   UNL d   1      -0.325  -0.505  -0.819  0.00  0.00     0.111 A 
ATOM      4  C   UNL d   1      -1.114  -1.173  -1.813  0.00  0.00     0.134 A 
ATOM      5  C   UNL d   1       1.271   0.776   0.036  0.00  0.00     0.050 A 
ATOM      6  S   UNL d   1      -0.700  -0.612   0.852  0.00  0.00    -0.079 SA
ATOM      7  C   UNL d   1       0.634   0.402   1.204  0.00  0.00     0.082 A 
ATOM      8  N   UNL d   1      -2.783  -2.422  -2.687  0.00  0.00    -0.272 N 
ATOM      9  HN  UNL d   1      -3.618  -3.001  -2.774  1.00  0.00     0.194 HD
ATOM     10  O   UNL d   1      -2.241  -1.900  -1.524  0.00  0.00    -0.236 OA
ATOM     11  C   UNL d   1      -0.923  -1.221  -3.180  0.00  0.00     0.061 A 
ATOM     12  C   UNL d   1      -1.981  -2.007  -3.666  0.00  0.00     0.117 A 
ENDROOT
BRANCH   5  13
ATOM     13  C   UNL d   1       2.425   1.670  -0.011  0.00  0.00    -0.009 A 
ATOM     14  C   UNL d   1       2.634   2.647   0.974  0.00  0.00     0.014 A 
ATOM     15  C   UNL d   1       3.735   3.508   0.907  0.00  0.00     0.017 A 
ATOM     16  C   UNL d   1       4.650   3.415  -0.149  0.00  0.00     0.048 A 
ATOM     17  C   UNL d   1       4.443   2.438  -1.135  0.00  0.00     0.017 A 
ATOM     18  C   UNL d   1       3.339   1.579  -1.068  0.00  0.00     0.014 A 
BRANCH  16  19
ATOM     19  C   UNL d   1       5.833   4.348  -0.238  0.00  0.00     0.417 C 
ATOM     20  F   UNL d   1       5.894   5.247   0.785  0.00  0.00    -0.166 F 
ATOM     21  F   UNL d   1       7.023   3.686  -0.222  0.00  0.00    -0.166 F 
ATOM     22  F   UNL d   1       5.830   5.087  -1.382  0.00  0.00    -0.166 F 
ENDBRANCH  16  19
ENDBRANCH   5  13
TORSDOF 2
