REMARK  3 active torsions:
REMARK  status: ('A' for Active; 'I' for Inactive)
REMARK    1  A    between atoms: N_6  and  C_1 
REMARK    2  A    between atoms: C_10  and  N_2 
REMARK       I    between atoms: C_7  and  N_6 
REMARK    3  A    between atoms: C_9  and  C_7 
ROOT
ATOM      1  C   UNL d   1      -0.418  -1.099   0.198  0.00  0.00     0.132 C 
ATOM      2  N   UNL d   1       0.893  -0.693  -0.013  0.00  0.00    -0.240 N 
ATOM      3  N   UNL d   1       0.977   0.654  -0.158  0.00  0.00    -0.297 N 
ATOM      4  HN  UNL d   1       1.778   1.199  -0.477  1.00  0.00     0.187 HD
ATOM      5  C   UNL d   1      -1.116   0.046   0.526  0.00  0.00     0.076 C 
ATOM      6  C   UNL d   1      -0.227   1.104   0.210  0.00  0.00     0.026 C 
ATOM      7  C   UNL d   1      -0.510   2.560   0.171  0.00  0.00     0.070 C 
ENDROOT
BRANCH   1   8
ATOM      8  N   UNL d   1      -0.859  -2.397  -0.009  0.00  0.00    -0.307 N 
ATOM      9  C   UNL d   1      -1.689  -3.044   0.887  0.00  0.00     0.257 C 
ATOM     10  O   UNL d   1      -2.110  -2.590   1.942  0.00  0.00    -0.267 OA
ATOM     11  H   UNL d   1      -0.293  -2.971  -0.625  0.00  0.00     0.170 HD
BRANCH   9  12
ATOM     12  C   UNL d   1      -1.941  -4.475   0.544  0.00  0.00     0.035 A 
ATOM     13  C   UNL d   1      -1.987  -5.425   1.571  0.00  0.00     0.041 A 
ATOM     14  C   UNL d   1      -2.154  -6.775   1.255  0.00  0.00     0.036 A 
ATOM     15 CL   UNL d   1      -2.168  -7.952   2.511  0.00  0.00    -0.084 Cl
ATOM     16  C   UNL d   1      -2.293  -7.185  -0.068  0.00  0.00     0.047 A 
ATOM     17  C   UNL d   1      -2.272  -6.232  -1.083  0.00  0.00     0.036 A 
ATOM     18  C   UNL d   1      -2.098  -4.879  -0.787  0.00  0.00     0.041 A 
ATOM     19 CL   UNL d   1      -2.451  -6.723  -2.722  0.00  0.00    -0.084 Cl
ENDBRANCH   9  12
ENDBRANCH   1   8
BRANCH   2  20
ATOM     20  C   UNL d   1       2.067  -1.506  -0.045  0.00  0.00     0.058 A 
ATOM     21  C   UNL d   1       3.236  -1.016  -0.642  0.00  0.00     0.031 A 
ATOM     22  C   UNL d   1       4.381  -1.814  -0.686  0.00  0.00     0.002 A 
ATOM     23  C   UNL d   1       4.377  -3.088  -0.119  0.00  0.00     0.000 A 
ATOM     24  C   UNL d   1       3.231  -3.564   0.511  0.00  0.00     0.002 A 
ATOM     25  C   UNL d   1       2.083  -2.774   0.557  0.00  0.00     0.031 A 
ENDBRANCH   2  20
TORSDOF 3
