REMARK  7 active torsions:
REMARK  status: ('A' for Active; 'I' for Inactive)
REMARK    1  A    between atoms: C_3  and  C_1 
REMARK    2  A    between atoms: C_2  and  N_4 
REMARK    3  A    between atoms: N_5  and  C_2 
REMARK    4  A    between atoms: N_4  and  C_8 
REMARK    5  A    between atoms: C_13  and  N_5 
REMARK    6  A    between atoms: O_12  and  C_14 
REMARK    7  A    between atoms: C_15  and  O_12 
ROOT
ATOM      1  N   UNL d   1       2.276  -3.287  -2.207  0.00  0.00    -0.333 N 
ATOM      2  H   UNL d   1       2.171  -3.331  -3.214  0.00  0.00     0.168 HD
ENDROOT
BRANCH   1   3
ATOM      3  C   UNL d   1       1.851  -4.429  -1.573  0.00  0.00     0.176 C 
ATOM      4  S   UNL d   1       0.763  -4.505  -0.292  0.00  0.00    -0.041 SA
BRANCH   3   5
ATOM      5  N   UNL d   1       2.243  -5.634  -2.085  0.00  0.00    -0.333 N 
ATOM      6  H   UNL d   1       1.723  -6.399  -1.668  0.00  0.00     0.168 HD
BRANCH   5   7
ATOM      7  C   UNL d   1       3.254  -6.008  -2.988  0.00  0.00     0.035 A 
ATOM      8  C   UNL d   1       4.227  -5.147  -3.487  0.00  0.00     0.045 A 
ATOM      9  C   UNL d   1       5.163  -5.589  -4.441  0.00  0.00     0.050 A 
ATOM     10  C   UNL d   1       5.158  -6.939  -4.829  0.00  0.00     0.016 A 
ATOM     11  C   UNL d   1       4.229  -7.820  -4.288  0.00  0.00     0.003 A 
ATOM     12  C   UNL d   1       3.277  -7.355  -3.378  0.00  0.00     0.029 A 
BRANCH   9  13
ATOM     13  C   UNL d   1       6.144  -4.627  -5.059  0.00  0.00     0.417 C 
ATOM     14  F   UNL d   1       5.886  -3.322  -4.759  0.00  0.00    -0.166 F 
ATOM     15  F   UNL d   1       6.146  -4.696  -6.420  0.00  0.00    -0.166 F 
ATOM     16  F   UNL d   1       7.428  -4.856  -4.670  0.00  0.00    -0.166 F 
ENDBRANCH   9  13
ENDBRANCH   5   7
ENDBRANCH   3   5
ENDBRANCH   1   3
BRANCH   1  17
ATOM     17  C   UNL d   1       2.294  -1.994  -1.642  0.00  0.00     0.034 C 
ATOM     18  C   UNL d   1       2.755  -1.792  -0.339  0.00  0.00     0.032 C 
ATOM     19  C   UNL d   1       2.680  -0.530   0.249  0.00  0.00     0.039 C 
ATOM     20  C   UNL d   1       2.078   0.522  -0.438  0.00  0.00     0.076 C 
ATOM     21  C   UNL d   1       1.734   0.357  -1.783  0.00  0.00     0.039 C 
ATOM     22  C   UNL d   1       1.868  -0.898  -2.393  0.00  0.00     0.032 C 
BRANCH  20  23
ATOM     23  O   UNL d   1       1.820   1.754   0.122  0.00  0.00    -0.311 OA
BRANCH  23  24
ATOM     24  C   UNL d   1       1.426   1.829   1.447  0.00  0.00     0.076 A 
ATOM     25  C   UNL d   1       1.731   3.021   2.107  0.00  0.00     0.037 A 
ATOM     26  C   UNL d   1       1.419   3.180   3.459  0.00  0.00     0.003 A 
ATOM     27  C   UNL d   1       0.799   2.143   4.158  0.00  0.00     0.000 A 
ATOM     28  C   UNL d   1       0.448   0.972   3.492  0.00  0.00     0.003 A 
ATOM     29  C   UNL d   1       0.730   0.828   2.133  0.00  0.00     0.037 A 
ENDBRANCH  23  24
ENDBRANCH  20  23
ENDBRANCH   1  17
TORSDOF 7
