REMARK  6 active torsions:
REMARK  status: ('A' for Active; 'I' for Inactive)
REMARK    1  A    between atoms: S_3  and  C_1 
REMARK    2  A    between atoms: C_7  and  C_2 
REMARK    3  A    between atoms: N_8  and  S_3 
REMARK    4  A    between atoms: O_16  and  C_7 
REMARK    5  A    between atoms: C_15  and  N_8 
REMARK    6  A    between atoms: C_11  and  C_15 
ROOT
ATOM      1  C   UNL d   1      -0.725   1.378   0.017  0.00  0.00     0.127 A 
ATOM      2  C   UNL d   1       0.714   1.403  -0.037  0.00  0.00     0.094 A 
ATOM      3  C   UNL d   1      -1.099   0.046   0.035  0.00  0.00     0.073 A 
ATOM      4  C   UNL d   1       1.102   0.072   0.033  0.00  0.00     0.067 A 
ATOM      5  O   UNL d   1       0.013  -0.738   0.070  0.00  0.00    -0.318 OA
ATOM      6  C   UNL d   1       2.394  -0.651   0.026  0.00  0.00     0.078 C 
ATOM      7  C   UNL d   1      -2.367  -0.718   0.024  0.00  0.00     0.078 C 
ENDROOT
BRANCH   1   8
ATOM      8  S   UNL d   1      -1.788   2.741   0.090  0.00  0.00     0.262 S 
ATOM      9  O   UNL d   1      -1.503   3.513  -1.093  0.00  0.00    -0.200 OA
ATOM     10  O   UNL d   1      -3.095   2.168   0.327  0.00  0.00    -0.200 OA
BRANCH   8  11
ATOM     11  N   UNL d   1      -1.435   3.623   1.478  0.00  0.00    -0.315 N 
ATOM     12  H   UNL d   1      -1.255   3.041   2.292  0.00  0.00     0.172 HD
BRANCH  11  13
ATOM     13  C   UNL d   1      -0.613   4.815   1.329  0.00  0.00     0.136 C 
BRANCH  13  14
ATOM     14  C   UNL d   1      -0.453   5.479   2.662  0.00  0.00     0.004 A 
ATOM     15  C   UNL d   1       0.473   6.664   2.774  0.00  0.00     0.007 A 
ATOM     16  C   UNL d   1       0.847   5.360   3.422  0.00  0.00     0.007 A 
ENDBRANCH  13  14
ENDBRANCH  11  13
ENDBRANCH   8  11
ENDBRANCH   1   8
BRANCH   2  17
ATOM     17  C   UNL d   1       1.619   2.526  -0.176  0.00  0.00     0.297 C 
ATOM     18  O   UNL d   1       1.359   3.533  -0.824  0.00  0.00    -0.259 OA
BRANCH  17  19
ATOM     19  O   UNL d   1       2.785   2.358   0.513  0.00  0.00    -0.322 OA
ATOM     20  C   UNL d   1       3.705   3.448   0.399  0.00  0.00     0.213 C 
ENDBRANCH  17  19
ENDBRANCH   2  17
TORSDOF 6
