REMARK  5 active torsions:
REMARK  status: ('A' for Active; 'I' for Inactive)
REMARK    1  A    between atoms: C_2  and  C_1 
REMARK       I    between atoms: N_6  and  C_2 
REMARK    2  A    between atoms: N_9  and  C_3 
REMARK    3  A    between atoms: C_19  and  N_6 
REMARK    4  A    between atoms: C_13  and  C_20 
REMARK    5  A    between atoms: C_20  and  C_19 
ROOT
ATOM      1  C   UNL d   1      -2.040   2.536  -0.046  0.00  0.00     0.253 C 
ATOM      2  O   UNL d   1      -1.367   3.560  -0.022  0.00  0.00    -0.268 OA
ATOM      3  N   UNL d   1      -3.421   2.546  -0.061  0.00  0.00    -0.357 N 
ATOM      4  H   UNL d   1      -3.890   1.674  -0.297  0.00  0.00     0.162 HD
ENDROOT
BRANCH   1   5
ATOM      5  C   UNL d   1      -1.366   1.206  -0.091  0.00  0.00     0.054 A 
ATOM      6  C   UNL d   1      -1.893   0.041   0.508  0.00  0.00     0.021 A 
ATOM      7  C   UNL d   1      -1.187  -1.164   0.359  0.00  0.00     0.026 A 
ATOM      8  C   UNL d   1       0.063  -1.196  -0.265  0.00  0.00     0.026 A 
ATOM      9  C   UNL d   1       0.599  -0.028  -0.796  0.00  0.00     0.035 A 
ATOM     10  C   UNL d   1      -0.110   1.167  -0.721  0.00  0.00     0.042 A 
ATOM     11 CL   UNL d   1       2.140  -0.067  -1.560  0.00  0.00    -0.084 Cl
BRANCH   6  12
ATOM     12  N   UNL d   1      -3.176  -0.010   1.092  0.00  0.00    -0.302 NA
ATOM     13  H   UNL d   1      -3.401   0.857   1.582  0.00  0.00     0.124 HD
ATOM     14  H   UNL d   1      -3.306  -0.812   1.704  0.00  0.00     0.124 HD
ENDBRANCH   6  12
ENDBRANCH   1   5
BRANCH   3  15
ATOM     15  C   UNL d   1      -4.144   3.807  -0.120  0.00  0.00     0.127 C 
BRANCH  15  16
ATOM     16  C   UNL d   1      -5.659   3.621  -0.054  0.00  0.00     0.058 C 
BRANCH  16  17
ATOM     17  C   UNL d   1      -6.413   4.930  -0.091  0.00  0.00    -0.057 A 
ATOM     18  C   UNL d   1      -6.778   5.506  -1.317  0.00  0.00     0.009 A 
ATOM     19  C   UNL d   1      -7.490   6.710  -1.352  0.00  0.00     0.024 A 
ATOM     20  C   UNL d   1      -7.835   7.345  -0.163  0.00  0.00     0.034 A 
ATOM     21  C   UNL d   1      -7.467   6.793   1.062  0.00  0.00     0.024 A 
ATOM     22 CL   UNL d   1      -8.726   8.817  -0.206  0.00  0.00    -0.084 Cl
ATOM     23  C   UNL d   1      -6.755   5.590   1.098  0.00  0.00     0.009 A 
ENDBRANCH  16  17
ENDBRANCH  15  16
ENDBRANCH   3  15
TORSDOF 5
