REMARK  7 active torsions:
REMARK  status: ('A' for Active; 'I' for Inactive)
REMARK    1  A    between atoms: C_3  and  C_1 
REMARK    2  A    between atoms: N_4  and  C_2 
REMARK    3  A    between atoms: O_14  and  C_3 
REMARK       I    between atoms: C_5  and  N_4 
REMARK    4  A    between atoms: C_7  and  C_5 
REMARK    5  A    between atoms: C_10  and  C_7 
REMARK    6  A    between atoms: O_15  and  C_10 
REMARK    7  A    between atoms: C_16  and  O_15 
ROOT
ATOM      1  N   UNL d   1       2.399   1.494  -0.278  0.00  0.00    -0.325 N 
ATOM      2  C   UNL d   1       2.469   2.147   0.938  0.00  0.00     0.231 C 
ATOM      3  O   UNL d   1       1.531   2.310   1.716  0.00  0.00    -0.273 OA
ATOM      4  H   UNL d   1       3.288   1.276  -0.731  0.00  0.00     0.169 HD
ENDROOT
BRANCH   1   5
ATOM      5  C   UNL d   1       1.328   0.711  -0.705  0.00  0.00     0.058 A 
ATOM      6  C   UNL d   1      -0.034   0.858  -0.476  0.00  0.00     0.106 A 
ATOM      7  S   UNL d   1      -0.916  -0.497  -1.089  0.00  0.00    -0.094 SA
ATOM      8  C   UNL d   1       0.480  -1.212  -1.745  0.00  0.00     0.053 A 
ATOM      9  C   UNL d   1       1.601  -0.459  -1.496  0.00  0.00     0.038 A 
BRANCH   6  10
ATOM     10  C   UNL d   1      -0.833   1.916   0.113  0.00  0.00     0.302 C 
ATOM     11  O   UNL d   1      -1.891   1.763   0.718  0.00  0.00    -0.259 OA
BRANCH  10  12
ATOM     12  O   UNL d   1      -0.322   3.142  -0.218  0.00  0.00    -0.322 OA
ATOM     13  C   UNL d   1      -1.096   4.230   0.291  0.00  0.00     0.213 C 
ENDBRANCH  10  12
ENDBRANCH   6  10
ENDBRANCH   1   5
BRANCH   2  14
ATOM     14  C   UNL d   1       3.844   2.674   1.283  0.00  0.00     0.214 C 
BRANCH  14  15
ATOM     15  C   UNL d   1       4.962   1.752   0.884  0.00  0.00     0.267 C 
ATOM     16  O   UNL d   1       5.155   1.410  -0.276  0.00  0.00    -0.265 OA
BRANCH  15  17
ATOM     17  O   UNL d   1       5.679   1.333   1.958  0.00  0.00    -0.322 OA
BRANCH  17  18
ATOM     18  C   UNL d   1       6.786   0.456   1.689  0.00  0.00     0.174 C 
ATOM     19  C   UNL d   1       6.328  -0.948   1.330  0.00  0.00     0.034 C 
ENDBRANCH  17  18
ENDBRANCH  15  17
ENDBRANCH  14  15
ENDBRANCH   2  14
TORSDOF 7
