REMARK  4 active torsions:
REMARK  status: ('A' for Active; 'I' for Inactive)
REMARK    1  A    between atoms: N_2  and  S_1 
REMARK    2  A    between atoms: C_7  and  S_1 
REMARK    3  A    between atoms: S_8  and  C_4 
REMARK    4  A    between atoms: S_9  and  C_4 
ROOT
ATOM      1  S   UNL d   1       0.972  -0.131   0.046  0.00  0.00     0.264 S 
ATOM      2  O   UNL d   1       0.481  -1.189   0.904  0.00  0.00    -0.200 OA
ATOM      3  O   UNL d   1       0.455   1.222   0.145  0.00  0.00    -0.200 OA
ENDROOT
BRANCH   1   4
ATOM      4  N   UNL d   1       0.953  -0.588  -1.487  0.00  0.00    -0.269 N 
ATOM      5  C   UNL d   1      -0.087  -0.987  -2.117  0.00  0.00     0.116 C 
ATOM      6  HN  UNL d   1       1.834  -0.559  -2.000  1.00  0.00     0.180 HD
BRANCH   5   7
ATOM      7  S   UNL d   1      -1.739  -1.105  -1.579  0.00  0.00    -0.109 SA
ATOM      8  C   UNL d   1      -2.179   0.642  -1.483  0.00  0.00     0.097 C 
ENDBRANCH   5   7
BRANCH   5   9
ATOM      9  S   UNL d   1       0.153  -1.551  -3.773  0.00  0.00    -0.109 SA
ATOM     10  C   UNL d   1       1.958  -1.724  -3.800  0.00  0.00     0.097 C 
ENDBRANCH   5   9
ENDBRANCH   1   4
BRANCH   1  11
ATOM     11  C   UNL d   1       2.732  -0.050   0.319  0.00  0.00     0.079 A 
ATOM     12  C   UNL d   1       3.352   1.166   0.607  0.00  0.00     0.025 A 
ATOM     13  C   UNL d   1       4.744   1.220   0.672  0.00  0.00     0.002 A 
ATOM     14  C   UNL d   1       5.503   0.067   0.450  0.00  0.00     0.000 A 
ATOM     15  C   UNL d   1       4.877  -1.150   0.180  0.00  0.00     0.002 A 
ATOM     16  C   UNL d   1       3.486  -1.214   0.117  0.00  0.00     0.025 A 
ENDBRANCH   1  11
TORSDOF 4
