REMARK  5 active torsions:
REMARK  status: ('A' for Active; 'I' for Inactive)
REMARK    1  A    between atoms: N_5  and  C_1 
REMARK    2  A    between atoms: C_9  and  C_4 
REMARK       I    between atoms: C_8  and  N_5 
REMARK    3  A    between atoms: C_12  and  C_8 
REMARK    4  A    between atoms: C_25  and  C_22 
REMARK    5  A    between atoms: C_26  and  C_25 
ROOT
ATOM      1  C   UNL d   1      -1.513   0.238  -0.156  0.00  0.00     0.152 A 
ATOM      2  N   UNL d   1      -1.310  -1.009   0.169  0.00  0.00    -0.335 N 
ATOM      3  HN  UNL d   1      -2.042  -1.674   0.419  1.00  0.00     0.168 HD
ATOM      4  C   UNL d   1       0.045  -1.297   0.126  0.00  0.00     0.057 A 
ATOM      5  S   UNL d   1      -0.131   1.130  -0.603  0.00  0.00    -0.057 SA
ATOM      6  C   UNL d   1       0.846  -0.273  -0.358  0.00  0.00     0.010 A 
ATOM      7  C   UNL d   1       2.308  -0.229  -0.659  0.00  0.00     0.059 C 
ENDROOT
BRANCH   1   8
ATOM      8  N   UNL d   1      -2.685   0.949  -0.165  0.00  0.00    -0.303 N 
ATOM      9  C   UNL d   1      -3.917   0.331  -0.073  0.00  0.00     0.257 C 
ATOM     10  O   UNL d   1      -4.136  -0.875  -0.072  0.00  0.00    -0.267 OA
ATOM     11  H   UNL d   1      -2.607   1.938  -0.343  0.00  0.00     0.171 HD
BRANCH   9  12
ATOM     12  C   UNL d   1      -5.086   1.260  -0.077  0.00  0.00     0.032 A 
ATOM     13  C   UNL d   1      -6.265   0.850  -0.709  0.00  0.00     0.017 A 
ATOM     14  C   UNL d   1      -7.351   1.726  -0.826  0.00  0.00     0.008 A 
ATOM     15  C   UNL d   1      -7.273   3.024  -0.301  0.00  0.00    -0.058 A 
ATOM     16  C   UNL d   1      -6.128   3.394   0.416  0.00  0.00     0.008 A 
ATOM     17  C   UNL d   1      -5.036   2.525   0.520  0.00  0.00     0.017 A 
BRANCH  15  18
ATOM     18  C   UNL d   1      -8.403   4.006  -0.514  0.00  0.00     0.038 C 
BRANCH  18  19
ATOM     19  C   UNL d   1      -7.978   5.277  -1.264  0.00  0.00     0.000 C 
ATOM     20  C   UNL d   1      -7.453   5.005  -2.669  0.00  0.00     0.005 C 
ENDBRANCH  18  19
ENDBRANCH  15  18
ENDBRANCH   9  12
ENDBRANCH   1   8
BRANCH   4  21
ATOM     21  C   UNL d   1       0.504  -2.610   0.574  0.00  0.00    -0.007 A 
ATOM     22  C   UNL d   1      -0.313  -3.728   0.367  0.00  0.00     0.038 A 
ATOM     23  C   UNL d   1       0.077  -4.985   0.840  0.00  0.00     0.040 A 
ATOM     24 CL   UNL d   1      -0.991  -6.320   0.556  0.00  0.00    -0.084 Cl
ATOM     25  C   UNL d   1       1.286  -5.154   1.522  0.00  0.00    -0.040 A 
ATOM     26  C   UNL d   1       2.089  -4.031   1.749  0.00  0.00     0.009 A 
ATOM     27  C   UNL d   1       1.736  -6.496   2.035  0.00  0.00     0.050 C 
ATOM     28  C   UNL d   1       1.695  -2.771   1.290  0.00  0.00     0.014 A 
ENDBRANCH   4  21
TORSDOF 5
