REMARK  3 active torsions:
REMARK  status: ('A' for Active; 'I' for Inactive)
REMARK    1  A    between atoms: C_2  and  C_1 
REMARK    2  A    between atoms: O_12  and  C_1 
REMARK    3  A    between atoms: C_8  and  C_7 
ROOT
ATOM      1  C   UNL d   1      -0.948   0.477  -0.548  0.00  0.00     0.233 C 
ATOM      2  N   UNL d   1      -0.380   0.741   0.779  0.00  0.00    -0.198 NA
ATOM      3  N   UNL d   1       0.863   0.219   0.930  0.00  0.00    -0.322 N 
ATOM      4  HN  UNL d   1       1.549   0.468   1.642  1.00  0.00     0.180 HD
ATOM      5  C   UNL d   1      -0.192  -0.797  -0.921  0.00  0.00     0.124 C 
ATOM      6  C   UNL d   1       1.004  -0.661  -0.017  0.00  0.00     0.035 C 
ATOM      7  H   UNL d   1      -0.417   1.725   1.035  0.00  0.00     0.150 HD
ENDROOT
BRANCH   6   8
ATOM      8  C   UNL d   1       2.224  -1.478  -0.199  0.00  0.00    -0.012 A 
ATOM      9  C   UNL d   1       3.289  -1.314   0.700  0.00  0.00     0.021 A 
ATOM     10  C   UNL d   1       4.462  -2.076   0.572  0.00  0.00    -0.051 A 
ATOM     11  C   UNL d   1       5.589  -1.847   1.550  0.00  0.00     0.039 C 
ATOM     12  C   UNL d   1       4.581  -2.989  -0.489  0.00  0.00    -0.052 A 
ATOM     13  C   UNL d   1       6.635  -2.960   1.535  0.00  0.00     0.005 C 
ATOM     14  C   UNL d   1       7.025  -3.303   0.103  0.00  0.00     0.005 C 
ATOM     15  C   UNL d   1       5.817  -3.837  -0.664  0.00  0.00     0.039 C 
ATOM     16  C   UNL d   1       3.506  -3.161  -1.373  0.00  0.00     0.008 A 
ATOM     17  C   UNL d   1       2.335  -2.413  -1.228  0.00  0.00     0.014 A 
ENDBRANCH   6   8
BRANCH   1  18
ATOM     18  C   UNL d   1      -2.498   0.273  -0.581  0.00  0.00     0.434 C 
ATOM     19  F   UNL d   1      -3.051   0.259   0.653  0.00  0.00    -0.166 F 
ATOM     20  F   UNL d   1      -3.085   1.302  -1.251  0.00  0.00    -0.166 F 
ATOM     21  F   UNL d   1      -2.866  -0.868  -1.208  0.00  0.00    -0.166 F 
ENDBRANCH   1  18
BRANCH   1  22
ATOM     22  O   UNL d   1      -0.519   1.513  -1.449  0.00  0.00    -0.366 OA
ATOM     23  H   UNL d   1      -1.115   2.269  -1.307  0.00  0.00     0.212 HD
ENDBRANCH   1  22
TORSDOF 3
