REMARK  1 active torsions:
REMARK  status: ('A' for Active; 'I' for Inactive)
REMARK    1  A    between atoms: O_12  and  C_10 
ROOT
ATOM      1  C   UNL d   1      -0.030   0.631   0.009  0.00  0.00     0.086 A 
ATOM      2  C   UNL d   1       0.040  -0.764   0.022  0.00  0.00     0.043 A 
ATOM      3  C   UNL d   1      -1.212  -1.536   0.089  0.00  0.00     0.165 C 
ATOM      4  O   UNL d   1      -1.201   1.339  -0.023  0.00  0.00    -0.340 OA
ATOM      5  C   UNL d   1      -2.366   0.596  -0.434  0.00  0.00     0.067 C 
ATOM      6  C   UNL d   1      -2.465  -0.738   0.307  0.00  0.00     0.121 C 
ATOM      7  C   UNL d   1       1.146   1.382   0.031  0.00  0.00     0.074 A 
ATOM      8  C   UNL d   1       1.276  -1.416   0.003  0.00  0.00     0.021 A 
ATOM      9  O   UNL d   1      -1.210  -2.761   0.039  0.00  0.00    -0.292 OA
ATOM     10  C   UNL d   1       2.376   0.728   0.026  0.00  0.00     0.068 A 
ATOM     11  C   UNL d   1       2.449  -0.662   0.000  0.00  0.00     0.037 A 
ATOM     12  C   UNL d   1      -2.369   0.426  -1.964  0.00  0.00     0.046 C 
ATOM     13  C   UNL d   1      -3.574   1.463  -0.048  0.00  0.00     0.046 C 
ENDROOT
BRANCH  10  14
ATOM     14  O   UNL d   1       3.549   1.421   0.043  0.00  0.00    -0.361 OA
ATOM     15  H   UNL d   1       3.353   2.372   0.088  0.00  0.00     0.217 HD
ENDBRANCH  10  14
TORSDOF 1
