REMARK  5 active torsions:
REMARK  status: ('A' for Active; 'I' for Inactive)
REMARK    1  A    between atoms: C_2  and  C_1 
REMARK       I    between atoms: N_7  and  C_1 
REMARK    2  A    between atoms: N_6  and  C_3 
REMARK    3  A    between atoms: C_4  and  C_8 
REMARK       I    between atoms: C_5  and  N_6 
REMARK    4  A    between atoms: C_9  and  C_5 
REMARK    5  A    between atoms: C_13  and  N_7 
ROOT
ATOM      1  C   UNL d   1       0.111  -0.009  -1.282  0.00  0.00     0.097 A 
ATOM      2  C   UNL d   1      -0.698   1.140  -1.130  0.00  0.00     0.053 A 
ATOM      3  C   UNL d   1       0.378  -0.472  -2.580  0.00  0.00     0.134 A 
ATOM      4  F   UNL d   1       1.181  -1.528  -2.789  0.00  0.00    -0.205 F 
ATOM      5  C   UNL d   1      -1.342   1.673  -2.263  0.00  0.00     0.031 A 
ATOM      6  C   UNL d   1      -1.104   1.159  -3.539  0.00  0.00     0.005 A 
ATOM      7  C   UNL d   1      -0.210   0.110  -3.701  0.00  0.00     0.043 A 
ENDROOT
BRANCH   2   8
ATOM      8  N   UNL d   1      -0.927   1.857   0.076  0.00  0.00    -0.322 N 
ATOM      9  C   UNL d   1      -0.002   1.987   1.100  0.00  0.00     0.256 C 
ATOM     10  O   UNL d   1       1.157   1.587   1.040  0.00  0.00    -0.267 OA
ATOM     11  H   UNL d   1      -1.674   2.536   0.064  0.00  0.00     0.169 HD
BRANCH   9  12
ATOM     12  C   UNL d   1      -0.440   2.772   2.302  0.00  0.00     0.033 A 
ATOM     13  C   UNL d   1       0.555   3.275   3.158  0.00  0.00     0.033 A 
ATOM     14  C   UNL d   1       0.223   3.907   4.369  0.00  0.00     0.048 A 
ATOM     15  C   UNL d   1      -1.128   4.071   4.697  0.00  0.00     0.016 A 
ATOM     16  C   UNL d   1      -2.127   3.611   3.836  0.00  0.00     0.002 A 
ATOM     17  C   UNL d   1      -1.786   2.954   2.647  0.00  0.00     0.017 A 
BRANCH  14  18
ATOM     18  C   UNL d   1       1.294   4.340   5.341  0.00  0.00     0.417 C 
ATOM     19  F   UNL d   1       2.562   4.153   4.881  0.00  0.00    -0.166 F 
ATOM     20  F   UNL d   1       1.206   5.661   5.663  0.00  0.00    -0.166 F 
ATOM     21  F   UNL d   1       1.221   3.664   6.521  0.00  0.00    -0.166 F 
ENDBRANCH  14  18
ENDBRANCH   9  12
ENDBRANCH   2   8
BRANCH   1  22
ATOM     22  C   UNL d   1       0.431  -0.919  -0.137  0.00  0.00     0.261 C 
ATOM     23  N   UNL d   1       1.541  -1.739  -0.275  0.00  0.00    -0.323 N 
ATOM     24  H   UNL d   1       2.049  -1.677  -1.152  0.00  0.00     0.169 HD
ATOM     25  O   UNL d   1      -0.381  -0.976   0.787  0.00  0.00    -0.267 OA
BRANCH  23  26
ATOM     26  C   UNL d   1       1.949  -2.775   0.598  0.00  0.00     0.036 A 
ATOM     27  C   UNL d   1       1.422  -2.955   1.881  0.00  0.00     0.056 A 
ATOM     28  C   UNL d   1       1.851  -4.019   2.679  0.00  0.00     0.074 A 
ATOM     29 CL   UNL d   1       1.185  -4.219   4.255  0.00  0.00    -0.081 Cl
ATOM     30  C   UNL d   1       2.808  -4.908   2.199  0.00  0.00     0.138 A 
ATOM     31  C   UNL d   1       3.351  -4.739   0.931  0.00  0.00     0.046 A 
ATOM     32  F   UNL d   1       3.226  -5.940   2.947  0.00  0.00    -0.204 F 
ATOM     33  C   UNL d   1       2.927  -3.669   0.135  0.00  0.00     0.032 A 
ENDBRANCH  23  26
ENDBRANCH   1  22
TORSDOF 5
