REMARK  5 active torsions:
REMARK  status: ('A' for Active; 'I' for Inactive)
REMARK    1  A    between atoms: C_11  and  C_3 
REMARK    2  A    between atoms: N_7  and  C_10 
REMARK    3  A    between atoms: C_9  and  C_8 
REMARK    4  A    between atoms: O_13  and  C_12 
REMARK    5  A    between atoms: C_15  and  O_13 
ROOT
ATOM      1  N   UNL d   1       1.549   0.003   0.571  0.00  0.00    -0.331 N 
ATOM      2  HN  UNL d   1       2.477  -0.374   0.760  1.00  0.00     0.168 HD
ATOM      3  C   UNL d   1       1.208   1.225   0.317  0.00  0.00     0.162 A 
ATOM      4  C   UNL d   1       0.346  -0.660   0.523  0.00  0.00     0.111 A 
ATOM      5  O   UNL d   1      -0.108   1.500   0.182  0.00  0.00    -0.256 OA
ATOM      6  C   UNL d   1      -0.769   0.317   0.347  0.00  0.00     0.316 A 
ATOM      7  C   UNL d   1       0.251  -1.994   0.499  0.00  0.00     0.050 C 
ATOM      8  O   UNL d   1      -1.969   0.154   0.352  0.00  0.00    -0.257 OA
ENDROOT
BRANCH   7   9
ATOM      9  C   UNL d   1      -0.965  -2.757   0.201  0.00  0.00     0.000 A 
ATOM     10  C   UNL d   1      -1.836  -3.244   1.187  0.00  0.00     0.089 A 
ATOM     11  C   UNL d   1      -2.933  -4.035   0.830  0.00  0.00     0.038 A 
ATOM     12  C   UNL d   1      -3.197  -4.300  -0.514  0.00  0.00     0.003 A 
ATOM     13  C   UNL d   1      -2.356  -3.796  -1.503  0.00  0.00     0.001 A 
ATOM     14  C   UNL d   1      -1.241  -3.035  -1.147  0.00  0.00     0.014 A 
BRANCH  10  15
ATOM     15  O   UNL d   1      -1.516  -2.989   2.540  0.00  0.00    -0.278 OA
BRANCH  15  16
ATOM     16  C   UNL d   1      -2.519  -2.819   3.496  0.00  0.00     0.260 C 
ATOM     17  O   UNL d   1      -3.728  -2.791   3.305  0.00  0.00    -0.265 OA
ATOM     18  C   UNL d   1      -1.887  -2.651   4.844  0.00  0.00     0.126 C 
ENDBRANCH  15  16
ENDBRANCH  10  15
ENDBRANCH   7   9
BRANCH   3  19
ATOM     19  C   UNL d   1       2.116   2.367   0.139  0.00  0.00     0.015 A 
ATOM     20  C   UNL d   1       1.722   3.497  -0.592  0.00  0.00     0.018 A 
ATOM     21  C   UNL d   1       2.635   4.530  -0.829  0.00  0.00     0.037 A 
ATOM     22  C   UNL d   1       3.940   4.432  -0.326  0.00  0.00     0.102 A 
ATOM     23  C   UNL d   1       4.333   3.313   0.421  0.00  0.00     0.037 A 
ATOM     24  C   UNL d   1       3.418   2.279   0.646  0.00  0.00     0.018 A 
BRANCH  22  25
ATOM     25  N   UNL d   1       4.913   5.498  -0.599  0.00  0.00    -0.116 N 
ATOM     26  O   UNL d   1       4.536   6.454  -1.295  0.00  0.00    -0.532 OA
ATOM     27  O   UNL d   1       6.049   5.379  -0.123  0.00  0.00    -0.532 OA
ENDBRANCH  22  25
ENDBRANCH   3  19
TORSDOF 5
