REMARK  3 active torsions:
REMARK  status: ('A' for Active; 'I' for Inactive)
REMARK    1  A    between atoms: C_9  and  C_2 
REMARK    2  A    between atoms: S_11  and  C_5 
REMARK    3  A    between atoms: C_8  and  C_10 
ROOT
ATOM      1  C   UNL d   1       3.040  -1.398   0.042  0.00  0.00     0.017 A 
ATOM      2  C   UNL d   1       5.310  -3.087   0.148  0.00  0.00     0.048 A 
ATOM      3  C   UNL d   1       5.099  -2.112   1.132  0.00  0.00     0.017 A 
ATOM      4  C   UNL d   1       4.364  -3.223  -0.879  0.00  0.00     0.017 A 
ATOM      5  C   UNL d   1       3.978  -1.279   1.079  0.00  0.00     0.017 A 
ATOM      6  C   UNL d   1       3.241  -2.389  -0.931  0.00  0.00     0.017 A 
ENDROOT
BRANCH   1   7
ATOM      7  C   UNL d   1       1.890  -0.506  -0.053  0.00  0.00     0.175 A 
ATOM      8  O   UNL d   1       1.802   0.499   0.875  0.00  0.00    -0.268 OA
ATOM      9  C   UNL d   1       0.667   1.153   0.480  0.00  0.00     0.201 A 
ATOM     10  N   UNL d   1       0.109   0.601  -0.576  0.00  0.00    -0.272 N 
ATOM     11  N   UNL d   1       0.903  -0.476  -0.924  0.00  0.00    -0.277 N 
ATOM     12  HN  UNL d   1      -0.743   0.907  -1.045  1.00  0.00     0.189 HD
ATOM     13  HN  UNL d   1       0.755  -1.119  -1.702  1.00  0.00     0.189 HD
BRANCH   9  14
ATOM     14  S   UNL d   1       0.069   2.559   1.293  0.00  0.00    -0.098 SA
ATOM     15  H   UNL d   1       1.075   2.671   2.169  0.00  0.00     0.110 HD
ENDBRANCH   9  14
ENDBRANCH   1   7
BRANCH   2  16
ATOM     16  C   UNL d   1       6.534  -3.971   0.176  0.00  0.00     0.417 C 
ATOM     17  F   UNL d   1       7.370  -3.709   1.220  0.00  0.00    -0.166 F 
ATOM     18  F   UNL d   1       6.223  -5.293   0.271  0.00  0.00    -0.166 F 
ATOM     19  F   UNL d   1       7.292  -3.843  -0.948  0.00  0.00    -0.166 F 
ENDBRANCH   2  16
TORSDOF 3
