REMARK  6 active torsions:
REMARK  status: ('A' for Active; 'I' for Inactive)
REMARK    1  A    between atoms: C_2  and  C_1 
REMARK    2  A    between atoms: O_15  and  C_2 
REMARK    3  A    between atoms: C_7  and  O_20 
REMARK    4  A    between atoms: C_21  and  O_15 
REMARK    5  A    between atoms: O_20  and  C_22 
REMARK    6  A    between atoms: C_22  and  C_21 
ROOT
ATOM      1  O   UNL d   1      -1.119  -4.300   0.096  0.00  0.00    -0.315 OA
ENDROOT
BRANCH   1   2
ATOM      2  C   UNL d   1      -1.362  -3.767   1.321  0.00  0.00     0.293 C 
ATOM      3  O   UNL d   1      -1.589  -4.399   2.340  0.00  0.00    -0.259 OA
BRANCH   2   4
ATOM      4  C   UNL d   1      -1.375  -2.281   1.276  0.00  0.00     0.042 A 
ATOM      5  C   UNL d   1      -1.633  -1.593   2.471  0.00  0.00     0.041 A 
ATOM      6  C   UNL d   1      -1.666  -0.200   2.481  0.00  0.00     0.036 A 
ATOM      7 CL   UNL d   1      -1.983   0.635   3.951  0.00  0.00    -0.084 Cl
ATOM      8  C   UNL d   1      -1.449   0.521   1.311  0.00  0.00     0.047 A 
ATOM      9  C   UNL d   1      -1.198  -0.165   0.124  0.00  0.00     0.036 A 
ATOM     10  C   UNL d   1      -1.160  -1.560   0.096  0.00  0.00     0.041 A 
ATOM     11 CL   UNL d   1      -0.934   0.722  -1.327  0.00  0.00    -0.084 Cl
ENDBRANCH   2   4
ENDBRANCH   1   2
BRANCH   1  12
ATOM     12  C   UNL d   1      -1.177  -5.740   0.033  0.00  0.00     0.205 C 
BRANCH  12  13
ATOM     13  C   UNL d   1      -2.630  -6.215   0.027  0.00  0.00     0.202 C 
BRANCH  13  14
ATOM     14  O   UNL d   1      -2.688  -7.642   0.002  0.00  0.00    -0.347 OA
BRANCH  14  15
ATOM     15  C   UNL d   1      -3.949  -8.185   0.090  0.00  0.00     0.090 A 
ATOM     16  C   UNL d   1      -4.178  -9.422  -0.536  0.00  0.00     0.069 A 
ATOM     17  C   UNL d   1      -5.434 -10.036  -0.471  0.00  0.00     0.050 A 
ATOM     18 CL   UNL d   1      -2.931 -10.224  -1.427  0.00  0.00    -0.081 Cl
ATOM     19  C   UNL d   1      -6.462  -9.423   0.237  0.00  0.00     0.035 A 
ATOM     20  C   UNL d   1      -6.246  -8.212   0.885  0.00  0.00     0.026 A 
ATOM     21 CL   UNL d   1      -8.012 -10.166   0.322  0.00  0.00    -0.084 Cl
ATOM     22  C   UNL d   1      -4.991  -7.599   0.818  0.00  0.00     0.040 A 
ENDBRANCH  14  15
ENDBRANCH  13  14
ENDBRANCH  12  13
ENDBRANCH   1  12
TORSDOF 6
