REMARK  3 active torsions:
REMARK  status: ('A' for Active; 'I' for Inactive)
REMARK    1  A    between atoms: C_6  and  N_1 
REMARK    2  A    between atoms: C_5  and  C_2 
REMARK    3  A    between atoms: C_10  and  C_6 
ROOT
ATOM      1  N   UNL d   1      -0.563  -1.289   0.035  0.00  0.00    -0.330 N 
ATOM      2  C   UNL d   1       0.846  -1.343  -0.289  0.00  0.00     0.184 C 
ATOM      3  S   UNL d   1       1.387   0.352  -0.619  0.00  0.00    -0.129 SA
ATOM      4  C   UNL d   1      -1.152  -0.041   0.124  0.00  0.00     0.230 C 
ATOM      5  C   UNL d   1      -0.248   1.067  -0.358  0.00  0.00     0.179 C 
ATOM      6  O   UNL d   1      -2.295   0.161   0.519  0.00  0.00    -0.272 OA
ENDROOT
BRANCH   1   7
ATOM      7  C   UNL d   1      -1.266  -2.492   0.460  0.00  0.00     0.166 C 
BRANCH   7   8
ATOM      8  C   UNL d   1      -2.492  -2.844  -0.355  0.00  0.00    -0.038 A 
ATOM      9  C   UNL d   1      -2.603  -2.546  -1.722  0.00  0.00     0.034 A 
ATOM     10  C   UNL d   1      -3.757  -2.890  -2.437  0.00  0.00     0.056 A 
ATOM     11 CL   UNL d   1      -3.822  -2.458  -4.110  0.00  0.00    -0.083 Cl
ATOM     12  C   UNL d   1      -4.803  -3.562  -1.797  0.00  0.00     0.055 A 
ATOM     13  C   UNL d   1      -4.687  -3.894  -0.446  0.00  0.00     0.026 A 
ATOM     14 CL   UNL d   1      -6.258  -4.011  -2.613  0.00  0.00    -0.083 Cl
ATOM     15  C   UNL d   1      -3.539  -3.542   0.267  0.00  0.00     0.010 A 
ENDBRANCH   7   8
ENDBRANCH   1   7
BRANCH   2  16
ATOM     16  C   UNL d   1       1.686  -2.005   0.775  0.00  0.00    -0.010 A 
ATOM     17  C   UNL d   1       2.501  -3.087   0.443  0.00  0.00     0.097 A 
ATOM     18  N   UNL d   1       3.238  -3.789   1.332  0.00  0.00    -0.375 N 
ATOM     19  C   UNL d   1       3.182  -3.391   2.619  0.00  0.00     0.087 A 
ATOM     20  HN  UNL d   1       3.810  -4.582   1.043  1.00  0.00     0.164 HD
ATOM     21  C   UNL d   1       2.423  -2.320   3.059  0.00  0.00     0.018 A 
ATOM     22  C   UNL d   1       1.666  -1.619   2.123  0.00  0.00     0.013 A 
ENDBRANCH   2  16
TORSDOF 3
