REMARK  4 active torsions:
REMARK  status: ('A' for Active; 'I' for Inactive)
REMARK    1  A    between atoms: C_6  and  N_1 
REMARK    2  A    between atoms: N_8  and  C_6 
REMARK    3  A    between atoms: C_10  and  N_8 
REMARK    4  A    between atoms: C_18  and  C_12 
ROOT
ATOM      1  N   UNL d   1       0.745  -1.543   0.304  0.00  0.00    -0.293 N 
ATOM      2  C   UNL d   1       0.311  -0.529  -0.530  0.00  0.00     0.300 A 
ATOM      3  C   UNL d   1       0.142   0.711   0.385  0.00  0.00     0.252 A 
ATOM      4  C   UNL d   1       0.485   0.253   1.730  0.00  0.00     0.047 A 
ATOM      5  C   UNL d   1       0.820  -1.098   1.636  0.00  0.00     0.053 A 
ATOM      6  O   UNL d   1       0.079  -0.555  -1.720  0.00  0.00    -0.263 OA
ATOM      7  O   UNL d   1      -0.212   1.821   0.059  0.00  0.00    -0.281 OA
ATOM      8  C   UNL d   1       0.492   0.951   2.922  0.00  0.00     0.018 A 
ATOM      9  C   UNL d   1       1.166  -1.807   2.771  0.00  0.00     0.031 A 
ATOM     10  C   UNL d   1       0.851   0.244   4.069  0.00  0.00     0.001 A 
ATOM     11  C   UNL d   1       1.181  -1.124   3.994  0.00  0.00     0.002 A 
ENDROOT
BRANCH   1  12
ATOM     12  C   UNL d   1       0.951  -2.893  -0.140  0.00  0.00     0.255 C 
BRANCH  12  13
ATOM     13  N   UNL d   1       2.317  -3.260   0.159  0.00  0.00    -0.373 N 
ATOM     14  H   UNL d   1       2.978  -2.516  -0.040  0.00  0.00     0.161 HD
BRANCH  13  15
ATOM     15  C   UNL d   1       2.817  -4.520  -0.168  0.00  0.00     0.029 A 
ATOM     16  C   UNL d   1       2.043  -5.565  -0.682  0.00  0.00     0.029 A 
ATOM     17  C   UNL d   1       2.587  -6.841  -0.887  0.00  0.00     0.009 A 
ATOM     18  C   UNL d   1       3.917  -7.112  -0.554  0.00  0.00    -0.058 A 
ATOM     19  C   UNL d   1       4.695  -6.079  -0.025  0.00  0.00     0.009 A 
ATOM     20  C   UNL d   1       4.149  -4.805   0.163  0.00  0.00     0.029 A 
BRANCH  18  21
ATOM     21  C   UNL d   1       4.487  -8.498  -0.716  0.00  0.00     0.034 C 
ATOM     22  C   UNL d   1       4.260  -9.354   0.522  0.00  0.00     0.010 C 
ENDBRANCH  18  21
ENDBRANCH  13  15
ENDBRANCH  12  13
ENDBRANCH   1  12
TORSDOF 4
