REMARK  3 active torsions:
REMARK  status: ('A' for Active; 'I' for Inactive)
REMARK    1  A    between atoms: N_3  and  C_1 
REMARK    2  A    between atoms: N_9  and  C_1 
REMARK    3  A    between atoms: C_2  and  N_3 
ROOT
ATOM      1  C   UNL d   1       1.022  -2.213  -1.613  0.00  0.00     0.112 A 
ATOM      2  C   UNL d   1       0.132  -3.274  -1.814  0.00  0.00     0.149 A 
ATOM      3  C   UNL d   1       2.275  -2.282  -2.233  0.00  0.00     0.149 A 
ATOM      4  C   UNL d   1       0.478  -4.389  -2.571  0.00  0.00     0.087 A 
ATOM      5  C   UNL d   1       2.639  -3.393  -2.995  0.00  0.00     0.087 A 
ATOM      6  C   UNL d   1       1.736  -4.434  -3.155  0.00  0.00     0.122 A 
ATOM      7  F   UNL d   1       3.130  -1.252  -2.197  0.00  0.00    -0.203 F 
ATOM      8  F   UNL d   1      -1.092  -3.223  -1.262  0.00  0.00    -0.203 F 
ATOM      9  F   UNL d   1       2.072  -5.488  -3.911  0.00  0.00    -0.206 F 
ENDROOT
BRANCH   1  10
ATOM     10  N   UNL d   1       0.548  -1.097  -0.874  0.00  0.00    -0.328 N 
ATOM     11  H   UNL d   1      -0.437  -1.141  -0.640  0.00  0.00     0.168 HD
BRANCH  10  12
ATOM     12  C   UNL d   1       1.267  -0.195  -0.106  0.00  0.00     0.173 C 
ATOM     13  S   UNL d   1       2.636  -0.646   0.768  0.00  0.00    -0.041 SA
BRANCH  12  14
ATOM     14  N   UNL d   1       0.672   1.083  -0.044  0.00  0.00    -0.367 N 
ATOM     15  C   UNL d   1       1.217   2.155   0.793  0.00  0.00     0.151 C 
ATOM     16  C   UNL d   1      -0.584   1.435  -0.706  0.00  0.00     0.151 C 
ENDBRANCH  12  14
ENDBRANCH  10  12
ENDBRANCH   1  10
TORSDOF 3
