REMARK  4 active torsions:
REMARK  status: ('A' for Active; 'I' for Inactive)
REMARK    1  A    between atoms: C_3  and  C_1 
REMARK    2  A    between atoms: C_4  and  C_2 
REMARK    3  A    between atoms: C_5  and  C_3 
REMARK    4  A    between atoms: C_6  and  C_4 
ROOT
ATOM      1  C   UNL d   1       1.142   0.073   0.122  0.00  0.00     0.059 C 
ATOM      2  C   UNL d   1       0.447  -0.996   0.534  0.00  0.00     0.059 C 
ENDROOT
BRANCH   1   3
ATOM      3  C   UNL d   1       2.620  -0.028   0.042  0.00  0.00     0.182 C 
ATOM      4  O   UNL d   1       3.240  -0.881   0.669  0.00  0.00    -0.288 OA
BRANCH   3   5
ATOM      5  C   UNL d   1       3.341   0.943  -0.824  0.00  0.00     0.014 A 
ATOM      6  C   UNL d   1       4.667   1.267  -0.499  0.00  0.00     0.018 A 
ATOM      7  C   UNL d   1       5.395   2.142  -1.309  0.00  0.00     0.043 A 
ATOM      8  C   UNL d   1       4.801   2.677  -2.446  0.00  0.00     0.116 A 
ATOM      9  C   UNL d   1       3.493   2.354  -2.790  0.00  0.00     0.043 A 
ATOM     10  F   UNL d   1       5.501   3.507  -3.228  0.00  0.00    -0.206 F 
ATOM     11  C   UNL d   1       2.758   1.483  -1.980  0.00  0.00     0.018 A 
ENDBRANCH   3   5
ENDBRANCH   1   3
BRANCH   2  12
ATOM     12  C   UNL d   1      -1.033  -0.922   0.588  0.00  0.00     0.182 C 
ATOM     13  O   UNL d   1      -1.623   0.152   0.651  0.00  0.00    -0.288 OA
BRANCH  12  14
ATOM     14  C   UNL d   1      -1.793  -2.200   0.561  0.00  0.00     0.014 A 
ATOM     15  C   UNL d   1      -3.050  -2.245   1.182  0.00  0.00     0.018 A 
ATOM     16  C   UNL d   1      -3.820  -3.409   1.125  0.00  0.00     0.043 A 
ATOM     17  C   UNL d   1      -3.337  -4.518   0.438  0.00  0.00     0.116 A 
ATOM     18  C   UNL d   1      -2.095  -4.488  -0.187  0.00  0.00     0.043 A 
ATOM     19  F   UNL d   1      -4.083  -5.627   0.366  0.00  0.00    -0.206 F 
ATOM     20  C   UNL d   1      -1.318  -3.328  -0.128  0.00  0.00     0.018 A 
ENDBRANCH  12  14
ENDBRANCH   2  12
TORSDOF 4
