REMARK  2 active torsions:
REMARK  status: ('A' for Active; 'I' for Inactive)
REMARK    1  A    between atoms: C_8  and  C_1 
REMARK    2  A    between atoms: C_7  and  C_2 
ROOT
ATOM      1  C   UNL d   1      -0.791  -1.155   0.114  0.00  0.00     0.070 A 
ATOM      2  C   UNL d   1       0.611  -1.227  -0.047  0.00  0.00     0.070 A 
ATOM      3  N   UNL d   1      -1.425   0.061   0.162  0.00  0.00    -0.362 N 
ATOM      4  HN  UNL d   1      -2.438   0.131   0.256  1.00  0.00     0.165 HD
ATOM      5  N   UNL d   1       1.374  -0.091  -0.113  0.00  0.00    -0.362 N 
ATOM      6  HN  UNL d   1       2.388  -0.133  -0.210  1.00  0.00     0.165 HD
ATOM      7  C   UNL d   1       0.720   1.088  -0.044  0.00  0.00     0.105 A 
ATOM      8  C   UNL d   1      -0.647   1.161   0.079  0.00  0.00     0.105 A 
ENDROOT
BRANCH   1   9
ATOM      9  C   UNL d   1      -1.720  -2.302   0.258  0.00  0.00    -0.007 A 
ATOM     10  C   UNL d   1      -1.417  -3.440   1.029  0.00  0.00     0.014 A 
ATOM     11  C   UNL d   1      -2.288  -4.533   1.089  0.00  0.00     0.001 A 
ATOM     12  C   UNL d   1      -3.507  -4.494   0.422  0.00  0.00     0.000 A 
ATOM     13  C   UNL d   1      -3.861  -3.358  -0.299  0.00  0.00     0.001 A 
ATOM     14  C   UNL d   1      -2.977  -2.278  -0.379  0.00  0.00     0.014 A 
ENDBRANCH   1   9
BRANCH   2  15
ATOM     15  C   UNL d   1       1.407  -2.473  -0.145  0.00  0.00    -0.007 A 
ATOM     16  C   UNL d   1       1.029  -3.552  -0.963  0.00  0.00     0.014 A 
ATOM     17  C   UNL d   1       1.745  -4.754  -0.953  0.00  0.00     0.001 A 
ATOM     18  C   UNL d   1       2.883  -4.883  -0.163  0.00  0.00     0.000 A 
ATOM     19  C   UNL d   1       3.318  -3.806   0.602  0.00  0.00     0.001 A 
ATOM     20  C   UNL d   1       2.589  -2.614   0.607  0.00  0.00     0.014 A 
ENDBRANCH   2  15
TORSDOF 2
