REMARK  6 active torsions:
REMARK  status: ('A' for Active; 'I' for Inactive)
REMARK    1  A    between atoms: N_2  and  S_1 
REMARK    2  A    between atoms: C_3  and  S_1 
REMARK    3  A    between atoms: C_4  and  N_2 
REMARK    4  A    between atoms: C_15  and  C_4 
REMARK    5  A    between atoms: S_13  and  C_15 
REMARK    6  A    between atoms: C_16  and  S_13 
ROOT
ATOM      1  N   UNL d   1       0.693   1.464   0.882  0.00  0.00    -0.269 N 
ATOM      2  H   UNL d   1      -0.099   1.954   0.467  0.00  0.00     0.180 HD
ENDROOT
BRANCH   1   3
ATOM      3  S   UNL d   1       1.520   0.516  -0.201  0.00  0.00     0.264 S 
ATOM      4  O   UNL d   1       0.679   0.381  -1.370  0.00  0.00    -0.200 OA
ATOM      5  O   UNL d   1       2.052  -0.629   0.505  0.00  0.00    -0.200 OA
BRANCH   3   6
ATOM      6  C   UNL d   1       2.882   1.573  -0.632  0.00  0.00     0.081 A 
ATOM      7  C   UNL d   1       2.752   2.453  -1.713  0.00  0.00     0.052 A 
ATOM      8  C   UNL d   1       3.841   3.239  -2.088  0.00  0.00     0.074 A 
ATOM      9 CL   UNL d   1       3.684   4.320  -3.419  0.00  0.00    -0.081 Cl
ATOM     10  C   UNL d   1       5.047   3.140  -1.393  0.00  0.00     0.138 A 
ATOM     11  C   UNL d   1       5.178   2.261  -0.320  0.00  0.00     0.045 A 
ATOM     12  F   UNL d   1       6.105   3.883  -1.748  0.00  0.00    -0.204 F 
ATOM     13  C   UNL d   1       4.094   1.468   0.064  0.00  0.00     0.028 A 
ENDBRANCH   3   6
ENDBRANCH   1   3
BRANCH   1  14
ATOM     14  C   UNL d   1       0.964   1.675   2.241  0.00  0.00     0.094 C 
ATOM     15  N   UNL d   1       1.764   0.914   2.901  0.00  0.00    -0.388 N 
ATOM     16  H   UNL d   1       2.056   0.117   2.313  0.00  0.00     0.157 HD
ATOM     17  HN  UNL d   1       2.066   1.075   3.862  1.00  0.00     0.157 HD
BRANCH  14  18
ATOM     18  C   UNL d   1       0.320   2.877   2.920  0.00  0.00     0.156 C 
BRANCH  18  19
ATOM     19  S   UNL d   1      -1.320   3.239   2.201  0.00  0.00    -0.122 SA
BRANCH  19  20
ATOM     20  C   UNL d   1      -1.859   4.678   3.113  0.00  0.00     0.001 A 
ATOM     21  C   UNL d   1      -2.658   5.607   2.429  0.00  0.00     0.020 A 
ATOM     22  C   UNL d   1      -3.214   6.705   3.093  0.00  0.00     0.025 A 
ATOM     23  C   UNL d   1      -2.977   6.879   4.452  0.00  0.00     0.034 A 
ATOM     24  C   UNL d   1      -2.175   5.975   5.145  0.00  0.00     0.025 A 
ATOM     25 CL   UNL d   1      -3.698   8.201   5.284  0.00  0.00    -0.084 Cl
ATOM     26  C   UNL d   1      -1.618   4.875   4.477  0.00  0.00     0.020 A 
ENDBRANCH  19  20
ENDBRANCH  18  19
ENDBRANCH  14  18
ENDBRANCH   1  14
TORSDOF 6
