REMARK  4 active torsions:
REMARK  status: ('A' for Active; 'I' for Inactive)
REMARK    1  A    between atoms: C_10  and  C_3 
REMARK    2  A    between atoms: N_8  and  C_6 
REMARK    3  A    between atoms: C_11  and  N_8 
REMARK    4  A    between atoms: C_12  and  C_11 
ROOT
ATOM      1  N   UNL d   1      -1.156   1.153   0.011  0.00  0.00    -0.295 N 
ATOM      2  HN  UNL d   1      -1.751   1.982   0.033  1.00  0.00     0.187 HD
ATOM      3  C   UNL d   1       0.146   1.250   0.004  0.00  0.00     0.108 A 
ATOM      4  C   UNL d   1       0.327  -1.307  -0.030  0.00  0.00     0.100 A 
ATOM      5  C   UNL d   1       1.018  -0.005  -0.028  0.00  0.00     0.203 A 
ATOM      6  C   UNL d   1      -1.008  -1.288  -0.032  0.00  0.00     0.098 A 
ATOM      7  N   UNL d   1      -1.680  -0.091  -0.012  0.00  0.00    -0.289 N 
ATOM      8  O   UNL d   1       2.236   0.042  -0.086  0.00  0.00    -0.286 OA
ATOM      9  H   UNL d   1      -2.693  -0.197   0.010  0.00  0.00     0.188 HD
ENDROOT
BRANCH   6  10
ATOM     10  N   UNL d   1      -1.774  -2.444  -0.050  0.00  0.00    -0.274 NA
ATOM     11  H   UNL d   1      -1.383  -3.140   0.578  0.00  0.00     0.129 HD
BRANCH  10  12
ATOM     12  C   UNL d   1      -2.092  -3.090  -1.329  0.00  0.00     0.132 C 
BRANCH  12  13
ATOM     13  C   UNL d   1      -3.577  -3.313  -1.497  0.00  0.00    -0.045 A 
ATOM     14  C   UNL d   1      -4.129  -3.307  -2.789  0.00  0.00     0.008 A 
ATOM     15  C   UNL d   1      -5.487  -3.564  -2.990  0.00  0.00     0.001 A 
ATOM     16  C   UNL d   1      -6.311  -3.840  -1.903  0.00  0.00     0.000 A 
ATOM     17  C   UNL d   1      -5.780  -3.858  -0.616  0.00  0.00     0.001 A 
ATOM     18  C   UNL d   1      -4.421  -3.603  -0.414  0.00  0.00     0.008 A 
ENDBRANCH  12  13
ENDBRANCH  10  12
ENDBRANCH   6  10
BRANCH   3  19
ATOM     19  C   UNL d   1       0.767   2.602  -0.024  0.00  0.00    -0.004 A 
ATOM     20  C   UNL d   1       2.018   2.856   0.547  0.00  0.00     0.014 A 
ATOM     21  C   UNL d   1       2.594   4.123   0.441  0.00  0.00     0.001 A 
ATOM     22  C   UNL d   1       1.915   5.149  -0.215  0.00  0.00     0.000 A 
ATOM     23  C   UNL d   1       0.650   4.916  -0.752  0.00  0.00     0.001 A 
ATOM     24  C   UNL d   1       0.075   3.648  -0.654  0.00  0.00     0.014 A 
ENDBRANCH   3  19
TORSDOF 4
