REMARK  7 active torsions:
REMARK  status: ('A' for Active; 'I' for Inactive)
REMARK    1  A    between atoms: C_3  and  S_1 
REMARK    2  A    between atoms: N_15  and  S_1 
REMARK    3  A    between atoms: S_4  and  C_2 
REMARK    4  A    between atoms: C_6  and  S_4 
REMARK    5  A    between atoms: C_9  and  C_5 
REMARK    6  A    between atoms: C_7  and  C_10 
REMARK    7  A    between atoms: O_21  and  C_9 
ROOT
ATOM      1  C   UNL d   1       0.820   2.879   0.746  0.00  0.00     0.060 A 
ATOM      2  C   UNL d   1       0.436   1.532   0.851  0.00  0.00     0.099 A 
ATOM      3  C   UNL d   1       0.553   3.706   1.855  0.00  0.00     0.039 A 
ATOM      4  C   UNL d   1      -0.160   3.264   2.985  0.00  0.00     0.049 A 
ATOM      5  C   UNL d   1      -0.280   1.075   1.978  0.00  0.00     0.027 A 
ATOM      6  C   UNL d   1      -0.587   1.936   3.029  0.00  0.00     0.018 A 
ENDROOT
BRANCH   1   7
ATOM      7  S   UNL d   1       1.756   3.585  -0.648  0.00  0.00     0.087 S 
ATOM      8  O   UNL d   1       2.383   4.857  -0.169  0.00  0.00    -0.247 OA
BRANCH   7   9
ATOM      9  C   UNL d   1       0.360   4.030  -1.728  0.00  0.00     0.053 A 
ATOM     10  C   UNL d   1      -0.323   5.261  -1.806  0.00  0.00     0.057 A 
ATOM     11  C   UNL d   1      -1.262   5.470  -2.846  0.00  0.00     0.020 A 
ATOM     12  C   UNL d   1      -1.511   4.505  -3.816  0.00  0.00     0.001 A 
ATOM     13  C   UNL d   1      -0.827   3.303  -3.763  0.00  0.00     0.002 A 
ATOM     14  C   UNL d   1       0.092   3.074  -2.736  0.00  0.00     0.022 A 
BRANCH  10  15
ATOM     15  C   UNL d   1      -0.129   6.467  -0.965  0.00  0.00     0.177 C 
ATOM     16  O   UNL d   1      -0.320   7.612  -1.339  0.00  0.00    -0.646 OA
BRANCH  15  17
ATOM     17  O   UNL d   1       0.157   6.223   0.314  0.00  0.00    -0.773 OA
ATOM     18  H   UNL d   1       0.376   7.109   0.672  0.00  0.00     0.167 HD
ENDBRANCH  15  17
ENDBRANCH  10  15
ENDBRANCH   7   9
ENDBRANCH   1   7
BRANCH   2  19
ATOM     19  S   UNL d   1       0.854   0.286  -0.344  0.00  0.00     0.259 S 
ATOM     20  O   UNL d   1       1.909   0.748  -1.217  0.00  0.00    -0.201 OA
ATOM     21  O   UNL d   1      -0.392  -0.217  -0.872  0.00  0.00    -0.201 OA
BRANCH  19  22
ATOM     22  N   UNL d   1       1.514  -0.949   0.595  0.00  0.00    -0.320 N 
ATOM     23  C   UNL d   1       2.946  -0.892   0.888  0.00  0.00     0.159 C 
ATOM     24  H   UNL d   1       1.126  -1.859   0.340  0.00  0.00     0.171 HD
ENDBRANCH  19  22
ENDBRANCH   2  19
BRANCH   4  25
ATOM     25  C   UNL d   1      -0.454   4.197   4.138  0.00  0.00     0.417 C 
ATOM     26  F   UNL d   1       0.029   5.457   3.966  0.00  0.00    -0.166 F 
ATOM     27  F   UNL d   1      -1.790   4.335   4.363  0.00  0.00    -0.166 F 
ATOM     28  F   UNL d   1       0.077   3.749   5.310  0.00  0.00    -0.166 F 
ENDBRANCH   4  25
TORSDOF 7
