REMARK  3 active torsions:
REMARK  status: ('A' for Active; 'I' for Inactive)
REMARK    1  A    between atoms: C_8  and  C_3 
REMARK    2  A    between atoms: C_9  and  C_4 
REMARK    3  A    between atoms: C_7  and  C_12 
ROOT
ATOM      1  N   UNL d   1       1.325  -0.594   0.415  0.00  0.00    -0.349 N 
ATOM      2  HN  UNL d   1       2.119  -1.091   0.819  1.00  0.00     0.166 HD
ATOM      3  C   UNL d   1       0.254  -1.175  -0.091  0.00  0.00     0.084 A 
ATOM      4  C   UNL d   1       1.222   0.789   0.320  0.00  0.00     0.050 A 
ATOM      5  S   UNL d   1      -0.945  -0.079  -0.681  0.00  0.00    -0.081 SA
ATOM      6  C   UNL d   1       0.056   1.240  -0.266  0.00  0.00     0.082 A 
ENDROOT
BRANCH   3   7
ATOM      7  C   UNL d   1       0.009  -2.629  -0.125  0.00  0.00    -0.002 A 
ATOM      8  C   UNL d   1       0.535  -3.451   0.880  0.00  0.00     0.015 A 
ATOM      9  C   UNL d   1       0.263  -4.827   0.902  0.00  0.00     0.010 A 
ATOM     10  C   UNL d   1      -0.533  -5.424  -0.090  0.00  0.00    -0.035 A 
ATOM     11  C   UNL d   1      -1.030  -4.606  -1.115  0.00  0.00     0.010 A 
ATOM     12  C   UNL d   1      -0.756  -3.233  -1.135  0.00  0.00     0.015 A 
BRANCH  10  13
ATOM     13  C   UNL d   1      -0.851  -6.904  -0.020  0.00  0.00     0.141 C 
ATOM     14  S   UNL d   1      -0.386  -7.824  -1.516  0.00  0.00    -0.148 SA
ATOM     15  C   UNL d   1      -1.504  -9.205  -1.195  0.00  0.00     0.085 C 
ATOM     16  C   UNL d   1      -2.847  -8.622  -0.799  0.00  0.00     0.085 C 
ATOM     17  S   UNL d   1      -2.612  -7.226   0.345  0.00  0.00    -0.148 SA
ENDBRANCH  10  13
ENDBRANCH   3   7
BRANCH   4  18
ATOM     18  C   UNL d   1       2.286   1.680   0.773  0.00  0.00    -0.009 A 
ATOM     19  C   UNL d   1       3.617   1.249   0.739  0.00  0.00     0.014 A 
ATOM     20  C   UNL d   1       4.653   2.106   1.127  0.00  0.00     0.007 A 
ATOM     21  C   UNL d   1       4.376   3.406   1.565  0.00  0.00    -0.062 A 
ATOM     22  C   UNL d   1       3.046   3.833   1.621  0.00  0.00     0.007 A 
ATOM     23  C   UNL d   1       5.494   4.320   1.970  0.00  0.00     0.048 C 
ATOM     24  C   UNL d   1       2.011   2.977   1.230  0.00  0.00     0.014 A 
ENDBRANCH   4  18
TORSDOF 3
