REMARK  7 active torsions:
REMARK  status: ('A' for Active; 'I' for Inactive)
REMARK    1  A    between atoms: C_8  and  C_3 
REMARK    2  A    between atoms: C_14  and  C_4 
REMARK    3  A    between atoms: C_7  and  O_11 
REMARK    4  A    between atoms: C_9  and  C_7 
REMARK    5  A    between atoms: C_10  and  O_13 
REMARK    6  A    between atoms: O_11  and  C_14 
REMARK    7  A    between atoms: O_13  and  C_17 
ROOT
ATOM      1  N   UNL d   1       1.510  -0.537  -0.110  0.00  0.00    -0.351 N 
ATOM      2  HN  UNL d   1       2.406  -1.021  -0.177  1.00  0.00     0.166 HD
ATOM      3  C   UNL d   1       1.355   0.840  -0.020  0.00  0.00     0.049 A 
ATOM      4  C   UNL d   1       0.331  -1.128  -0.097  0.00  0.00     0.075 A 
ATOM      5  S   UNL d   1      -1.019  -0.068   0.049  0.00  0.00    -0.084 SA
ATOM      6  C   UNL d   1       0.046   1.271   0.067  0.00  0.00     0.082 A 
ENDROOT
BRANCH   3   7
ATOM      7  C   UNL d   1       2.504   1.736  -0.062  0.00  0.00    -0.009 A 
ATOM      8  C   UNL d   1       3.651   1.352  -0.772  0.00  0.00     0.016 A 
ATOM      9  C   UNL d   1       4.760   2.202  -0.862  0.00  0.00     0.038 A 
ATOM     10  C   UNL d   1       4.743   3.439  -0.219  0.00  0.00     0.074 A 
ATOM     11  C   UNL d   1       3.603   3.832   0.484  0.00  0.00     0.038 A 
ATOM     12  C   UNL d   1       2.494   2.985   0.571  0.00  0.00     0.016 A 
BRANCH  10  13
ATOM     13  O   UNL d   1       5.757   4.354  -0.230  0.00  0.00    -0.290 OA
BRANCH  13  14
ATOM     14  C   UNL d   1       7.058   3.821  -0.412  0.00  0.00     0.505 C 
ATOM     15  F   UNL d   1       7.281   3.650  -1.738  0.00  0.00    -0.184 F 
ATOM     16  F   UNL d   1       7.941   4.759   0.014  0.00  0.00    -0.184 F 
ENDBRANCH  13  14
ENDBRANCH  10  13
ENDBRANCH   3   7
BRANCH   4  17
ATOM     17  C   UNL d   1       0.083  -2.606  -0.150  0.00  0.00     0.243 C 
BRANCH  17  18
ATOM     18  O   UNL d   1       1.163  -3.273  -0.827  0.00  0.00    -0.314 OA
BRANCH  18  19
ATOM     19  C   UNL d   1       1.081  -3.286  -2.183  0.00  0.00     0.266 C 
ATOM     20  O   UNL d   1       0.223  -2.698  -2.827  0.00  0.00    -0.264 OA
BRANCH  19  21
ATOM     21  C   UNL d   1       2.139  -4.203  -2.815  0.00  0.00     0.037 C 
ATOM     22  C   UNL d   1       3.091  -4.827  -1.782  0.00  0.00     0.025 C 
ATOM     23  C   UNL d   1       1.388  -5.329  -3.544  0.00  0.00     0.025 C 
ATOM     24  C   UNL d   1       2.965  -3.398  -3.825  0.00  0.00     0.025 C 
ENDBRANCH  19  21
ENDBRANCH  18  19
ENDBRANCH  17  18
ENDBRANCH   4  17
TORSDOF 7
