REMARK  2 active torsions:
REMARK  status: ('A' for Active; 'I' for Inactive)
REMARK    1  A    between atoms: C_10  and  C_3 
REMARK    2  A    between atoms: C_18  and  C_14 
ROOT
ATOM      1  C   UNL d   1       1.151   1.173  -0.112  0.00  0.00     0.167 A 
ATOM      2  C   UNL d   1       2.067   2.268  -0.013  0.00  0.00     0.076 A 
ATOM      3  C   UNL d   1       1.990   3.488   0.741  0.00  0.00     0.085 A 
ATOM      4  N   UNL d   1       1.528  -0.059  -0.208  0.00  0.00    -0.331 N 
ATOM      5  HN  UNL d   1       2.473  -0.430  -0.308  1.00  0.00     0.168 HD
ATOM      6  N   UNL d   1       3.122   4.193   0.579  0.00  0.00    -0.259 N 
ATOM      7  HN  UNL d   1       3.344   5.092   1.007  1.00  0.00     0.195 HD
ATOM      8  O   UNL d   1      -0.177   1.430  -0.049  0.00  0.00    -0.255 OA
ATOM      9  C   UNL d   1       0.342  -0.744  -0.143  0.00  0.00     0.111 A 
ATOM     10  C   UNL d   1      -0.801   0.219  -0.083  0.00  0.00     0.316 A 
ATOM     11  O   UNL d   1       3.926   3.474  -0.273  0.00  0.00    -0.241 OA
ATOM     12  C   UNL d   1       3.312   2.315  -0.608  0.00  0.00     0.089 A 
ATOM     13  C   UNL d   1       0.275  -2.079  -0.081  0.00  0.00     0.047 C 
ATOM     14  O   UNL d   1      -1.996   0.028  -0.043  0.00  0.00    -0.257 OA
ATOM     15  C   UNL d   1       4.074   1.401  -1.482  0.00  0.00     0.080 C 
ENDROOT
BRANCH   3  16
ATOM     16  C   UNL d   1       0.936   3.982   1.645  0.00  0.00     0.037 A 
ATOM     17  C   UNL d   1       0.360   3.157   2.637  0.00  0.00     0.048 A 
ATOM     18 CL   UNL d   1       0.940   1.566   3.016  0.00  0.00    -0.083 Cl
ATOM     19  C   UNL d   1      -0.689   3.615   3.447  0.00  0.00     0.025 A 
ATOM     20  C   UNL d   1      -1.130   4.929   3.354  0.00  0.00     0.003 A 
ATOM     21  C   UNL d   1      -0.529   5.785   2.439  0.00  0.00     0.025 A 
ATOM     22  C   UNL d   1       0.477   5.317   1.577  0.00  0.00     0.048 A 
ATOM     23 CL   UNL d   1       1.073   6.481   0.437  0.00  0.00    -0.083 Cl
ENDBRANCH   3  16
BRANCH  13  24
ATOM     24  C   UNL d   1      -0.953  -2.874  -0.009  0.00  0.00    -0.034 A 
ATOM     25  C   UNL d   1      -1.570  -3.276  -1.193  0.00  0.00     0.012 A 
ATOM     26  C   UNL d   1      -2.719  -4.068  -1.150  0.00  0.00     0.007 A 
ATOM     27  C   UNL d   1      -3.259  -4.466   0.078  0.00  0.00    -0.062 A 
ATOM     28  C   UNL d   1      -2.639  -4.053   1.262  0.00  0.00     0.007 A 
ATOM     29  C   UNL d   1      -4.484  -5.332   0.102  0.00  0.00     0.048 C 
ATOM     30  C   UNL d   1      -1.487  -3.261   1.220  0.00  0.00     0.012 A 
ENDBRANCH  13  24
TORSDOF 2
