REMARK  2 active torsions:
REMARK  status: ('A' for Active; 'I' for Inactive)
REMARK    1  A    between atoms: C_3  and  C_1 
REMARK    2  A    between atoms: C_5  and  C_4 
REMARK       I    between atoms: N_12  and  C_5 
ROOT
ATOM      1  C   UNL d   1      -0.128   1.087  -0.015  0.00  0.00     0.159 A 
ATOM      2  O   UNL d   1      -1.006   0.034  -0.020  0.00  0.00    -0.300 OA
ATOM      3  C   UNL d   1      -0.264  -1.120  -0.006  0.00  0.00     0.143 A 
ATOM      4  C   UNL d   1       1.168   0.610   0.005  0.00  0.00     0.045 A 
ATOM      5  C   UNL d   1       1.080  -0.801   0.010  0.00  0.00     0.046 A 
ENDROOT
BRANCH   3   6
ATOM      6  C   UNL d   1      -0.927  -2.406  -0.011  0.00  0.00     0.273 C 
ATOM      7  O   UNL d   1      -0.348  -3.487  -0.003  0.00  0.00    -0.266 OA
ATOM      8  N   UNL d   1      -2.293  -2.359  -0.028  0.00  0.00    -0.364 N 
ATOM      9  H   UNL d   1      -2.788  -1.478  -0.036  0.00  0.00     0.159 HD
ATOM     10  H   UNL d   1      -2.804  -3.230  -0.035  0.00  0.00     0.159 HD
ENDBRANCH   3   6
BRANCH   1  11
ATOM     11  C   UNL d   1      -0.688   2.464  -0.036  0.00  0.00     0.439 C 
ATOM     12  F   UNL d   1      -2.045   2.487  -0.030  0.00  0.00    -0.164 F 
ATOM     13  F   UNL d   1      -0.277   3.187   1.038  0.00  0.00    -0.164 F 
ATOM     14  F   UNL d   1      -0.288   3.148  -1.140  0.00  0.00    -0.164 F 
ENDBRANCH   1  11
TORSDOF 2
