REMARK  7 active torsions:
REMARK  status: ('A' for Active; 'I' for Inactive)
REMARK    1  A    between atoms: N_7  and  C_2 
REMARK    2  A    between atoms: C_13  and  N_3 
REMARK    3  A    between atoms: C_8  and  C_6 
REMARK    4  A    between atoms: C_16  and  C_8 
REMARK    5  A    between atoms: C_22  and  C_16 
REMARK    6  A    between atoms: N_21  and  N_17 
REMARK    7  A    between atoms: C_23  and  N_21 
ROOT
ATOM      1  C   UNL d   1      -0.497  -1.247  -0.141  0.00  0.00     0.120 C 
ATOM      2  C   UNL d   1       0.793  -0.762  -0.014  0.00  0.00     0.157 C 
ATOM      3  N   UNL d   1       0.683   0.614   0.051  0.00  0.00    -0.237 N 
ATOM      4  N   UNL d   1      -0.615   0.997   0.209  0.00  0.00    -0.289 N 
ATOM      5  HN  UNL d   1      -0.955   1.930   0.440  1.00  0.00     0.188 HD
ATOM      6  C   UNL d   1      -1.359  -0.109  -0.002  0.00  0.00     0.094 C 
ATOM      7  C   UNL d   1      -0.854  -2.627  -0.237  0.00  0.00     0.106 C 
ATOM      8  N   UNL d   1      -1.113  -3.755  -0.310  0.00  0.00    -0.191 NA
ENDROOT
BRANCH   2   9
ATOM      9  N   UNL d   1       1.994  -1.477   0.117  0.00  0.00    -0.316 N 
ATOM     10  C   UNL d   1       3.115  -1.091   0.835  0.00  0.00     0.098 A 
ATOM     11  C   UNL d   1       4.110  -2.031   0.691  0.00  0.00     0.019 A 
ATOM     12  C   UNL d   1       3.579  -3.070  -0.092  0.00  0.00     0.019 A 
ATOM     13  C   UNL d   1       2.284  -2.721  -0.411  0.00  0.00     0.098 A 
ENDBRANCH   2   9
BRANCH   6  14
ATOM     14  C   UNL d   1      -2.826  -0.082  -0.011  0.00  0.00     0.075 C 
ATOM     15  C   UNL d   1      -3.541  -1.289  -0.287  0.00  0.00     0.102 C 
ATOM     16  N   UNL d   1      -4.175  -2.237  -0.508  0.00  0.00    -0.191 NA
BRANCH  14  17
ATOM     17  C   UNL d   1      -3.537   1.046   0.217  0.00  0.00     0.043 C 
BRANCH  17  18
ATOM     18  C   UNL d   1      -5.026   1.115   0.266  0.00  0.00     0.108 C 
ATOM     19  N   UNL d   1      -5.643   2.232   0.486  0.00  0.00    -0.311 N 
ATOM     20  HN  UNL d   1      -5.148   3.117   0.594  1.00  0.00     0.186 HD
BRANCH  19  21
ATOM     21  N   UNL d   1      -6.999   2.142   0.564  0.00  0.00    -0.301 N 
ATOM     22  H   UNL d   1      -7.507   1.283   0.370  0.00  0.00     0.187 HD
BRANCH  21  23
ATOM     23  C   UNL d   1      -7.779   3.300   0.747  0.00  0.00     0.048 A 
ATOM     24  C   UNL d   1      -7.215   4.581   0.802  0.00  0.00     0.031 A 
ATOM     25  C   UNL d   1      -8.005   5.712   1.029  0.00  0.00     0.002 A 
ATOM     26  C   UNL d   1      -9.377   5.579   1.224  0.00  0.00     0.000 A 
ATOM     27  C   UNL d   1      -9.957   4.313   1.192  0.00  0.00     0.002 A 
ATOM     28  C   UNL d   1      -9.162   3.183   0.958  0.00  0.00     0.031 A 
ENDBRANCH  21  23
ENDBRANCH  19  21
ENDBRANCH  17  18
ENDBRANCH  14  17
ENDBRANCH   6  14
BRANCH   3  29
ATOM     29  C   UNL d   1       1.712   1.589  -0.093  0.00  0.00     0.058 A 
ATOM     30  C   UNL d   1       2.790   1.357  -0.965  0.00  0.00     0.031 A 
ATOM     31  C   UNL d   1       3.893   2.211  -0.962  0.00  0.00     0.002 A 
ATOM     32  C   UNL d   1       3.915   3.309  -0.107  0.00  0.00     0.000 A 
ATOM     33  C   UNL d   1       2.816   3.581   0.712  0.00  0.00     0.002 A 
ATOM     34  C   UNL d   1       1.700   2.736   0.707  0.00  0.00     0.031 A 
ENDBRANCH   3  29
TORSDOF 7
