REMARK  2 active torsions:
REMARK  status: ('A' for Active; 'I' for Inactive)
REMARK    1  A    between atoms: N_3  and  C_1 
REMARK    2  A    between atoms: C_6  and  C_2 
ROOT
ATOM      1  C   UNL d   1       2.344  -0.877  -0.044  0.00  0.00     0.115 C 
ATOM      2  C   UNL d   1       2.443   0.617   0.018  0.00  0.00     0.221 C 
ATOM      3  C   UNL d   1       1.201  -1.567  -0.164  0.00  0.00     0.049 C 
ATOM      4  O   UNL d   1       1.181   1.324  -0.165  0.00  0.00    -0.334 OA
ATOM      5  C   UNL d   1      -0.034  -0.795  -0.170  0.00  0.00     0.001 A 
ATOM      6  C   UNL d   1       0.018   0.604  -0.172  0.00  0.00     0.080 A 
ATOM      7  C   UNL d   1      -1.275  -1.440  -0.141  0.00  0.00     0.038 A 
ATOM      8  C   UNL d   1      -1.161   1.353  -0.149  0.00  0.00     0.039 A 
ATOM      9  C   UNL d   1      -2.449  -0.685  -0.101  0.00  0.00     0.035 A 
ATOM     10  C   UNL d   1      -2.397   0.707  -0.106  0.00  0.00     0.026 A 
ATOM     11 CL   UNL d   1      -3.972  -1.482  -0.033  0.00  0.00    -0.084 Cl
ENDROOT
BRANCH   2  12
ATOM     12  C   UNL d   1       3.088   1.232   1.260  0.00  0.00     0.021 A 
ATOM     13  C   UNL d   1       4.229   2.061   1.144  0.00  0.00     0.044 A 
ATOM     14 CL   UNL d   1       5.023   2.371  -0.365  0.00  0.00    -0.084 Cl
ATOM     15  C   UNL d   1       4.785   2.705   2.260  0.00  0.00     0.024 A 
ATOM     16  C   UNL d   1       4.213   2.560   3.516  0.00  0.00     0.003 A 
ATOM     17  C   UNL d   1       3.102   1.742   3.663  0.00  0.00     0.024 A 
ATOM     18  C   UNL d   1       2.553   1.074   2.558  0.00  0.00     0.044 A 
ATOM     19 CL   UNL d   1       1.202   0.059   2.919  0.00  0.00    -0.084 Cl
ENDBRANCH   2  12
BRANCH   1  20
ATOM     20  N   UNL d   1       3.595  -1.614  -0.106  0.00  0.00    -0.117 N 
ATOM     21  O   UNL d   1       3.545  -2.853  -0.139  0.00  0.00    -0.532 OA
ATOM     22  O   UNL d   1       4.642  -0.962  -0.133  0.00  0.00    -0.532 OA
ENDBRANCH   1  20
TORSDOF 2
