REMARK  6 active torsions:
REMARK  status: ('A' for Active; 'I' for Inactive)
REMARK    1  A    between atoms: C_8  and  N_1 
REMARK    2  A    between atoms: C_12  and  C_5 
REMARK    3  A    between atoms: C_11  and  C_8 
REMARK    4  A    between atoms: C_9  and  C_14 
REMARK    5  A    between atoms: C_10  and  C_13 
REMARK       I    between atoms: N_16  and  C_11 
REMARK       I    between atoms: C_15  and  N_20 
REMARK       I    between atoms: N_29  and  C_15 
REMARK    6  A    between atoms: N_20  and  N_16 
ROOT
ATOM      1  N   UNL d   1      -0.070  -1.198  -0.201  0.00  0.00    -0.203 N 
ATOM      2  N   UNL d   1       1.192  -0.753  -0.348  0.00  0.00    -0.268 N 
ATOM      3  HN  UNL d   1       2.040  -1.268  -0.582  1.00  0.00     0.190 HD
ATOM      4  N   UNL d   1      -0.970  -0.262   0.146  0.00  0.00    -0.002 NA
ATOM      5  C   UNL d   1       1.025   0.557  -0.102  0.00  0.00     0.144 A 
ATOM      6  N   UNL d   1      -0.279   0.871   0.199  0.00  0.00    -0.266 N 
ATOM      7  HN  UNL d   1      -0.646   1.796   0.420  1.00  0.00     0.186 HD
ENDROOT
BRANCH   5   8
ATOM      8  C   UNL d   1       2.116   1.520  -0.137  0.00  0.00     0.012 A 
ATOM      9  C   UNL d   1       3.396   1.101  -0.539  0.00  0.00     0.031 A 
ATOM     10  C   UNL d   1       4.476   1.992  -0.582  0.00  0.00     0.049 A 
ATOM     11  C   UNL d   1       4.258   3.329  -0.218  0.00  0.00     0.032 A 
ATOM     12  C   UNL d   1       2.986   3.776   0.183  0.00  0.00     0.049 A 
ATOM     13  C   UNL d   1       1.921   2.859   0.224  0.00  0.00     0.031 A 
BRANCH  10  14
ATOM     14  C   UNL d   1       5.846   1.525  -1.016  0.00  0.00     0.417 C 
ATOM     15  F   UNL d   1       5.902   0.204  -1.334  0.00  0.00    -0.166 F 
ATOM     16  F   UNL d   1       6.300   2.197  -2.108  0.00  0.00    -0.166 F 
ATOM     17  F   UNL d   1       6.782   1.713  -0.045  0.00  0.00    -0.166 F 
ENDBRANCH  10  14
BRANCH  12  18
ATOM     18  C   UNL d   1       2.787   5.228   0.555  0.00  0.00     0.417 C 
ATOM     19  F   UNL d   1       1.506   5.535   0.895  0.00  0.00    -0.166 F 
ATOM     20  F   UNL d   1       3.556   5.599   1.615  0.00  0.00    -0.166 F 
ATOM     21  F   UNL d   1       3.119   6.070  -0.461  0.00  0.00    -0.166 F 
ENDBRANCH  12  18
ENDBRANCH   5   8
BRANCH   1  22
ATOM     22  C   UNL d   1      -0.376  -2.618  -0.173  0.00  0.00     0.214 C 
ATOM     23  C   UNL d   1       0.157  -3.257   1.106  0.00  0.00     0.046 C 
BRANCH  22  24
ATOM     24  C   UNL d   1       0.128  -3.352  -1.411  0.00  0.00     0.262 C 
ATOM     25  N   UNL d   1       1.339  -2.962  -1.945  0.00  0.00    -0.264 N 
ATOM     26  H   UNL d   1       1.809  -2.087  -1.676  0.00  0.00     0.190 HD
ATOM     27  O   UNL d   1      -0.487  -4.320  -1.868  0.00  0.00    -0.269 OA
BRANCH  25  28
ATOM     28  N   UNL d   1       1.800  -3.581  -3.120  0.00  0.00    -0.249 N 
ATOM     29  C   UNL d   1       2.821  -2.963  -3.808  0.00  0.00     0.334 C 
ATOM     30  O   UNL d   1       3.389  -1.950  -3.403  0.00  0.00    -0.246 OA
ATOM     31  N   UNL d   1       3.130  -3.623  -4.973  0.00  0.00    -0.346 N 
ATOM     32  C   UNL d   1       4.239  -3.232  -5.807  0.00  0.00     0.151 C 
ATOM     33  H   UNL d   1       2.803  -4.576  -5.053  0.00  0.00     0.163 HD
ATOM     34  H   UNL d   1       1.095  -4.095  -3.642  0.00  0.00     0.192 HD
ENDBRANCH  25  28
ENDBRANCH  22  24
ENDBRANCH   1  22
TORSDOF 6
