REMARK  7 active torsions:
REMARK  status: ('A' for Active; 'I' for Inactive)
REMARK    1  A    between atoms: C_7  and  C_1 
REMARK       I    between atoms: C_2  and  N_6 
REMARK    2  A    between atoms: C_3  and  C_2 
REMARK    3  A    between atoms: O_9  and  C_4 
REMARK    4  A    between atoms: N_6  and  C_5 
REMARK       I    between atoms: N_8  and  C_7 
REMARK    5  A    between atoms: N_14  and  N_8 
REMARK    6  A    between atoms: C_18  and  O_9 
REMARK    7  A    between atoms: C_19  and  N_14 
ROOT
ATOM      1  C   UNL d   1       1.621   1.048  -0.508  0.00  0.00     0.061 A 
ATOM      2  C   UNL d   1       2.223   0.182   0.429  0.00  0.00     0.051 A 
ATOM      3  C   UNL d   1       0.285   0.831  -0.883  0.00  0.00     0.043 A 
ATOM      4  C   UNL d   1       1.538  -0.959   0.865  0.00  0.00     0.032 A 
ATOM      5  C   UNL d   1      -0.413  -0.259  -0.368  0.00  0.00     0.035 A 
ATOM      6  C   UNL d   1       0.216  -1.173   0.475  0.00  0.00     0.026 A 
ATOM      7 CL   UNL d   1      -2.054  -0.509  -0.816  0.00  0.00    -0.084 Cl
ENDROOT
BRANCH   2   8
ATOM      8  N   UNL d   1       3.472   0.429   1.042  0.00  0.00    -0.322 N 
ATOM      9  C   UNL d   1       3.696   1.622   1.727  0.00  0.00     0.260 C 
ATOM     10  O   UNL d   1       2.865   2.527   1.772  0.00  0.00    -0.267 OA
ATOM     11  H   UNL d   1       4.018  -0.378   1.299  0.00  0.00     0.169 HD
BRANCH   9  12
ATOM     12  C   UNL d   1       4.964   1.716   2.506  0.00  0.00     0.083 A 
ATOM     13  C   UNL d   1       5.577   2.945   2.756  0.00  0.00     0.163 A 
ATOM     14  N   UNL d   1       6.726   3.081   3.480  0.00  0.00    -0.346 N 
ATOM     15  C   UNL d   1       7.281   1.952   3.974  0.00  0.00     0.090 A 
ATOM     16  HN  UNL d   1       7.147   3.995   3.642  1.00  0.00     0.167 HD
ATOM     17  C   UNL d   1       6.729   0.694   3.818  0.00  0.00     0.018 A 
ATOM     18  C   UNL d   1       5.555   0.576   3.076  0.00  0.00     0.023 A 
BRANCH  13  19
ATOM     19  O   UNL d   1       4.900   4.121   2.502  0.00  0.00    -0.293 OA
BRANCH  19  20
ATOM     20  C   UNL d   1       5.333   4.855   1.427  0.00  0.00     0.077 A 
ATOM     21  C   UNL d   1       4.491   4.937   0.319  0.00  0.00     0.037 A 
ATOM     22  C   UNL d   1       4.788   5.807  -0.729  0.00  0.00     0.003 A 
ATOM     23  C   UNL d   1       5.923   6.608  -0.662  0.00  0.00     0.000 A 
ATOM     24  C   UNL d   1       6.765   6.534   0.450  0.00  0.00     0.003 A 
ATOM     25  C   UNL d   1       6.470   5.660   1.499  0.00  0.00     0.037 A 
ENDBRANCH  19  20
ENDBRANCH  13  19
ENDBRANCH   9  12
ENDBRANCH   2   8
BRANCH   1  26
ATOM     26  C   UNL d   1       2.444   1.993  -1.323  0.00  0.00     0.268 C 
ATOM     27  N   UNL d   1       1.775   3.070  -1.895  0.00  0.00    -0.283 N 
ATOM     28  H   UNL d   1       0.998   3.507  -1.411  0.00  0.00     0.184 HD
ATOM     29  O   UNL d   1       3.630   1.760  -1.555  0.00  0.00    -0.266 OA
BRANCH  27  30
ATOM     30  N   UNL d   1       2.555   3.921  -2.709  0.00  0.00    -0.203 NA
ATOM     31  H   UNL d   1       3.498   3.521  -2.810  0.00  0.00     0.153 HD
BRANCH  30  32
ATOM     32  C   UNL d   1       1.984   4.187  -3.982  0.00  0.00     0.027 A 
ATOM     33  C   UNL d   1       0.613   4.415  -4.162  0.00  0.00     0.025 A 
ATOM     34  C   UNL d   1       0.101   4.791  -5.411  0.00  0.00     0.002 A 
ATOM     35  C   UNL d   1       0.957   4.966  -6.495  0.00  0.00     0.000 A 
ATOM     36  C   UNL d   1       2.325   4.773  -6.330  0.00  0.00     0.002 A 
ATOM     37  C   UNL d   1       2.834   4.402  -5.080  0.00  0.00     0.025 A 
ENDBRANCH  30  32
ENDBRANCH  27  30
ENDBRANCH   1  26
TORSDOF 7
