REMARK  5 active torsions:
REMARK  status: ('A' for Active; 'I' for Inactive)
REMARK    1  A    between atoms: N_2  and  S_1 
REMARK    2  A    between atoms: C_11  and  S_1 
REMARK    3  A    between atoms: C_3  and  N_2 
REMARK       I    between atoms: C_4  and  N_9 
REMARK    4  A    between atoms: C_5  and  C_4 
REMARK    5  A    between atoms: N_9  and  C_20 
ROOT
ATOM      1  C   UNL d   1       0.393  -1.578  -0.428  0.00  0.00     0.075 A 
ATOM      2  C   UNL d   1       1.355  -2.577  -0.579  0.00  0.00     0.027 A 
ATOM      3  C   UNL d   1      -0.962  -1.884  -0.512  0.00  0.00     0.027 A 
ATOM      4  C   UNL d   1      -0.409  -4.234  -0.831  0.00  0.00     0.035 A 
ATOM      5  C   UNL d   1       0.952  -3.900  -0.794  0.00  0.00     0.031 A 
ATOM      6  C   UNL d   1      -1.356  -3.210  -0.722  0.00  0.00     0.031 A 
ENDROOT
BRANCH   1   7
ATOM      7  S   UNL d   1       0.899   0.056   0.064  0.00  0.00     0.247 S 
ATOM      8  O   UNL d   1      -0.250   0.723   0.634  0.00  0.00    -0.205 OA
ATOM      9  O   UNL d   1       2.136  -0.090   0.802  0.00  0.00    -0.205 OA
BRANCH   7  10
ATOM     10  N   UNL d   1       1.180   0.809  -1.430  0.00  0.00    -0.165 NA
ATOM     11  H   UNL d   1       0.508   1.580  -1.454  0.00  0.00     0.147 HD
BRANCH  10  12
ATOM     12  C   UNL d   1       2.469   1.290  -1.638  0.00  0.00     0.117 A 
ATOM     13  N   UNL d   1       2.787   2.563  -1.402  0.00  0.00    -0.249 N 
ATOM     14  O   UNL d   1       4.132   2.670  -1.721  0.00  0.00    -0.241 OA
ATOM     15  HN  UNL d   1       2.172   3.301  -1.059  1.00  0.00     0.196 HD
ATOM     16  C   UNL d   1       4.574   1.480  -2.212  0.00  0.00     0.075 A 
ATOM     17  C   UNL d   1       3.545   0.571  -2.188  0.00  0.00     0.079 A 
ATOM     18  C   UNL d   1       5.978   1.434  -2.654  0.00  0.00     0.079 C 
ENDBRANCH  10  12
ENDBRANCH   7  10
ENDBRANCH   1   7
BRANCH   4  19
ATOM     19  N   UNL d   1      -0.743  -5.604  -0.949  0.00  0.00    -0.323 N 
ATOM     20  C   UNL d   1      -2.010  -6.162  -0.848  0.00  0.00     0.262 C 
ATOM     21  O   UNL d   1      -3.035  -5.523  -0.626  0.00  0.00    -0.267 OA
ATOM     22  H   UNL d   1       0.041  -6.241  -1.042  0.00  0.00     0.169 HD
BRANCH  20  23
ATOM     23  C   UNL d   1      -2.122  -7.638  -1.026  0.00  0.00     0.109 A 
ATOM     24  C   UNL d   1      -1.011  -8.481  -1.100  0.00  0.00     0.135 A 
ATOM     25  F   UNL d   1       0.233  -7.997  -0.952  0.00  0.00    -0.205 F 
ATOM     26  C   UNL d   1      -1.148  -9.852  -1.335  0.00  0.00     0.043 A 
ATOM     27  C   UNL d   1      -2.415 -10.408  -1.495  0.00  0.00     0.006 A 
ATOM     28  C   UNL d   1      -3.537  -9.591  -1.391  0.00  0.00     0.043 A 
ATOM     29  C   UNL d   1      -3.387  -8.223  -1.155  0.00  0.00     0.135 A 
ATOM     30  F   UNL d   1      -4.512  -7.498  -1.074  0.00  0.00    -0.205 F 
ENDBRANCH  20  23
ENDBRANCH   4  19
TORSDOF 5
