REMARK  4 active torsions:
REMARK  status: ('A' for Active; 'I' for Inactive)
REMARK    1  A    between atoms: C_8  and  N_1 
REMARK    2  A    between atoms: C_5  and  C_2 
REMARK    3  A    between atoms: O_18  and  C_5 
REMARK    4  A    between atoms: C_15  and  C_8 
ROOT
ATOM      1  N   UNL d   1      -0.053  -1.012   0.026  0.00  0.00    -0.347 N 
ATOM      2  C   UNL d   1      -1.192   0.829   0.893  0.00  0.00     0.110 C 
ATOM      3  C   UNL d   1      -0.227  -0.159  -1.044  0.00  0.00     0.221 C 
ATOM      4  C   UNL d   1      -0.363  -0.388   1.289  0.00  0.00     0.141 C 
ATOM      5  C   UNL d   1      -0.690   1.172  -0.508  0.00  0.00     0.119 C 
ATOM      6  O   UNL d   1      -0.018  -0.396  -2.223  0.00  0.00    -0.273 OA
ENDROOT
BRANCH   1   7
ATOM      7  C   UNL d   1       0.395  -2.388  -0.082  0.00  0.00     0.164 C 
BRANCH   7   8
ATOM      8  C   UNL d   1       1.897  -2.554  -0.033  0.00  0.00    -0.037 A 
ATOM      9  C   UNL d   1       2.503  -3.258   1.021  0.00  0.00     0.048 A 
ATOM     10  C   UNL d   1       3.863  -3.490   0.953  0.00  0.00     0.105 A 
ATOM     11  O   UNL d   1       4.596  -4.194   1.859  0.00  0.00    -0.323 OA
ATOM     12  C   UNL d   1       4.628  -3.036  -0.096  0.00  0.00     0.105 A 
ATOM     13  C   UNL d   1       5.892  -4.184   1.225  0.00  0.00     0.352 A 
ATOM     14  O   UNL d   1       5.933  -3.397   0.017  0.00  0.00    -0.323 OA
ATOM     15  C   UNL d   1       4.078  -2.317  -1.132  0.00  0.00     0.040 A 
ATOM     16  C   UNL d   1       2.700  -2.081  -1.099  0.00  0.00     0.012 A 
ENDBRANCH   7   8
ENDBRANCH   1   7
BRANCH   2  17
ATOM     17  C   UNL d   1      -2.677   0.521   0.875  0.00  0.00     0.145 C 
ATOM     18  O   UNL d   1      -3.172  -0.563   1.140  0.00  0.00    -0.650 OA
BRANCH  17  19
ATOM     19  O   UNL d   1      -3.442   1.596   0.576  0.00  0.00    -0.776 OA
ATOM     20  H   UNL d   1      -2.957   2.424   0.403  0.00  0.00     0.167 HD
ENDBRANCH  17  19
ENDBRANCH   2  17
TORSDOF 4
