REMARK  2 active torsions:
REMARK  status: ('A' for Active; 'I' for Inactive)
REMARK    1  A    between atoms: N_7  and  C_1 
REMARK    2  A    between atoms: C_10  and  C_2 
REMARK       I    between atoms: C_3  and  N_7 
REMARK       I    between atoms: N_4  and  C_3 
ROOT
ATOM      1  C   UNL d   1       1.822  -2.291  -0.174  0.00  0.00     0.306 C 
ATOM      2  N   UNL d   1       2.920  -1.480   0.162  0.00  0.00    -0.299 N 
ATOM      3  N   UNL d   1       0.655  -2.097   0.519  0.00  0.00    -0.206 NA
ATOM      4  C   UNL d   1       4.268  -1.987  -0.031  0.00  0.00     0.045 A 
ATOM      5  C   UNL d   1       5.345  -1.079  -0.181  0.00  0.00    -0.028 A 
ATOM      6  C   UNL d   1       4.566  -3.358   0.055  0.00  0.00     0.033 A 
ATOM      7  O   UNL d   1       1.880  -3.278  -0.907  0.00  0.00    -0.253 OA
ATOM      8  C   UNL d   1       2.940  -0.112   0.765  0.00  0.00     0.090 C 
ATOM      9  C   UNL d   1       6.668  -1.551  -0.237  0.00  0.00     0.051 A 
ATOM     10  C   UNL d   1       5.141   0.414  -0.245  0.00  0.00     0.043 C 
ATOM     11  C   UNL d   1       3.676   0.809  -0.212  0.00  0.00     0.030 C 
ATOM     12  C   UNL d   1       6.926  -2.908  -0.132  0.00  0.00     0.117 A 
ATOM     13  C   UNL d   1       5.888  -3.815   0.015  0.00  0.00     0.044 A 
ATOM     14  F   UNL d   1       8.193  -3.342  -0.150  0.00  0.00    -0.206 F 
ATOM     15  C   UNL d   1       1.668   0.579   1.215  0.00  0.00     0.033 C 
ATOM     16  H   UNL d   1       0.247  -3.025   0.636  0.00  0.00     0.138 HD
ENDROOT
BRANCH   3  17
ATOM     17  C   UNL d   1      -0.392  -1.294   0.040  0.00  0.00     0.077 C 
ATOM     18  C   UNL d   1      -1.420  -0.722   0.859  0.00  0.00     0.091 C 
ATOM     19  N   UNL d   1      -2.197   0.098   0.139  0.00  0.00    -0.258 N 
ATOM     20  O   UNL d   1      -1.766  -0.028  -1.169  0.00  0.00    -0.240 OA
ATOM     21  HN  UNL d   1      -2.951   0.692   0.484  1.00  0.00     0.195 HD
ATOM     22  C   UNL d   1      -0.709  -0.887  -1.234  0.00  0.00     0.096 C 
ATOM     23  C   UNL d   1      -0.234  -1.204  -2.593  0.00  0.00     0.081 C 
BRANCH  18  24
ATOM     24  C   UNL d   1      -1.593  -0.883   2.299  0.00  0.00     0.016 A 
ATOM     25  C   UNL d   1      -1.903  -2.127   2.868  0.00  0.00     0.046 A 
ATOM     26 CL   UNL d   1      -2.220  -3.533   1.910  0.00  0.00    -0.083 Cl
ATOM     27  C   UNL d   1      -1.966  -2.269   4.258  0.00  0.00     0.025 A 
ATOM     28  C   UNL d   1      -1.714  -1.177   5.089  0.00  0.00     0.002 A 
ATOM     29  C   UNL d   1      -1.416   0.065   4.534  0.00  0.00     0.001 A 
ATOM     30  C   UNL d   1      -1.366   0.216   3.146  0.00  0.00     0.015 A 
ENDBRANCH  18  24
ENDBRANCH   3  17
TORSDOF 2
