REMARK  7 active torsions:
REMARK  status: ('A' for Active; 'I' for Inactive)
REMARK    1  A    between atoms: C_2  and  C_1 
REMARK    2  A    between atoms: N_3  and  C_1 
REMARK    3  A    between atoms: C_4  and  C_1 
REMARK    4  A    between atoms: N_5  and  C_1 
REMARK       I    between atoms: C_6  and  N_3 
REMARK    5  A    between atoms: O_13  and  C_4 
REMARK    6  A    between atoms: C_12  and  N_5 
REMARK    7  A    between atoms: C_15  and  O_13 
ROOT
ATOM      1  C   UNL d   1       0.911  -0.081   0.012  0.00  0.00     0.296 C 
ENDROOT
BRANCH   1   2
ATOM      2  C   UNL d   1       0.301  -1.463  -0.407  0.00  0.00     0.442 C 
ATOM      3  F   UNL d   1      -0.102  -2.195   0.665  0.00  0.00    -0.166 F 
ATOM      4  F   UNL d   1      -0.761  -1.362  -1.240  0.00  0.00    -0.166 F 
ATOM      5  F   UNL d   1       1.218  -2.231  -1.060  0.00  0.00    -0.166 F 
ENDBRANCH   1   2
BRANCH   1   6
ATOM      6  N   UNL d   1       0.518   0.467   1.303  0.00  0.00    -0.319 N 
ATOM      7  C   UNL d   1      -0.794   0.572   1.662  0.00  0.00     0.216 C 
ATOM      8  O   UNL d   1      -1.703   0.132   0.967  0.00  0.00    -0.274 OA
ATOM      9  C   UNL d   1      -1.041   1.276   2.969  0.00  0.00     0.117 C 
ATOM     10  H   UNL d   1       1.259   0.882   1.845  0.00  0.00     0.165 HD
ENDBRANCH   1   6
BRANCH   1  11
ATOM     11  C   UNL d   1       0.485   0.904  -1.123  0.00  0.00     0.318 C 
ATOM     12  O   UNL d   1      -0.142   1.941  -0.968  0.00  0.00    -0.260 OA
BRANCH  11  13
ATOM     13  O   UNL d   1       1.025   0.513  -2.319  0.00  0.00    -0.318 OA
BRANCH  13  14
ATOM     14  C   UNL d   1       0.678   1.328  -3.450  0.00  0.00     0.174 C 
ATOM     15  C   UNL d   1       1.619   2.514  -3.558  0.00  0.00     0.034 C 
ENDBRANCH  13  14
ENDBRANCH  11  13
ENDBRANCH   1  11
BRANCH   1  16
ATOM     16  N   UNL d   1       2.406   0.003   0.085  0.00  0.00    -0.348 N 
ATOM     17  H   UNL d   1       2.797   0.177  -0.845  0.00  0.00     0.163 HD
BRANCH  16  18
ATOM     18  C   UNL d   1       3.262  -0.803   0.822  0.00  0.00     0.030 A 
ATOM     19  C   UNL d   1       2.865  -1.764   1.752  0.00  0.00     0.029 A 
ATOM     20  C   UNL d   1       3.811  -2.486   2.492  0.00  0.00     0.002 A 
ATOM     21  C   UNL d   1       5.172  -2.226   2.348  0.00  0.00     0.000 A 
ATOM     22  C   UNL d   1       5.587  -1.242   1.460  0.00  0.00     0.002 A 
ATOM     23  C   UNL d   1       4.639  -0.541   0.713  0.00  0.00     0.029 A 
ENDBRANCH  16  18
ENDBRANCH   1  16
TORSDOF 7
