REMARK  4 active torsions:
REMARK  status: ('A' for Active; 'I' for Inactive)
REMARK    1  A    between atoms: C_6  and  N_1 
REMARK    2  A    between atoms: C_3  and  C_2 
REMARK    3  A    between atoms: C_10  and  C_6 
REMARK    4  A    between atoms: O_12  and  C_8 
ROOT
ATOM      1  N   UNL d   1      -0.578  -1.212   0.185  0.00  0.00    -0.330 N 
ATOM      2  C   UNL d   1       0.809  -1.362  -0.207  0.00  0.00     0.186 C 
ATOM      3  S   UNL d   1       1.500   0.312  -0.286  0.00  0.00    -0.129 SA
ATOM      4  C   UNL d   1      -1.126   0.061   0.084  0.00  0.00     0.230 C 
ATOM      5  C   UNL d   1      -0.115   1.104  -0.330  0.00  0.00     0.179 C 
ATOM      6  O   UNL d   1      -2.297   0.334   0.310  0.00  0.00    -0.272 OA
ENDROOT
BRANCH   2   7
ATOM      7  C   UNL d   1       1.647  -2.244   0.701  0.00  0.00     0.008 A 
ATOM      8  C   UNL d   1       1.474  -2.356   2.090  0.00  0.00     0.074 A 
ATOM      9  C   UNL d   1       2.257  -3.225   2.853  0.00  0.00     0.037 A 
ATOM     10  C   UNL d   1       3.259  -3.978   2.248  0.00  0.00     0.003 A 
ATOM     11  C   UNL d   1       3.488  -3.849   0.883  0.00  0.00     0.001 A 
ATOM     12  C   UNL d   1       2.692  -2.990   0.118  0.00  0.00     0.013 A 
BRANCH   8  13
ATOM     13  O   UNL d   1       0.540  -1.649   2.793  0.00  0.00    -0.360 OA
ATOM     14  H   UNL d   1       0.121  -1.002   2.202  0.00  0.00     0.217 HD
ENDBRANCH   8  13
ENDBRANCH   2   7
BRANCH   1  15
ATOM     15  C   UNL d   1      -1.448  -2.382   0.325  0.00  0.00     0.166 C 
BRANCH  15  16
ATOM     16  C   UNL d   1      -2.210  -2.728  -0.934  0.00  0.00    -0.040 A 
ATOM     17  C   UNL d   1      -1.671  -3.587  -1.901  0.00  0.00     0.009 A 
ATOM     18  C   UNL d   1      -2.397  -3.895  -3.056  0.00  0.00     0.001 A 
ATOM     19  C   UNL d   1      -3.663  -3.346  -3.259  0.00  0.00     0.000 A 
ATOM     20  C   UNL d   1      -4.210  -2.494  -2.305  0.00  0.00     0.001 A 
ATOM     21  C   UNL d   1      -3.489  -2.190  -1.150  0.00  0.00     0.009 A 
ENDBRANCH  15  16
ENDBRANCH   1  15
TORSDOF 4
