REMARK  6 active torsions:
REMARK  status: ('A' for Active; 'I' for Inactive)
REMARK    1  A    between atoms: C_5  and  C_1 
REMARK    2  A    between atoms: C_2  and  N_4 
REMARK    3  A    between atoms: N_12  and  C_2 
REMARK    4  A    between atoms: N_4  and  C_3 
REMARK    5  A    between atoms: N_7  and  N_12 
REMARK    6  A    between atoms: C_9  and  C_15 
ROOT
ATOM      1  C   UNL d   1      -1.156  -1.703  -6.004  0.00  0.00     0.191 C 
ATOM      2  S   UNL d   1      -0.942  -0.625  -7.258  0.00  0.00    -0.039 SA
ENDROOT
BRANCH   1   3
ATOM      3  N   UNL d   1      -0.905  -1.502  -4.664  0.00  0.00    -0.331 N 
ATOM      4  H   UNL d   1      -0.665  -2.365  -4.184  0.00  0.00     0.168 HD
BRANCH   3   5
ATOM      5  C   UNL d   1      -0.980  -0.347  -3.862  0.00  0.00     0.057 A 
ATOM      6  C   UNL d   1      -1.826   0.720  -4.188  0.00  0.00     0.047 A 
ATOM      7  C   UNL d   1      -1.994   1.805  -3.310  0.00  0.00     0.050 A 
ATOM      8  C   UNL d   1      -1.282   1.822  -2.100  0.00  0.00     0.018 A 
ATOM      9  C   UNL d   1      -0.435   0.765  -1.765  0.00  0.00     0.027 A 
ATOM     10  C   UNL d   1      -0.300  -0.321  -2.632  0.00  0.00     0.060 A 
ATOM     11 CL   UNL d   1       0.743  -1.617  -2.156  0.00  0.00    -0.082 Cl
BRANCH   7  12
ATOM     12  C   UNL d   1      -2.947   2.929  -3.637  0.00  0.00     0.417 C 
ATOM     13  F   UNL d   1      -3.615   2.761  -4.811  0.00  0.00    -0.166 F 
ATOM     14  F   UNL d   1      -2.319   4.133  -3.728  0.00  0.00    -0.166 F 
ATOM     15  F   UNL d   1      -3.908   3.082  -2.683  0.00  0.00    -0.166 F 
ENDBRANCH   7  12
ENDBRANCH   3   5
ENDBRANCH   1   3
BRANCH   1  16
ATOM     16  N   UNL d   1      -1.621  -2.984  -6.272  0.00  0.00    -0.276 N 
ATOM     17  H   UNL d   1      -1.878  -3.195  -7.233  0.00  0.00     0.189 HD
BRANCH  16  18
ATOM     18  N   UNL d   1      -2.240  -3.642  -5.251  0.00  0.00    -0.309 N 
ATOM     19  C   UNL d   1      -2.980  -4.657  -5.552  0.00  0.00     0.120 C 
ATOM     20  HN  UNL d   1      -2.122  -3.343  -4.283  1.00  0.00     0.186 HD
BRANCH  19  21
ATOM     21  C   UNL d   1      -3.847  -5.244  -4.507  0.00  0.00     0.002 A 
ATOM     22  C   UNL d   1      -4.484  -6.478  -4.657  0.00  0.00     0.045 A 
ATOM     23 CL   UNL d   1      -4.252  -7.486  -6.038  0.00  0.00    -0.083 Cl
ATOM     24  C   UNL d   1      -5.343  -6.937  -3.649  0.00  0.00     0.024 A 
ATOM     25  C   UNL d   1      -5.576  -6.166  -2.507  0.00  0.00     0.002 A 
ATOM     26  C   UNL d   1      -4.946  -4.936  -2.357  0.00  0.00     0.001 A 
ATOM     27  C   UNL d   1      -4.084  -4.477  -3.352  0.00  0.00     0.014 A 
ENDBRANCH  19  21
ENDBRANCH  16  18
ENDBRANCH   1  16
TORSDOF 6
