REMARK  6 active torsions:
REMARK  status: ('A' for Active; 'I' for Inactive)
REMARK    1  A    between atoms: C_3  and  C_1 
REMARK    2  A    between atoms: O_4  and  C_2 
REMARK    3  A    between atoms: O_11  and  C_3 
REMARK    4  A    between atoms: C_6  and  O_4 
REMARK    5  A    between atoms: O_14  and  C_10 
REMARK    6  A    between atoms: O_15  and  C_12 
ROOT
ATOM      1  C   UNL d   1       1.339  -0.170  -0.076  0.00  0.00     0.074 A 
ATOM      2  C   UNL d   1       0.496  -1.292  -0.111  0.00  0.00     0.093 A 
ATOM      3  C   UNL d   1       0.755   1.108   0.001  0.00  0.00     0.057 A 
ATOM      4  C   UNL d   1      -0.895  -1.111  -0.179  0.00  0.00     0.041 A 
ATOM      5  C   UNL d   1      -0.631   1.278   0.025  0.00  0.00     0.069 A 
ATOM      6  C   UNL d   1      -1.456   0.164  -0.087  0.00  0.00     0.039 A 
ENDROOT
BRANCH   2   7
ATOM      7  O   UNL d   1       1.044  -2.560  -0.121  0.00  0.00    -0.310 OA
BRANCH   7   8
ATOM      8  C   UNL d   1       0.400  -3.562   0.581  0.00  0.00     0.078 A 
ATOM      9  C   UNL d   1      -0.219  -3.360   1.823  0.00  0.00     0.074 A 
ATOM     10  C   UNL d   1      -0.889  -4.411   2.451  0.00  0.00     0.070 A 
ATOM     11  C   UNL d   1      -0.880  -5.677   1.859  0.00  0.00     0.037 A 
ATOM     12  C   UNL d   1      -0.219  -5.893   0.649  0.00  0.00     0.005 A 
ATOM     13  C   UNL d   1       0.423  -4.834   0.009  0.00  0.00     0.037 A 
BRANCH  10  14
ATOM     14  O   UNL d   1      -1.576  -4.333   3.631  0.00  0.00    -0.356 OA
ATOM     15  C   UNL d   1      -1.749  -3.038   4.193  0.00  0.00     0.210 C 
ENDBRANCH  10  14
ENDBRANCH   7   8
ENDBRANCH   2   7
BRANCH   1  16
ATOM     16  C   UNL d   1       2.834  -0.209  -0.109  0.00  0.00     0.179 C 
ATOM     17  O   UNL d   1       3.513   0.800  -0.024  0.00  0.00    -0.646 OA
BRANCH  16  18
ATOM     18  O   UNL d   1       3.397  -1.426  -0.261  0.00  0.00    -0.773 OA
ATOM     19  H   UNL d   1       2.765  -2.167  -0.316  0.00  0.00     0.167 HD
ENDBRANCH  16  18
ENDBRANCH   1  16
BRANCH   5  20
ATOM     20  O   UNL d   1      -1.052   2.572   0.151  0.00  0.00    -0.356 OA
ATOM     21  C   UNL d   1      -2.453   2.783   0.276  0.00  0.00     0.210 C 
ENDBRANCH   5  20
TORSDOF 6
