REMARK  7 active torsions:
REMARK  status: ('A' for Active; 'I' for Inactive)
REMARK    1  A    between atoms: C_9  and  N_1 
REMARK    2  A    between atoms: C_10  and  C_2 
REMARK    3  A    between atoms: C_22  and  C_6 
REMARK    4  A    between atoms: C_23  and  C_7 
REMARK    5  A    between atoms: C_11  and  C_15 
REMARK    6  A    between atoms: C_12  and  C_17 
REMARK    7  A    between atoms: C_13  and  C_16 
ROOT
ATOM      1  N   UNL d   1       1.129   1.475   0.172  0.00  0.00    -0.329 N 
ATOM      2  C   UNL d   1      -1.354   1.414   0.103  0.00  0.00     0.077 A 
ATOM      3  C   UNL d   1      -0.103   0.769   0.220  0.00  0.00     0.078 A 
ATOM      4  N   UNL d   1       1.144  -1.369   0.393  0.00  0.00    -0.355 N 
ATOM      5  HN  UNL d   1       1.161  -2.334   0.721  1.00  0.00     0.166 HD
ATOM      6  C   UNL d   1       2.237  -0.747   0.058  0.00  0.00     0.048 C 
ATOM      7  C   UNL d   1       2.246   0.704  -0.457  0.00  0.00     0.174 C 
ATOM      8  C   UNL d   1      -0.066  -0.651   0.285  0.00  0.00     0.061 A 
ATOM      9  C   UNL d   1      -2.524   0.619   0.033  0.00  0.00     0.034 A 
ATOM     10  C   UNL d   1      -2.480  -0.781   0.052  0.00  0.00     0.051 A 
ATOM     11  C   UNL d   1      -1.243  -1.404   0.203  0.00  0.00     0.048 A 
ENDROOT
BRANCH   1  12
ATOM     12  C   UNL d   1       1.518   2.547   1.003  0.00  0.00     0.037 A 
ATOM     13  C   UNL d   1       1.027   2.677   2.309  0.00  0.00     0.046 A 
ATOM     14  C   UNL d   1       1.322   3.806   3.092  0.00  0.00     0.050 A 
ATOM     15  C   UNL d   1       2.122   4.823   2.547  0.00  0.00     0.032 A 
ATOM     16  C   UNL d   1       2.639   4.713   1.248  0.00  0.00     0.050 A 
ATOM     17  C   UNL d   1       2.335   3.570   0.497  0.00  0.00     0.046 A 
BRANCH  14  18
ATOM     18  C   UNL d   1       0.772   3.942   4.492  0.00  0.00     0.417 C 
ATOM     19  F   UNL d   1       0.042   2.868   4.900  0.00  0.00    -0.166 F 
ATOM     20  F   UNL d   1       1.757   4.099   5.419  0.00  0.00    -0.166 F 
ATOM     21  F   UNL d   1      -0.044   5.024   4.626  0.00  0.00    -0.166 F 
ENDBRANCH  14  18
BRANCH  16  22
ATOM     22  C   UNL d   1       3.469   5.823   0.649  0.00  0.00     0.417 C 
ATOM     23  F   UNL d   1       3.922   5.549  -0.604  0.00  0.00    -0.166 F 
ATOM     24  F   UNL d   1       2.787   6.997   0.556  0.00  0.00    -0.166 F 
ATOM     25  F   UNL d   1       4.579   6.092   1.392  0.00  0.00    -0.166 F 
ENDBRANCH  16  22
ENDBRANCH   1  12
BRANCH   7  26
ATOM     26  C   UNL d   1       2.185   0.824  -1.987  0.00  0.00    -0.029 A 
ATOM     27  C   UNL d   1       1.147   0.266  -2.752  0.00  0.00     0.009 A 
ATOM     28  C   UNL d   1       1.081   0.456  -4.133  0.00  0.00     0.001 A 
ATOM     29  C   UNL d   1       2.071   1.183  -4.784  0.00  0.00     0.000 A 
ATOM     30  C   UNL d   1       3.127   1.720  -4.054  0.00  0.00     0.001 A 
ATOM     31  C   UNL d   1       3.179   1.551  -2.668  0.00  0.00     0.009 A 
ENDBRANCH   7  26
BRANCH   2  32
ATOM     32  C   UNL d   1      -1.588   2.902  -0.043  0.00  0.00     0.419 C 
ATOM     33  F   UNL d   1      -0.509   3.708  -0.197  0.00  0.00    -0.166 F 
ATOM     34  F   UNL d   1      -2.377   3.176  -1.127  0.00  0.00    -0.166 F 
ATOM     35  F   UNL d   1      -2.274   3.402   1.028  0.00  0.00    -0.166 F 
ENDBRANCH   2  32
BRANCH   6  36
ATOM     36  C   UNL d   1       3.560  -1.444   0.231  0.00  0.00    -0.011 A 
ATOM     37  C   UNL d   1       4.684  -1.114  -0.538  0.00  0.00     0.013 A 
ATOM     38  C   UNL d   1       5.914  -1.733  -0.300  0.00  0.00     0.001 A 
ATOM     39  C   UNL d   1       6.032  -2.692   0.702  0.00  0.00     0.000 A 
ATOM     40  C   UNL d   1       4.913  -3.043   1.459  0.00  0.00     0.001 A 
ATOM     41  C   UNL d   1       3.684  -2.425   1.224  0.00  0.00     0.013 A 
ENDBRANCH   6  36
BRANCH  10  42
ATOM     42  C   UNL d   1      -3.731  -1.606  -0.138  0.00  0.00     0.417 C 
ATOM     43  F   UNL d   1      -4.855  -0.852  -0.284  0.00  0.00    -0.166 F 
ATOM     44  F   UNL d   1      -3.664  -2.389  -1.250  0.00  0.00    -0.166 F 
ATOM     45  F   UNL d   1      -3.972  -2.443   0.903  0.00  0.00    -0.166 F 
ENDBRANCH  10  42
TORSDOF 7
