REMARK  1 active torsions:
REMARK  status: ('A' for Active; 'I' for Inactive)
REMARK    1  A    between atoms: O_10  and  C_5 
ROOT
ATOM      1  C   UNL d   1      -2.442  -0.407   0.009  0.00  0.00     0.255 A 
ATOM      2  N   UNL d   1      -1.744   0.798  -0.014  0.00  0.00    -0.324 N 
ATOM      3  C   UNL d   1      -0.095  -0.776   0.007  0.00  0.00     0.009 A 
ATOM      4  C   UNL d   1      -0.374   0.592  -0.013  0.00  0.00     0.044 A 
ATOM      5  C   UNL d   1      -1.381  -1.556   0.024  0.00  0.00     0.245 A 
ATOM      6  C   UNL d   1       1.212  -1.229   0.007  0.00  0.00     0.054 A 
ATOM      7  O   UNL d   1      -3.656  -0.515   0.053  0.00  0.00    -0.270 OA
ATOM      8  C   UNL d   1       0.617   1.552  -0.019  0.00  0.00     0.033 A 
ATOM      9  C   UNL d   1       2.225  -0.272  -0.003  0.00  0.00     0.117 A 
ATOM     10  C   UNL d   1       1.941   1.103  -0.013  0.00  0.00     0.044 A 
ATOM     11  F   UNL d   1       3.503  -0.672  -0.001  0.00  0.00    -0.206 F 
ATOM     12  H   UNL d   1      -2.210   1.693  -0.016  0.00  0.00     0.169 HD
ENDROOT
BRANCH   5  13
ATOM     13  O   UNL d   1      -1.428  -2.394   1.159  0.00  0.00    -0.381 OA
ATOM     14  H   UNL d   1      -1.264  -1.834   1.936  0.00  0.00     0.211 HD
ENDBRANCH   5  13
TORSDOF 1
