REMARK  3 active torsions:
REMARK  status: ('A' for Active; 'I' for Inactive)
REMARK    1  A    between atoms: N_4  and  C_1 
REMARK       I    between atoms: C_2  and  N_4 
REMARK    2  A    between atoms: C_7  and  C_2 
REMARK    3  A    between atoms: S_14  and  C_8 
ROOT
ATOM      1  C   UNL d   1       1.531   2.989  -0.333  0.00  0.00     0.261 C 
ATOM      2  N   UNL d   1       0.395   2.494   0.264  0.00  0.00    -0.302 N 
ATOM      3  O   UNL d   1       1.649   4.037  -0.952  0.00  0.00    -0.267 OA
ATOM      4  H   UNL d   1       0.392   1.561   0.655  0.00  0.00     0.171 HD
ENDROOT
BRANCH   2   5
ATOM      5  C   UNL d   1      -0.834   3.105   0.328  0.00  0.00     0.168 A 
ATOM      6  S   UNL d   1      -1.126   4.697  -0.199  0.00  0.00    -0.026 SA
ATOM      7  C   UNL d   1      -2.735   4.507   0.354  0.00  0.00     0.129 A 
ATOM      8  N   UNL d   1      -2.995   3.319   0.858  0.00  0.00    -0.286 N 
ATOM      9  N   UNL d   1      -1.881   2.503   0.849  0.00  0.00    -0.278 N 
ATOM     10  HN  UNL d   1      -3.909   3.036   1.212  1.00  0.00     0.188 HD
ATOM     11  HN  UNL d   1      -1.872   1.547   1.204  1.00  0.00     0.189 HD
BRANCH   7  12
ATOM     12  S   UNL d   1      -3.925   5.786   0.275  0.00  0.00    -0.108 SA
ATOM     13  C   UNL d   1      -5.189   5.132   1.387  0.00  0.00     0.097 C 
ENDBRANCH   7  12
ENDBRANCH   2   5
BRANCH   1  14
ATOM     14  C   UNL d   1       2.727   2.121  -0.200  0.00  0.00     0.075 A 
ATOM     15  C   UNL d   1       2.724   0.798  -0.670  0.00  0.00     0.051 A 
ATOM     16 CL   UNL d   1       1.342   0.071  -1.416  0.00  0.00    -0.083 Cl
ATOM     17  C   UNL d   1       3.871   0.004  -0.560  0.00  0.00     0.025 A 
ATOM     18  C   UNL d   1       5.036   0.524   0.002  0.00  0.00     0.003 A 
ATOM     19  C   UNL d   1       5.051   1.837   0.465  0.00  0.00     0.025 A 
ATOM     20  C   UNL d   1       3.904   2.636   0.369  0.00  0.00     0.051 A 
ATOM     21 CL   UNL d   1       4.007   4.226   1.041  0.00  0.00    -0.083 Cl
ENDBRANCH   1  14
TORSDOF 3
