REMARK  5 active torsions:
REMARK  status: ('A' for Active; 'I' for Inactive)
REMARK    1  A    between atoms: C_5  and  C_1 
REMARK    2  A    between atoms: N_11  and  C_4 
REMARK       I    between atoms: N_14  and  C_5 
REMARK    3  A    between atoms: N_8  and  N_11 
REMARK    4  A    between atoms: C_10  and  N_8 
REMARK    5  A    between atoms: N_16  and  N_14 
ROOT
ATOM      1  N   UNL d   1       0.107  -2.455   0.042  0.00  0.00    -0.279 N 
ATOM      2  H   UNL d   1      -0.106  -1.995   0.920  0.00  0.00     0.189 HD
ENDROOT
BRANCH   1   3
ATOM      3  N   UNL d   1       1.154  -3.329  -0.006  0.00  0.00    -0.302 N 
ATOM      4  HN  UNL d   1       1.178  -4.062  -0.716  1.00  0.00     0.186 HD
BRANCH   3   5
ATOM      5  C   UNL d   1       2.123  -3.223   0.860  0.00  0.00     0.036 C 
ATOM      6  C   UNL d   1       3.252  -4.207   0.788  0.00  0.00    -0.006 A 
ATOM      7  C   UNL d   1       4.395  -4.037   1.586  0.00  0.00    -0.046 A 
ATOM      8  C   UNL d   1       3.163  -5.304  -0.079  0.00  0.00     0.014 A 
ATOM      9  C   UNL d   1       5.446  -4.962   1.484  0.00  0.00     0.008 A 
ATOM     10  C   UNL d   1       4.527  -2.862   2.513  0.00  0.00     0.040 C 
ATOM     11  C   UNL d   1       5.348  -6.054   0.622  0.00  0.00     0.001 A 
ATOM     12  C   UNL d   1       4.208  -6.228  -0.158  0.00  0.00     0.001 A 
ATOM     13  C   UNL d   1       3.163  -2.461   3.049  0.00  0.00     0.011 C 
ATOM     14  C   UNL d   1       2.212  -2.124   1.911  0.00  0.00     0.060 C 
ENDBRANCH   3   5
ENDBRANCH   1   3
BRANCH   1  15
ATOM     15  C   UNL d   1      -0.990  -2.579  -0.753  0.00  0.00     0.164 A 
ATOM     16  N   UNL d   1      -2.166  -2.101  -0.400  0.00  0.00    -0.331 N 
ATOM     17  C   UNL d   1      -3.134  -2.427  -1.355  0.00  0.00     0.110 A 
ATOM     18  HN  UNL d   1      -2.345  -1.567   0.451  1.00  0.00     0.168 HD
ATOM     19  C   UNL d   1      -2.647  -3.101  -2.457  0.00  0.00     0.088 A 
ATOM     20  S   UNL d   1      -0.968  -3.371  -2.288  0.00  0.00    -0.062 SA
BRANCH  17  21
ATOM     21  C   UNL d   1      -4.544  -2.085  -1.162  0.00  0.00     0.282 C 
ATOM     22  O   UNL d   1      -5.427  -2.344  -1.977  0.00  0.00    -0.265 OA
ATOM     23  N   UNL d   1      -4.786  -1.452   0.053  0.00  0.00    -0.288 N 
ATOM     24  H   UNL d   1      -4.006  -1.383   0.708  0.00  0.00     0.183 HD
BRANCH  23  25
ATOM     25  N   UNL d   1      -6.109  -1.190   0.481  0.00  0.00    -0.247 NA
ATOM     26  H   UNL d   1      -6.739  -1.648  -0.192  0.00  0.00     0.143 HD
ATOM     27  H   UNL d   1      -6.287  -0.191   0.353  0.00  0.00     0.143 HD
ENDBRANCH  23  25
ENDBRANCH  17  21
ENDBRANCH   1  15
TORSDOF 5
