REMARK  5 active torsions:
REMARK  status: ('A' for Active; 'I' for Inactive)
REMARK    1  A    between atoms: C_6  and  N_1 
REMARK    2  A    between atoms: C_11  and  C_6 
REMARK    3  A    between atoms: C_14  and  C_6 
REMARK    4  A    between atoms: O_16  and  C_11 
REMARK    5  A    between atoms: C_17  and  C_14 
ROOT
ATOM      1  N   UNL d   1      -2.223  -0.033  -0.172  0.00  0.00    -0.272 N 
ATOM      2  C   UNL d   1      -1.494   1.092   0.059  0.00  0.00     0.232 C 
ATOM      3  C   UNL d   1      -1.416  -1.133  -0.145  0.00  0.00     0.232 C 
ATOM      4  C   UNL d   1      -0.199   0.726   0.748  0.00  0.00     0.096 C 
ATOM      5  C   UNL d   1      -0.195  -0.797   0.684  0.00  0.00     0.096 C 
ATOM      6  C   UNL d   1       1.007   1.483   0.198  0.00  0.00     0.049 C 
ATOM      7  C   UNL d   1       1.068  -1.513   0.227  0.00  0.00     0.049 C 
ATOM      8  C   UNL d   1       2.108   0.672  -0.431  0.00  0.00    -0.081 C 
ATOM      9  C   UNL d   1       2.132  -0.675  -0.423  0.00  0.00    -0.081 C 
ATOM     10  O   UNL d   1      -1.851   2.211  -0.295  0.00  0.00    -0.272 OA
ATOM     11  O   UNL d   1      -1.649  -2.217  -0.654  0.00  0.00    -0.272 OA
ATOM     12  C   UNL d   1       3.240   1.484  -1.016  0.00  0.00     0.043 C 
ATOM     13  C   UNL d   1       3.280  -1.461  -1.013  0.00  0.00     0.043 C 
ENDROOT
BRANCH   1  14
ATOM     14  C   UNL d   1      -3.611  -0.007  -0.657  0.00  0.00     0.197 C 
BRANCH  14  15
ATOM     15  C   UNL d   1      -3.700   0.205  -2.169  0.00  0.00     0.164 C 
ATOM     16  O   UNL d   1      -4.375  -0.472  -2.930  0.00  0.00    -0.648 OA
BRANCH  15  17
ATOM     17  O   UNL d   1      -3.075   1.334  -2.598  0.00  0.00    -0.775 OA
ATOM     18  H   UNL d   1      -2.684   1.889  -1.882  0.00  0.00     0.167 HD
ENDBRANCH  15  17
ENDBRANCH  14  15
BRANCH  14  19
ATOM     19  C   UNL d   1      -4.462  -1.212  -0.206  0.00  0.00     0.075 C 
BRANCH  19  20
ATOM     20  C   UNL d   1      -4.498  -1.404   1.298  0.00  0.00    -0.056 A 
ATOM     21  C   UNL d   1      -5.023  -0.413   2.140  0.00  0.00     0.007 A 
ATOM     22  C   UNL d   1      -5.057  -0.603   3.523  0.00  0.00     0.001 A 
ATOM     23  C   UNL d   1      -4.578  -1.787   4.079  0.00  0.00     0.000 A 
ATOM     24  C   UNL d   1      -4.064  -2.783   3.252  0.00  0.00     0.001 A 
ATOM     25  C   UNL d   1      -4.023  -2.593   1.869  0.00  0.00     0.007 A 
ENDBRANCH  19  20
ENDBRANCH  14  19
ENDBRANCH   1  14
TORSDOF 5
