REMARK  6 active torsions:
REMARK  status: ('A' for Active; 'I' for Inactive)
REMARK    1  A    between atoms: C_2  and  C_1 
REMARK    2  A    between atoms: O_7  and  C_1 
REMARK    3  A    between atoms: C_9  and  C_2 
REMARK    4  A    between atoms: C_4  and  S_6 
REMARK    5  A    between atoms: C_8  and  C_5 
REMARK    6  A    between atoms: S_6  and  C_9 
ROOT
ATOM      1  C   UNL d   1       1.476  -5.224  -0.821  0.00  0.00     0.045 C 
ATOM      2  C   UNL d   1       1.146  -6.516  -0.970  0.00  0.00     0.018 C 
ENDROOT
BRANCH   1   3
ATOM      3  S   UNL d   1       0.236  -4.024  -0.663  0.00  0.00    -0.141 SA
BRANCH   3   4
ATOM      4  C   UNL d   1       1.117  -2.537  -1.235  0.00  0.00     0.089 C 
BRANCH   4   5
ATOM      5  C   UNL d   1       0.169  -1.347  -1.150  0.00  0.00     0.120 C 
BRANCH   5   6
ATOM      6  C   UNL d   1       0.831  -0.092  -1.652  0.00  0.00     0.140 C 
ATOM      7  O   UNL d   1       1.977  -0.016  -2.067  0.00  0.00    -0.650 OA
BRANCH   6   8
ATOM      8  O   UNL d   1       0.008   0.981  -1.595  0.00  0.00    -0.776 OA
ATOM      9  H   UNL d   1      -0.880   0.782  -1.243  0.00  0.00     0.167 HD
ENDBRANCH   6   8
ENDBRANCH   5   6
ENDBRANCH   4   5
ENDBRANCH   3   4
ENDBRANCH   1   3
BRANCH   2  10
ATOM     10  C   UNL d   1       2.096  -7.633  -1.080  0.00  0.00    -0.036 A 
ATOM     11  C   UNL d   1       3.324  -7.651  -0.404  0.00  0.00     0.011 A 
ATOM     12  C   UNL d   1       4.165  -8.767  -0.485  0.00  0.00     0.001 A 
ATOM     13  C   UNL d   1       3.784  -9.878  -1.233  0.00  0.00     0.000 A 
ATOM     14  C   UNL d   1       2.563  -9.877  -1.902  0.00  0.00     0.001 A 
ATOM     15  C   UNL d   1       1.723  -8.763  -1.822  0.00  0.00     0.011 A 
ENDBRANCH   2  10
TORSDOF 6
