REMARK  7 active torsions:
REMARK  status: ('A' for Active; 'I' for Inactive)
REMARK    1  A    between atoms: C_5  and  C_1 
REMARK    2  A    between atoms: C_2  and  N_4 
REMARK    3  A    between atoms: N_11  and  C_2 
REMARK    4  A    between atoms: N_4  and  C_3 
REMARK    5  A    between atoms: N_7  and  N_11 
REMARK    6  A    between atoms: C_18  and  C_17 
REMARK    7  A    between atoms: O_25  and  C_20 
ROOT
ATOM      1  C   UNL d   1      -1.644   3.673   4.885  0.00  0.00     0.191 C 
ATOM      2  S   UNL d   1      -0.836   2.452   4.086  0.00  0.00    -0.039 SA
ENDROOT
BRANCH   1   3
ATOM      3  N   UNL d   1      -1.750   5.003   4.533  0.00  0.00    -0.331 N 
ATOM      4  H   UNL d   1      -2.593   5.425   4.918  0.00  0.00     0.168 HD
BRANCH   3   5
ATOM      5  C   UNL d   1      -0.926   5.834   3.753  0.00  0.00     0.057 A 
ATOM      6  C   UNL d   1       0.446   5.595   3.638  0.00  0.00     0.047 A 
ATOM      7  C   UNL d   1       1.280   6.478   2.932  0.00  0.00     0.050 A 
ATOM      8  C   UNL d   1       0.709   7.582   2.283  0.00  0.00     0.018 A 
ATOM      9  C   UNL d   1      -0.655   7.847   2.413  0.00  0.00     0.027 A 
ATOM     10  C   UNL d   1      -1.460   6.999   3.178  0.00  0.00     0.060 A 
ATOM     11 CL   UNL d   1      -3.124   7.425   3.387  0.00  0.00    -0.082 Cl
BRANCH   7  12
ATOM     12  C   UNL d   1       2.775   6.271   2.910  0.00  0.00     0.417 C 
ATOM     13  F   UNL d   1       3.203   5.278   3.737  0.00  0.00    -0.166 F 
ATOM     14  F   UNL d   1       3.451   7.389   3.299  0.00  0.00    -0.166 F 
ATOM     15  F   UNL d   1       3.245   5.962   1.672  0.00  0.00    -0.166 F 
ENDBRANCH   7  12
ENDBRANCH   3   5
ENDBRANCH   1   3
BRANCH   1  16
ATOM     16  N   UNL d   1      -2.342   3.381   6.049  0.00  0.00    -0.276 N 
ATOM     17  H   UNL d   1      -2.283   2.446   6.440  0.00  0.00     0.189 HD
BRANCH  16  18
ATOM     18  N   UNL d   1      -2.853   4.413   6.759  0.00  0.00    -0.309 N 
ATOM     19  C   UNL d   1      -3.251   4.192   7.970  0.00  0.00     0.118 C 
ATOM     20  HN  UNL d   1      -2.922   5.344   6.349  1.00  0.00     0.186 HD
BRANCH  19  21
ATOM     21  C   UNL d   1      -3.723   5.343   8.768  0.00  0.00    -0.019 A 
ATOM     22  C   UNL d   1      -3.658   6.624   8.206  0.00  0.00     0.015 A 
ATOM     23  C   UNL d   1      -4.082   7.737   8.932  0.00  0.00     0.037 A 
ATOM     24  C   UNL d   1      -4.574   7.576  10.224  0.00  0.00     0.068 A 
ATOM     25  C   UNL d   1      -4.627   6.294  10.785  0.00  0.00     0.037 A 
ATOM     26  C   UNL d   1      -4.201   5.171  10.064  0.00  0.00     0.015 A 
BRANCH  24  27
ATOM     27  O   UNL d   1      -5.021   8.588  11.027  0.00  0.00    -0.356 OA
ATOM     28  C   UNL d   1      -5.009   9.896  10.460  0.00  0.00     0.210 C 
ENDBRANCH  24  27
ENDBRANCH  19  21
ENDBRANCH  16  18
ENDBRANCH   1  16
TORSDOF 7
