REMARK  4 active torsions:
REMARK  status: ('A' for Active; 'I' for Inactive)
REMARK    1  A    between atoms: C_4  and  C_1 
REMARK       I    between atoms: N_9  and  C_1 
REMARK    2  A    between atoms: C_3  and  C_12 
REMARK    3  A    between atoms: C_14  and  N_9 
REMARK    4  A    between atoms: C_12  and  C_14 
ROOT
ATOM      1  C   UNL d   1       1.068  -0.000  -0.145  0.00  0.00     0.251 C 
ATOM      2  O   UNL d   1       0.420   0.020  -1.183  0.00  0.00    -0.268 OA
ATOM      3  N   UNL d   1       2.446  -0.063  -0.102  0.00  0.00    -0.357 N 
ATOM      4  H   UNL d   1       2.929   0.114   0.767  0.00  0.00     0.162 HD
ENDROOT
BRANCH   1   5
ATOM      5  C   UNL d   1       0.380   0.061   1.177  0.00  0.00     0.032 A 
ATOM      6  C   UNL d   1       0.939  -0.520   2.325  0.00  0.00     0.018 A 
ATOM      7  C   UNL d   1       0.270  -0.439   3.549  0.00  0.00     0.025 A 
ATOM      8  C   UNL d   1      -0.961   0.211   3.626  0.00  0.00     0.034 A 
ATOM      9  C   UNL d   1      -1.538   0.768   2.484  0.00  0.00     0.025 A 
ATOM     10 CL   UNL d   1      -1.775   0.319   5.137  0.00  0.00    -0.084 Cl
ATOM     11  C   UNL d   1      -0.871   0.687   1.258  0.00  0.00     0.018 A 
ENDBRANCH   1   5
BRANCH   3  12
ATOM     12  C   UNL d   1       3.247  -0.235  -1.298  0.00  0.00     0.128 C 
BRANCH  12  13
ATOM     13  C   UNL d   1       3.700   1.092  -1.911  0.00  0.00     0.066 C 
BRANCH  13  14
ATOM     14  C   UNL d   1       4.575   0.854  -3.107  0.00  0.00    -0.016 A 
ATOM     15  S   UNL d   1       6.271   0.690  -2.924  0.00  0.00    -0.106 SA
ATOM     16  C   UNL d   1       6.487   0.399  -4.595  0.00  0.00     0.050 A 
ATOM     17  C   UNL d   1       5.297   0.444  -5.285  0.00  0.00     0.008 A 
ATOM     18  C   UNL d   1       4.192   0.713  -4.426  0.00  0.00     0.015 A 
ENDBRANCH  13  14
ENDBRANCH  12  13
ENDBRANCH   3  12
TORSDOF 4
