REMARK  2 active torsions:
REMARK  status: ('A' for Active; 'I' for Inactive)
REMARK    1  A    between atoms: C_6  and  N_1 
REMARK    2  A    between atoms: N_7  and  C_6 
ROOT
ATOM      1  N   UNL d   1       1.797   0.155  -0.187  0.00  0.00    -0.252 N 
ATOM      2  C   UNL d   1       1.032   0.232  -1.321  0.00  0.00     0.263 A 
ATOM      3  C   UNL d   1       1.020   0.023   0.932  0.00  0.00     0.263 A 
ATOM      4  C   UNL d   1      -0.364   0.252  -0.883  0.00  0.00     0.048 A 
ATOM      5  C   UNL d   1      -0.372   0.119   0.493  0.00  0.00     0.048 A 
ATOM      6  O   UNL d   1       1.352  -0.157   2.088  0.00  0.00    -0.267 OA
ATOM      7  O   UNL d   1       1.376   0.255  -2.485  0.00  0.00    -0.267 OA
ATOM      8  C   UNL d   1      -1.550   0.081   1.217  0.00  0.00     0.018 A 
ATOM      9  C   UNL d   1      -1.530   0.361  -1.614  0.00  0.00     0.018 A 
ATOM     10  C   UNL d   1      -2.736   0.330  -0.904  0.00  0.00     0.001 A 
ATOM     11  C   UNL d   1      -2.746   0.190   0.499  0.00  0.00     0.001 A 
ENDROOT
BRANCH   1  12
ATOM     12  C   UNL d   1       3.242   0.047  -0.188  0.00  0.00     0.408 C 
BRANCH  12  13
ATOM     13  N   UNL d   1       3.935   1.345  -0.075  0.00  0.00     0.107 N 
ATOM     14  C   UNL d   1       3.619   2.034   1.188  0.00  0.00     0.284 C 
ATOM     15  C   UNL d   1       4.346   3.364   1.423  0.00  0.00     0.104 C 
ATOM     16  S   UNL d   1       3.994   4.567   0.110  0.00  0.00    -0.166 SA
ATOM     17  C   UNL d   1       4.513   3.514  -1.274  0.00  0.00     0.104 C 
ATOM     18  C   UNL d   1       3.770   2.171  -1.282  0.00  0.00     0.284 C 
ENDBRANCH  12  13
ENDBRANCH   1  12
TORSDOF 2
