REMARK  4 active torsions:
REMARK  status: ('A' for Active; 'I' for Inactive)
REMARK    1  A    between atoms: C_2  and  C_1 
REMARK    2  A    between atoms: C_3  and  C_2 
REMARK    3  A    between atoms: N_8  and  N_4 
REMARK    4  A    between atoms: C_11  and  N_8 
ROOT
ATOM      1  C   UNL d   1       0.925  -0.067   0.054  0.00  0.00     0.175 C 
ATOM      2  N   UNL d   1       0.261   1.048  -0.084  0.00  0.00    -0.304 N 
ATOM      3  HN  UNL d   1       0.750   1.928  -0.248  1.00  0.00     0.182 HD
ATOM      4  C   UNL d   1       0.203  -1.316   0.139  0.00  0.00     0.123 C 
ATOM      5  N   UNL d   1      -0.384  -2.316   0.224  0.00  0.00    -0.190 NA
ENDROOT
BRANCH   1   6
ATOM      6  C   UNL d   1       2.423  -0.032   0.076  0.00  0.00     0.222 C 
ATOM      7  O   UNL d   1       3.021  -0.905  -0.544  0.00  0.00    -0.284 OA
BRANCH   6   8
ATOM      8  C   UNL d   1       3.169   1.054   0.757  0.00  0.00     0.039 A 
ATOM      9  C   UNL d   1       2.751   1.700   1.928  0.00  0.00     0.048 A 
ATOM     10 CL   UNL d   1       1.385   1.200   2.861  0.00  0.00    -0.083 Cl
ATOM     11  C   UNL d   1       3.515   2.751   2.454  0.00  0.00     0.025 A 
ATOM     12  C   UNL d   1       4.713   3.131   1.848  0.00  0.00     0.002 A 
ATOM     13  C   UNL d   1       5.162   2.457   0.717  0.00  0.00     0.001 A 
ATOM     14  C   UNL d   1       4.393   1.427   0.172  0.00  0.00     0.017 A 
ENDBRANCH   6   8
ENDBRANCH   1   6
BRANCH   2  15
ATOM     15  N   UNL d   1      -1.105   1.011  -0.003  0.00  0.00    -0.205 NA
ATOM     16  H   UNL d   1      -1.496   0.728   0.902  0.00  0.00     0.153 HD
BRANCH  15  17
ATOM     17  C   UNL d   1      -1.779   2.157  -0.494  0.00  0.00     0.027 A 
ATOM     18  C   UNL d   1      -1.273   2.881  -1.586  0.00  0.00     0.028 A 
ATOM     19  C   UNL d   1      -1.972   3.972  -2.107  0.00  0.00     0.044 A 
ATOM     20  C   UNL d   1      -3.188   4.332  -1.544  0.00  0.00     0.116 A 
ATOM     21  C   UNL d   1      -3.724   3.616  -0.481  0.00  0.00     0.044 A 
ATOM     22  F   UNL d   1      -3.860   5.378  -2.041  0.00  0.00    -0.206 F 
ATOM     23  C   UNL d   1      -3.026   2.519   0.031  0.00  0.00     0.028 A 
ENDBRANCH  15  17
ENDBRANCH   2  15
TORSDOF 4
