REMARK  3 active torsions:
REMARK  status: ('A' for Active; 'I' for Inactive)
REMARK    1  A    between atoms: C_13  and  C_1 
REMARK    2  A    between atoms: C_6  and  C_4 
REMARK    3  A    between atoms: C_8  and  C_11 
ROOT
ATOM      1  C   UNL d   1       0.068  -0.542  -1.327  0.00  0.00     0.097 C 
ATOM      2  C   UNL d   1       0.457   0.927  -1.087  0.00  0.00     0.037 C 
ATOM      3  C   UNL d   1      -0.492  -0.969   0.041  0.00  0.00     0.037 A 
ATOM      4  C   UNL d   1       1.881  -0.741  -0.141  0.00  0.00     0.133 C 
ATOM      5  C   UNL d   1       1.761   0.776  -0.251  0.00  0.00     0.027 C 
ATOM      6  C   UNL d   1       0.805  -1.114   0.876  0.00  0.00     0.028 A 
ATOM      7  C   UNL d   1      -0.842   0.308   0.831  0.00  0.00     0.003 A 
ATOM      8  C   UNL d   1       0.458   0.157   1.662  0.00  0.00     0.002 A 
ATOM      9  O   UNL d   1       1.355  -1.196  -1.388  0.00  0.00    -0.368 OA
ATOM     10  C   UNL d   1      -0.536   1.518  -0.070  0.00  0.00    -0.001 C 
ATOM     11  C   UNL d   1       1.341   1.299   1.132  0.00  0.00    -0.002 C 
ATOM     12  C   UNL d   1       0.338   2.401   0.812  0.00  0.00     0.011 C 
ENDROOT
BRANCH   1  13
ATOM     13  C   UNL d   1      -0.828  -0.889  -2.482  0.00  0.00    -0.023 A 
ATOM     14  C   UNL d   1      -0.682  -2.123  -3.137  0.00  0.00     0.010 A 
ATOM     15  C   UNL d   1      -1.462  -2.451  -4.249  0.00  0.00     0.001 A 
ATOM     16  C   UNL d   1      -2.414  -1.553  -4.719  0.00  0.00     0.000 A 
ATOM     17  C   UNL d   1      -2.594  -0.336  -4.069  0.00  0.00     0.001 A 
ATOM     18  C   UNL d   1      -1.811  -0.008  -2.957  0.00  0.00     0.010 A 
ENDBRANCH   1  13
TORSDOF 3
