REMARK  5 active torsions:
REMARK  status: ('A' for Active; 'I' for Inactive)
REMARK    1  A    between atoms: C_2  and  C_1 
REMARK       I    between atoms: N_4  and  C_1 
REMARK    2  A    between atoms: C_3  and  C_7 
REMARK    3  A    between atoms: C_8  and  N_5 
REMARK    4  A    between atoms: C_11  and  C_6 
REMARK    5  A    between atoms: O_26  and  C_11 
ROOT
ATOM      1  C   UNL d   1       1.048  -0.066  -0.007  0.00  0.00     0.225 C 
ATOM      2  N   UNL d   1       0.420  -1.225  -0.440  0.00  0.00    -0.349 N 
ATOM      3  N   UNL d   1      -0.241  -3.587  -1.829  0.00  0.00    -0.364 N 
ATOM      4  O   UNL d   1       2.138  -0.102   0.583  0.00  0.00    -0.273 OA
ATOM      5  C   UNL d   1       0.899  -2.533   0.041  0.00  0.00     0.145 C 
ATOM      6  C   UNL d   1      -0.788  -1.283  -1.291  0.00  0.00     0.145 C 
ATOM      7  C   UNL d   1       1.036  -3.544  -1.108  0.00  0.00     0.144 C 
ATOM      8  C   UNL d   1      -0.633  -2.316  -2.437  0.00  0.00     0.144 C 
ENDROOT
BRANCH   3   9
ATOM      9  C   UNL d   1      -0.724  -4.773  -2.330  0.00  0.00     0.103 A 
ATOM     10  N   UNL d   1      -1.175  -4.833  -3.599  0.00  0.00    -0.352 N 
ATOM     11  C   UNL d   1      -1.704  -6.003  -4.040  0.00  0.00     0.106 A 
ATOM     12  HN  UNL d   1      -1.120  -4.020  -4.213  1.00  0.00     0.166 HD
ATOM     13  C   UNL d   1      -1.847  -7.137  -3.258  0.00  0.00     0.063 A 
ATOM     14  C   UNL d   1      -1.401  -7.057  -1.941  0.00  0.00     0.021 A 
ATOM     15  C   UNL d   1      -0.831  -5.876  -1.482  0.00  0.00     0.049 A 
BRANCH  13  16
ATOM     16  C   UNL d   1      -2.470  -8.386  -3.791  0.00  0.00     0.418 C 
ATOM     17  F   UNL d   1      -2.807  -8.314  -5.108  0.00  0.00    -0.166 F 
ATOM     18  F   UNL d   1      -1.648  -9.466  -3.675  0.00  0.00    -0.166 F 
ATOM     19  F   UNL d   1      -3.613  -8.718  -3.130  0.00  0.00    -0.166 F 
ENDBRANCH  13  16
ENDBRANCH   3   9
BRANCH   1  20
ATOM     20  C   UNL d   1       0.341   1.278  -0.275  0.00  0.00     0.092 C 
ATOM     21  C   UNL d   1       1.111   2.561   0.189  0.00  0.00     0.096 C 
ATOM     22  C   UNL d   1      -0.272   3.150   0.563  0.00  0.00     0.017 C 
ATOM     23  C   UNL d   1      -0.782   1.706   0.702  0.00  0.00     0.016 C 
BRANCH  21  24
ATOM     24  C   UNL d   1       1.952   3.250  -0.908  0.00  0.00     0.144 C 
ATOM     25  O   UNL d   1       1.566   4.133  -1.663  0.00  0.00    -0.650 OA
BRANCH  24  26
ATOM     26  O   UNL d   1       3.218   2.761  -0.999  0.00  0.00    -0.776 OA
ATOM     27  H   UNL d   1       3.391   2.031  -0.369  0.00  0.00     0.167 HD
ENDBRANCH  24  26
ENDBRANCH  21  24
ENDBRANCH   1  20
TORSDOF 5
