REMARK  2 active torsions:
REMARK  status: ('A' for Active; 'I' for Inactive)
REMARK       I    between atoms: C_2  and  N_1 
REMARK       I    between atoms: C_3  and  N_1 
REMARK       I    between atoms: N_4  and  C_2 
REMARK    1  A    between atoms: C_5  and  C_3 
REMARK    2  A    between atoms: C_6  and  N_4 
ROOT
ATOM      1  N   UNL d   1       1.183   0.111   0.056  0.00  0.00    -0.275 N 
ATOM      2  C   UNL d   1       0.365   0.062   1.161  0.00  0.00     0.327 C 
ATOM      3  C   UNL d   1       2.544   0.341   0.002  0.00  0.00     0.259 C 
ATOM      4  N   UNL d   1       1.006  -0.002   2.373  0.00  0.00    -0.306 N 
ATOM      5  O   UNL d   1      -0.845   0.125   0.965  0.00  0.00    -0.247 OA
ATOM      6  O   UNL d   1       3.268   0.424   0.990  0.00  0.00    -0.267 OA
ATOM      7  H   UNL d   1       0.644   0.078  -0.795  0.00  0.00     0.173 HD
ATOM      8  H   UNL d   1       1.993   0.249   2.344  0.00  0.00     0.171 HD
ENDROOT
BRANCH   3   9
ATOM      9  C   UNL d   1       3.131   0.431  -1.361  0.00  0.00     0.034 A 
ATOM     10  C   UNL d   1       4.408  -0.113  -1.558  0.00  0.00     0.044 A 
ATOM     11  C   UNL d   1       4.989  -0.071  -2.824  0.00  0.00     0.073 A 
ATOM     12 CL   UNL d   1       6.546  -0.766  -3.061  0.00  0.00    -0.081 Cl
ATOM     13  C   UNL d   1       4.306   0.522  -3.885  0.00  0.00     0.138 A 
ATOM     14  C   UNL d   1       3.047   1.084  -3.692  0.00  0.00     0.045 A 
ATOM     15  F   UNL d   1       4.849   0.569  -5.110  0.00  0.00    -0.204 F 
ATOM     16  C   UNL d   1       2.453   1.041  -2.427  0.00  0.00     0.020 A 
ENDBRANCH   3   9
BRANCH   4  17
ATOM     17  C   UNL d   1       0.392  -0.108   3.638  0.00  0.00     0.075 A 
ATOM     18  C   UNL d   1      -0.891  -0.633   3.856  0.00  0.00     0.146 A 
ATOM     19  C   UNL d   1      -1.468  -0.628   5.123  0.00  0.00     0.086 A 
ATOM     20  F   UNL d   1      -1.578  -1.236   2.877  0.00  0.00    -0.204 F 
ATOM     21  C   UNL d   1      -0.747  -0.121   6.192  0.00  0.00     0.119 A 
ATOM     22  C   UNL d   1       0.552   0.345   6.020  0.00  0.00     0.044 A 
ATOM     23  F   UNL d   1      -1.302  -0.094   7.410  0.00  0.00    -0.206 F 
ATOM     24  C   UNL d   1       1.127   0.340   4.745  0.00  0.00     0.036 A 
ENDBRANCH   4  17
TORSDOF 2
