REMARK  2 active torsions:
REMARK  status: ('A' for Active; 'I' for Inactive)
REMARK       I    between atoms: N_2  and  C_1 
REMARK    1  A    between atoms: C_3  and  C_1 
REMARK       I    between atoms: C_4  and  N_2 
REMARK       I    between atoms: N_6  and  C_4 
REMARK    2  A    between atoms: C_8  and  N_6 
ROOT
ATOM      1  C   UNL d   1       4.190  -2.001  -0.265  0.00  0.00    -0.086 C 
ATOM      2  C   UNL d   1       4.886  -2.653  -0.996  0.00  0.00     0.015 C 
ATOM      3  C   UNL d   1       3.298  -1.152   0.561  0.00  0.00     0.097 C 
ATOM      4  C   UNL d   1       4.036  -0.631   1.817  0.00  0.00     0.044 C 
ATOM      5  C   UNL d   1       2.903   0.069  -0.317  0.00  0.00     0.044 C 
ATOM      6  C   UNL d   1       3.214   0.406   2.586  0.00  0.00     0.004 C 
ATOM      7  C   UNL d   1       2.128   1.148   0.438  0.00  0.00     0.004 C 
ATOM      8  C   UNL d   1       2.858   1.593   1.699  0.00  0.00     0.000 C 
ENDROOT
BRANCH   3   9
ATOM      9  N   UNL d   1       2.095  -1.923   0.883  0.00  0.00    -0.323 N 
ATOM     10  C   UNL d   1       2.040  -3.001   1.719  0.00  0.00     0.324 C 
ATOM     11  N   UNL d   1       0.831  -3.660   1.764  0.00  0.00    -0.275 N 
ATOM     12  O   UNL d   1       2.953  -3.390   2.440  0.00  0.00    -0.247 OA
ATOM     13  C   UNL d   1      -0.319  -3.412   1.029  0.00  0.00     0.265 C 
ATOM     14  H   UNL d   1       0.835  -4.406   2.446  0.00  0.00     0.173 HD
ATOM     15  O   UNL d   1      -0.342  -2.621   0.088  0.00  0.00    -0.267 OA
ATOM     16  H   UNL d   1       1.352  -1.909   0.188  0.00  0.00     0.166 HD
BRANCH  13  17
ATOM     17  C   UNL d   1      -1.542  -4.167   1.401  0.00  0.00     0.109 A 
ATOM     18  C   UNL d   1      -2.790  -3.701   0.978  0.00  0.00     0.135 A 
ATOM     19  F   UNL d   1      -2.912  -2.567   0.276  0.00  0.00    -0.205 F 
ATOM     20  C   UNL d   1      -3.965  -4.385   1.301  0.00  0.00     0.043 A 
ATOM     21  C   UNL d   1      -3.909  -5.556   2.054  0.00  0.00     0.006 A 
ATOM     22  C   UNL d   1      -2.673  -6.033   2.486  0.00  0.00     0.043 A 
ATOM     23  C   UNL d   1      -1.505  -5.338   2.159  0.00  0.00     0.135 A 
ATOM     24  F   UNL d   1      -0.338  -5.833   2.599  0.00  0.00    -0.205 F 
ENDBRANCH  13  17
ENDBRANCH   3   9
TORSDOF 2
