REMARK  4 active torsions:
REMARK  status: ('A' for Active; 'I' for Inactive)
REMARK    1  A    between atoms: N_7  and  S_1 
REMARK    2  A    between atoms: C_15  and  S_1 
REMARK    3  A    between atoms: N_10  and  N_7 
REMARK    4  A    between atoms: C_9  and  N_10 
ROOT
ATOM      1  N   UNL d   1       0.904   2.562   0.575  0.00  0.00    -0.275 N 
ATOM      2  H   UNL d   1       1.744   2.368   1.115  0.00  0.00     0.189 HD
ENDROOT
BRANCH   1   3
ATOM      3  C   UNL d   1       0.392   3.857   0.593  0.00  0.00     0.137 A 
ATOM      4  C   UNL d   1       0.953   4.874   1.376  0.00  0.00     0.072 A 
ATOM      5  C   UNL d   1       0.367   6.127   1.317  0.00  0.00     0.138 A 
ATOM      6  C   UNL d   1       2.018   5.030   2.288  0.00  0.00     0.126 A 
ATOM      7  N   UNL d   1       1.093   6.922   2.165  0.00  0.00    -0.281 N 
ATOM      8  N   UNL d   1      -0.697   6.478   0.576  0.00  0.00    -0.337 N 
ATOM      9  C   UNL d   1       0.872   8.317   2.454  0.00  0.00     0.179 C 
ATOM     10  N   UNL d   1       2.112   6.272   2.774  0.00  0.00    -0.307 N 
ATOM     11  HN  UNL d   1       2.789   6.642   3.442  1.00  0.00     0.186 HD
ATOM     12  C   UNL d   1      -1.163   5.435  -0.133  0.00  0.00     0.183 A 
ATOM     13  HN  UNL d   1      -1.100   7.414   0.554  1.00  0.00     0.168 HD
ATOM     14  N   UNL d   1      -0.697   4.168  -0.164  0.00  0.00    -0.337 N 
ATOM     15  HN  UNL d   1      -1.151   3.459  -0.741  1.00  0.00     0.168 HD
ENDBRANCH   1   3
BRANCH   1  16
ATOM     16  N   UNL d   1       0.318   1.433  -0.148  0.00  0.00    -0.221 N 
ATOM     17  H   UNL d   1      -0.549   1.556  -0.675  0.00  0.00     0.200 HD
BRANCH  16  18
ATOM     18  S   UNL d   1       1.035  -0.088   0.016  0.00  0.00     0.276 S 
ATOM     19  O   UNL d   1       0.852  -0.505   1.392  0.00  0.00    -0.199 OA
ATOM     20  O   UNL d   1       2.368  -0.000  -0.546  0.00  0.00    -0.199 OA
BRANCH  18  21
ATOM     21  C   UNL d   1       0.060  -1.147  -1.018  0.00  0.00     0.081 A 
ATOM     22  C   UNL d   1       0.466  -1.393  -2.333  0.00  0.00     0.026 A 
ATOM     23  C   UNL d   1      -0.206  -2.352  -3.095  0.00  0.00     0.008 A 
ATOM     24  C   UNL d   1      -1.275  -3.076  -2.549  0.00  0.00    -0.062 A 
ATOM     25  C   UNL d   1      -1.677  -2.813  -1.233  0.00  0.00     0.008 A 
ATOM     26  C   UNL d   1      -1.949  -4.145  -3.361  0.00  0.00     0.048 C 
ATOM     27  C   UNL d   1      -1.010  -1.855  -0.465  0.00  0.00     0.026 A 
ENDBRANCH  18  21
ENDBRANCH  16  18
ENDBRANCH   1  16
TORSDOF 4
