REMARK  5 active torsions:
REMARK  status: ('A' for Active; 'I' for Inactive)
REMARK    1  A    between atoms: C_8  and  N_1 
REMARK    2  A    between atoms: C_4  and  C_3 
REMARK    3  A    between atoms: C_7  and  C_4 
REMARK    4  A    between atoms: O_21  and  C_10 
REMARK    5  A    between atoms: O_24  and  C_16 
ROOT
ATOM      1  N   UNL d   1      -1.907  -0.896  -0.074  0.00  0.00    -0.297 N 
ATOM      2  C   UNL d   1      -1.525   0.430  -0.285  0.00  0.00     0.260 C 
ATOM      3  C   UNL d   1      -0.732  -1.779   0.029  0.00  0.00     0.202 C 
ATOM      4  C   UNL d   1       0.410  -0.796   0.080  0.00  0.00    -0.012 A 
ATOM      5  C   UNL d   1      -0.070   0.485  -0.161  0.00  0.00     0.041 A 
ATOM      6  O   UNL d   1      -2.190   1.437  -0.466  0.00  0.00    -0.267 OA
ATOM      7  C   UNL d   1       1.765  -0.987   0.310  0.00  0.00     0.011 A 
ATOM      8  C   UNL d   1       0.749   1.602  -0.202  0.00  0.00     0.017 A 
ATOM      9  C   UNL d   1       2.615   0.125   0.270  0.00  0.00     0.001 A 
ATOM     10  C   UNL d   1       2.112   1.410   0.011  0.00  0.00     0.001 A 
ENDROOT
BRANCH   3  11
ATOM     11  C   UNL d   1      -0.630  -2.671  -1.228  0.00  0.00     0.190 C 
ATOM     12  O   UNL d   1      -1.306  -2.484  -2.244  0.00  0.00    -0.290 OA
BRANCH  11  13
ATOM     13  C   UNL d   1       0.382  -3.766  -1.297  0.00  0.00     0.048 A 
ATOM     14  C   UNL d   1       0.782  -4.247  -2.554  0.00  0.00     0.079 A 
ATOM     15  C   UNL d   1       1.737  -5.253  -2.662  0.00  0.00     0.040 A 
ATOM     16  C   UNL d   1       2.327  -5.768  -1.510  0.00  0.00     0.039 A 
ATOM     17  C   UNL d   1       1.961  -5.289  -0.251  0.00  0.00     0.069 A 
ATOM     18  C   UNL d   1       0.964  -4.314  -0.142  0.00  0.00     0.054 A 
BRANCH  14  19
ATOM     19  O   UNL d   1       0.291  -3.766  -3.739  0.00  0.00    -0.360 OA
ATOM     20  H   UNL d   1      -0.450  -3.149  -3.538  0.00  0.00     0.217 HD
ENDBRANCH  14  19
BRANCH  17  21
ATOM     21  O   UNL d   1       2.654  -5.844   0.790  0.00  0.00    -0.356 OA
ATOM     22  C   UNL d   1       2.458  -5.281   2.081  0.00  0.00     0.210 C 
ENDBRANCH  17  21
ENDBRANCH  11  13
ENDBRANCH   3  11
BRANCH   1  23
ATOM     23  C   UNL d   1      -3.246  -1.375  -0.078  0.00  0.00     0.038 A 
ATOM     24  C   UNL d   1      -4.278  -0.631  -0.663  0.00  0.00     0.030 A 
ATOM     25  C   UNL d   1      -5.593  -1.108  -0.694  0.00  0.00     0.009 A 
ATOM     26  C   UNL d   1      -5.916  -2.336  -0.115  0.00  0.00    -0.062 A 
ATOM     27  C   UNL d   1      -4.897  -3.085   0.478  0.00  0.00     0.009 A 
ATOM     28  C   UNL d   1      -7.327  -2.840  -0.166  0.00  0.00     0.048 C 
ATOM     29  C   UNL d   1      -3.576  -2.615   0.487  0.00  0.00     0.030 A 
ENDBRANCH   1  23
TORSDOF 5
