REMARK  6 active torsions:
REMARK  status: ('A' for Active; 'I' for Inactive)
REMARK    1  A    between atoms: N_2  and  S_1 
REMARK    2  A    between atoms: C_13  and  S_1 
REMARK       I    between atoms: N_7  and  C_4 
REMARK       I    between atoms: N_8  and  C_4 
REMARK       I    between atoms: C_5  and  N_9 
REMARK    3  A    between atoms: C_14  and  C_5 
REMARK       I    between atoms: C_6  and  N_10 
REMARK    4  A    between atoms: C_15  and  C_6 
REMARK    5  A    between atoms: N_10  and  N_7 
REMARK    6  A    between atoms: N_9  and  N_8 
ROOT
ATOM      1  N   UNL d   1       0.495  -0.949  -1.420  0.00  0.00    -0.258 N 
ATOM      2  HN  UNL d   1      -0.107  -1.772  -1.453  1.00  0.00     0.181 HD
ATOM      3  C   UNL d   1       0.869  -0.398  -2.536  0.00  0.00     0.177 C 
ATOM      4  N   UNL d   1       1.601   0.771  -2.685  0.00  0.00    -0.175 NA
ATOM      5  N   UNL d   1       0.491  -0.965  -3.746  0.00  0.00    -0.175 NA
ATOM      6  H   UNL d   1       2.607   0.650  -2.497  0.00  0.00     0.155 HD
ATOM      7  H   UNL d   1       1.105  -0.692  -4.521  0.00  0.00     0.155 HD
ENDROOT
BRANCH   1   8
ATOM      8  S   UNL d   1       0.956  -0.370   0.021  0.00  0.00     0.264 S 
ATOM      9  O   UNL d   1       2.409  -0.342   0.052  0.00  0.00    -0.200 OA
ATOM     10  O   UNL d   1       0.226  -1.086   1.049  0.00  0.00    -0.200 OA
BRANCH   8  11
ATOM     11  C   UNL d   1       0.397   1.323   0.134  0.00  0.00     0.079 A 
ATOM     12  C   UNL d   1      -0.947   1.625  -0.102  0.00  0.00     0.025 A 
ATOM     13  C   UNL d   1      -1.371   2.955  -0.025  0.00  0.00     0.002 A 
ATOM     14  C   UNL d   1      -0.459   3.967   0.289  0.00  0.00     0.000 A 
ATOM     15  C   UNL d   1       0.876   3.654   0.545  0.00  0.00     0.002 A 
ATOM     16  C   UNL d   1       1.308   2.330   0.472  0.00  0.00     0.025 A 
ENDBRANCH   8  11
ENDBRANCH   1   8
BRANCH   4  17
ATOM     17  N   UNL d   1       1.406   1.487  -3.900  0.00  0.00    -0.281 N 
ATOM     18  C   UNL d   1       2.498   2.187  -4.389  0.00  0.00     0.266 C 
ATOM     19  O   UNL d   1       3.629   2.052  -3.933  0.00  0.00    -0.266 OA
ATOM     20  H   UNL d   1       0.467   1.861  -4.019  0.00  0.00     0.184 HD
BRANCH  18  21
ATOM     21  C   UNL d   1       2.220   3.147  -5.495  0.00  0.00     0.035 A 
ATOM     22  C   UNL d   1       3.055   4.264  -5.638  0.00  0.00     0.041 A 
ATOM     23  C   UNL d   1       2.824   5.173  -6.672  0.00  0.00     0.035 A 
ATOM     24 CL   UNL d   1       3.838   6.553  -6.843  0.00  0.00    -0.084 Cl
ATOM     25  C   UNL d   1       1.777   4.975  -7.571  0.00  0.00     0.024 A 
ATOM     26  C   UNL d   1       0.953   3.857  -7.440  0.00  0.00     0.003 A 
ATOM     27  C   UNL d   1       1.173   2.943  -6.405  0.00  0.00     0.017 A 
ENDBRANCH  18  21
ENDBRANCH   4  17
BRANCH   5  28
ATOM     28  N   UNL d   1       0.295  -2.366  -3.728  0.00  0.00    -0.281 N 
ATOM     29  C   UNL d   1       0.749  -3.075  -4.826  0.00  0.00     0.266 C 
ATOM     30  O   UNL d   1       1.266  -2.506  -5.787  0.00  0.00    -0.266 OA
ATOM     31  H   UNL d   1      -0.172  -2.738  -2.907  0.00  0.00     0.184 HD
BRANCH  29  32
ATOM     32  C   UNL d   1       0.590  -4.563  -4.826  0.00  0.00     0.035 A 
ATOM     33  C   UNL d   1       0.805  -5.246  -6.034  0.00  0.00     0.041 A 
ATOM     34  C   UNL d   1       0.696  -6.635  -6.088  0.00  0.00     0.035 A 
ATOM     35 CL   UNL d   1       0.970  -7.462  -7.573  0.00  0.00    -0.084 Cl
ATOM     36  C   UNL d   1       0.370  -7.363  -4.945  0.00  0.00     0.024 A 
ATOM     37  C   UNL d   1       0.158  -6.695  -3.740  0.00  0.00     0.003 A 
ATOM     38  C   UNL d   1       0.270  -5.299  -3.676  0.00  0.00     0.017 A 
ENDBRANCH  29  32
ENDBRANCH   5  28
TORSDOF 6
