REMARK  5 active torsions:
REMARK  status: ('A' for Active; 'I' for Inactive)
REMARK    1  A    between atoms: C_2  and  C_1 
REMARK    2  A    between atoms: S_3  and  C_1 
REMARK    3  A    between atoms: C_6  and  C_1 
REMARK    4  A    between atoms: C_5  and  C_2 
REMARK    5  A    between atoms: C_7  and  S_3 
ROOT
ATOM      1  C   UNL d   1       1.077   0.106   0.056  0.00  0.00     0.160 C 
ENDROOT
BRANCH   1   2
ATOM      2  C   UNL d   1       0.654  -0.580   1.366  0.00  0.00     0.178 C 
ATOM      3  O   UNL d   1       0.517   0.016   2.436  0.00  0.00    -0.291 OA
BRANCH   2   4
ATOM      4  C   UNL d   1       0.394  -2.052   1.360  0.00  0.00     0.011 A 
ATOM      5  C   UNL d   1       0.999  -2.924   0.449  0.00  0.00     0.015 A 
ATOM      6  C   UNL d   1       0.728  -4.296   0.511  0.00  0.00     0.001 A 
ATOM      7  C   UNL d   1      -0.139  -4.801   1.480  0.00  0.00     0.000 A 
ATOM      8  C   UNL d   1      -0.737  -3.939   2.396  0.00  0.00     0.001 A 
ATOM      9  C   UNL d   1      -0.469  -2.570   2.339  0.00  0.00     0.015 A 
ENDBRANCH   2   4
ENDBRANCH   1   2
BRANCH   1  10
ATOM     10  S   UNL d   1       0.353   1.816  -0.057  0.00  0.00    -0.112 SA
BRANCH  10  11
ATOM     11  C   UNL d   1      -1.383   1.445  -0.041  0.00  0.00     0.001 A 
ATOM     12  C   UNL d   1      -2.091   1.485   1.164  0.00  0.00     0.020 A 
ATOM     13  C   UNL d   1      -3.461   1.221   1.187  0.00  0.00     0.025 A 
ATOM     14  C   UNL d   1      -4.127   0.934  -0.003  0.00  0.00     0.034 A 
ATOM     15  C   UNL d   1      -3.435   0.916  -1.213  0.00  0.00     0.025 A 
ATOM     16 CL   UNL d   1      -5.815   0.605   0.022  0.00  0.00    -0.084 Cl
ATOM     17  C   UNL d   1      -2.062   1.175  -1.233  0.00  0.00     0.020 A 
ENDBRANCH  10  11
ENDBRANCH   1  10
BRANCH   1  18
ATOM     18  C   UNL d   1       2.587   0.241  -0.102  0.00  0.00    -0.036 A 
ATOM     19  C   UNL d   1       3.156   0.229  -1.388  0.00  0.00     0.009 A 
ATOM     20  C   UNL d   1       4.513   0.505  -1.570  0.00  0.00     0.001 A 
ATOM     21  C   UNL d   1       5.321   0.789  -0.472  0.00  0.00     0.000 A 
ATOM     22  C   UNL d   1       4.779   0.783   0.810  0.00  0.00     0.001 A 
ATOM     23  C   UNL d   1       3.422   0.512   0.995  0.00  0.00     0.009 A 
ENDBRANCH   1  18
TORSDOF 5
