REMARK  9 active torsions:
REMARK  status: ('A' for Active; 'I' for Inactive)
REMARK    1  A    between atoms: C_7  and  C_1 
REMARK    2  A    between atoms: C_3  and  C_2 
REMARK    3  A    between atoms: N_11  and  C_6 
REMARK    4  A    between atoms: O_17  and  C_7 
REMARK    5  A    between atoms: C_16  and  N_11 
REMARK    6  A    between atoms: C_23  and  O_17 
REMARK    7  A    between atoms: C_24  and  C_18 
REMARK    8  A    between atoms: C_25  and  C_24 
REMARK    9  A    between atoms: C_26  and  C_25 
ROOT
ATOM      1  C   UNL d   1       0.273  -1.450   0.758  0.00  0.00     0.087 A 
ATOM      2  C   UNL d   1       1.406  -0.669   0.643  0.00  0.00     0.150 A 
ATOM      3  N   UNL d   1       1.317   0.659   0.299  0.00  0.00    -0.185 N 
ATOM      4  HN  UNL d   1       2.161   1.213   0.154  1.00  0.00     0.184 HD
ATOM      5  C   UNL d   1       0.107   1.215   0.157  0.00  0.00     0.683 A 
ATOM      6  N   UNL d   1      -1.025   0.516   0.290  0.00  0.00    -0.201 N 
ATOM      7  HN  UNL d   1      -1.936   0.962   0.179  1.00  0.00     0.183 HD
ATOM      8  C   UNL d   1      -0.924  -0.794   0.574  0.00  0.00     0.126 A 
ENDROOT
BRANCH   5   9
ATOM      9  N   UNL d   1       0.060   2.561  -0.170  0.00  0.00    -0.192 N 
ATOM     10  H   UNL d   1       0.967   2.943  -0.385  0.00  0.00     0.184 HD
BRANCH   9  11
ATOM     11  C   UNL d   1      -0.984   3.475   0.027  0.00  0.00     0.049 A 
ATOM     12  C   UNL d   1      -1.913   3.327   1.065  0.00  0.00     0.030 A 
ATOM     13  C   UNL d   1      -3.014   4.180   1.181  0.00  0.00     0.009 A 
ATOM     14  C   UNL d   1      -3.225   5.186   0.235  0.00  0.00    -0.058 A 
ATOM     15  C   UNL d   1      -2.283   5.365  -0.782  0.00  0.00     0.009 A 
ATOM     16  C   UNL d   1      -1.175   4.523  -0.882  0.00  0.00     0.030 A 
BRANCH  14  17
ATOM     17  C   UNL d   1      -4.478   6.022   0.295  0.00  0.00     0.038 C 
BRANCH  17  18
ATOM     18  C   UNL d   1      -5.392   5.853  -0.925  0.00  0.00     0.004 C 
BRANCH  18  19
ATOM     19  C   UNL d   1      -5.902   4.420  -1.112  0.00  0.00    -0.004 C 
ATOM     20  C   UNL d   1      -6.804   4.309  -2.332  0.00  0.00     0.005 C 
ENDBRANCH  18  19
ENDBRANCH  17  18
ENDBRANCH  14  17
ENDBRANCH   9  11
ENDBRANCH   5   9
BRANCH   2  21
ATOM     21  C   UNL d   1       2.808  -1.166   0.938  0.00  0.00     0.434 C 
ATOM     22  F   UNL d   1       2.904  -2.400   1.499  0.00  0.00    -0.165 F 
ATOM     23  F   UNL d   1       3.593  -1.196  -0.175  0.00  0.00    -0.165 F 
ATOM     24  F   UNL d   1       3.458  -0.348   1.822  0.00  0.00    -0.165 F 
ENDBRANCH   2  21
BRANCH   1  25
ATOM     25  C   UNL d   1       0.180  -2.878   1.082  0.00  0.00     0.296 C 
ATOM     26  O   UNL d   1      -0.718  -3.326   1.781  0.00  0.00    -0.259 OA
BRANCH  25  27
ATOM     27  O   UNL d   1       1.114  -3.578   0.414  0.00  0.00    -0.318 OA
BRANCH  27  28
ATOM     28  C   UNL d   1       1.087  -4.999   0.643  0.00  0.00     0.174 C 
ATOM     29  C   UNL d   1       0.259  -5.661  -0.440  0.00  0.00     0.034 C 
ENDBRANCH  27  28
ENDBRANCH  25  27
ENDBRANCH   1  25
TORSDOF 9
