REMARK  5 active torsions:
REMARK  status: ('A' for Active; 'I' for Inactive)
REMARK    1  A    between atoms: C_4  and  C_1 
REMARK       I    between atoms: N_10  and  C_4 
REMARK    2  A    between atoms: C_8  and  O_13 
REMARK       I    between atoms: C_9  and  N_11 
REMARK    3  A    between atoms: C_12  and  C_9 
REMARK    4  A    between atoms: N_11  and  N_10 
REMARK    5  A    between atoms: O_13  and  C_21 
ROOT
ATOM      1  C   UNL d   1      -3.568   3.507   0.122  0.00  0.00     0.270 C 
ATOM      2  N   UNL d   1      -2.377   2.934  -0.265  0.00  0.00    -0.263 N 
ATOM      3  O   UNL d   1      -3.624   4.436   0.928  0.00  0.00    -0.266 OA
ATOM      4  H   UNL d   1      -2.336   2.037  -0.758  0.00  0.00     0.190 HD
ENDROOT
BRANCH   2   5
ATOM      5  N   UNL d   1      -1.154   3.370   0.299  0.00  0.00    -0.263 N 
ATOM      6  C   UNL d   1      -0.013   2.695  -0.101  0.00  0.00     0.274 C 
ATOM      7  O   UNL d   1      -0.120   1.747  -0.887  0.00  0.00    -0.266 OA
ATOM      8  H   UNL d   1      -1.179   4.240   0.821  0.00  0.00     0.190 HD
BRANCH   6   9
ATOM      9  C   UNL d   1       1.283   3.111   0.416  0.00  0.00     0.089 A 
ATOM     10  C   UNL d   1       2.468   2.540  -0.026  0.00  0.00     0.090 A 
ATOM     11  O   UNL d   1       3.521   3.079   0.630  0.00  0.00    -0.242 OA
ATOM     12  C   UNL d   1       2.802   1.500  -1.022  0.00  0.00     0.080 C 
ATOM     13  N   UNL d   1       3.070   4.017   1.522  0.00  0.00    -0.265 N 
ATOM     14  C   UNL d   1       1.736   4.043   1.402  0.00  0.00     0.047 A 
ATOM     15  HN  UNL d   1       3.638   4.583   2.152  1.00  0.00     0.194 HD
ATOM     16  C   UNL d   1       1.006   4.975   2.293  0.00  0.00     0.071 C 
ENDBRANCH   6   9
ENDBRANCH   2   5
BRANCH   1  17
ATOM     17  C   UNL d   1      -4.801   2.937  -0.480  0.00  0.00     0.033 A 
ATOM     18  C   UNL d   1      -5.980   2.907   0.273  0.00  0.00     0.020 A 
ATOM     19  C   UNL d   1      -7.168   2.386  -0.261  0.00  0.00     0.038 A 
ATOM     20  C   UNL d   1      -7.205   1.935  -1.581  0.00  0.00     0.078 A 
ATOM     21  C   UNL d   1      -6.023   1.952  -2.333  0.00  0.00     0.038 A 
ATOM     22  C   UNL d   1      -4.827   2.448  -1.796  0.00  0.00     0.020 A 
BRANCH  20  23
ATOM     23  O   UNL d   1      -8.284   1.438  -2.241  0.00  0.00    -0.255 OA
BRANCH  23  24
ATOM     24  C   UNL d   1      -9.601   1.798  -1.847  0.00  0.00     0.530 C 
ATOM     25  F   UNL d   1      -9.659   2.862  -1.021  0.00  0.00    -0.144 F 
ATOM     26  F   UNL d   1     -10.309   2.103  -2.958  0.00  0.00    -0.144 F 
ATOM     27  F   UNL d   1     -10.197   0.744  -1.248  0.00  0.00    -0.144 F 
ENDBRANCH  23  24
ENDBRANCH  20  23
ENDBRANCH   1  17
TORSDOF 5
