REMARK  6 active torsions:
REMARK  status: ('A' for Active; 'I' for Inactive)
REMARK    1  A    between atoms: C_3  and  C_1 
REMARK    2  A    between atoms: C_8  and  C_2 
REMARK       I    between atoms: N_6  and  C_3 
REMARK    3  A    between atoms: C_7  and  N_6 
REMARK    4  A    between atoms: N_11  and  C_7 
REMARK    5  A    between atoms: C_15  and  N_11 
REMARK    6  A    between atoms: C_25  and  C_17 
ROOT
ATOM      1  C   UNL d   1       0.930  -2.489   0.425  0.00  0.00     0.262 C 
ATOM      2  N   UNL d   1       0.021  -3.558   0.274  0.00  0.00    -0.299 N 
ATOM      3  O   UNL d   1       2.085  -2.827   0.662  0.00  0.00    -0.267 OA
ATOM      4  H   UNL d   1       0.521  -4.403   0.029  0.00  0.00     0.171 HD
ENDROOT
BRANCH   1   5
ATOM      5  C   UNL d   1       0.499  -1.106   0.229  0.00  0.00     0.093 C 
ATOM      6  C   UNL d   1       1.101   0.200   0.571  0.00  0.00     0.085 C 
ATOM      7  N   UNL d   1       0.199   1.157   0.284  0.00  0.00    -0.259 N 
ATOM      8  O   UNL d   1      -0.806   0.597  -0.426  0.00  0.00    -0.241 OA
ATOM      9  HN  UNL d   1       0.263   2.138   0.557  1.00  0.00     0.195 HD
ATOM     10  C   UNL d   1      -0.581  -0.723  -0.560  0.00  0.00     0.090 C 
ATOM     11  C   UNL d   1      -1.485  -1.377  -1.528  0.00  0.00     0.080 C 
BRANCH   6  12
ATOM     12  C   UNL d   1       2.471   0.657   0.973  0.00  0.00     0.015 C 
ATOM     13  C   UNL d   1       2.814   2.023   1.176  0.00  0.00     0.046 C 
ATOM     14 CL   UNL d   1       1.679   3.306   1.476  0.00  0.00    -0.083 Cl
ATOM     15  C   UNL d   1       4.158   2.452   1.171  0.00  0.00     0.025 C 
ATOM     16  C   UNL d   1       5.196   1.544   1.025  0.00  0.00     0.002 C 
ATOM     17  C   UNL d   1       4.893   0.196   0.954  0.00  0.00     0.001 C 
ATOM     18  C   UNL d   1       3.557  -0.231   0.937  0.00  0.00     0.015 C 
ENDBRANCH   6  12
ENDBRANCH   1   5
BRANCH   2  19
ATOM     19  C   UNL d   1      -1.315  -3.786   0.515  0.00  0.00     0.179 C 
ATOM     20  S   UNL d   1      -2.068  -5.071  -0.239  0.00  0.00    -0.040 SA
BRANCH  19  21
ATOM     21  N   UNL d   1      -2.023  -2.907   1.269  0.00  0.00    -0.333 N 
ATOM     22  H   UNL d   1      -2.976  -2.711   0.984  0.00  0.00     0.168 HD
BRANCH  21  23
ATOM     23  C   UNL d   1      -1.583  -2.321   2.463  0.00  0.00     0.034 A 
ATOM     24  C   UNL d   1      -1.868  -0.976   2.678  0.00  0.00     0.030 A 
ATOM     25  C   UNL d   1      -1.306  -0.323   3.770  0.00  0.00     0.009 A 
ATOM     26  C   UNL d   1      -0.549  -1.031   4.712  0.00  0.00    -0.058 A 
ATOM     27  C   UNL d   1      -0.375  -2.411   4.552  0.00  0.00     0.009 A 
ATOM     28  C   UNL d   1      -0.865  -3.051   3.413  0.00  0.00     0.030 A 
BRANCH  26  29
ATOM     29  C   UNL d   1       0.123  -0.300   5.846  0.00  0.00     0.034 C 
ATOM     30  C   UNL d   1       1.411   0.369   5.383  0.00  0.00     0.010 C 
ENDBRANCH  26  29
ENDBRANCH  21  23
ENDBRANCH  19  21
ENDBRANCH   2  19
TORSDOF 6
