REMARK  1 active torsions:
REMARK  status: ('A' for Active; 'I' for Inactive)
REMARK    1  A    between atoms: C_4  and  N_1 
ROOT
ATOM      1  N   UNL d   1      -1.212   0.013  -0.364  0.00  0.00    -0.245 N 
ATOM      2  C   UNL d   1      -0.416   1.125  -0.348  0.00  0.00     0.255 A 
ATOM      3  C   UNL d   1      -0.436  -1.100  -0.171  0.00  0.00     0.261 A 
ATOM      4  C   UNL d   1       0.965  -0.651  -0.087  0.00  0.00     0.012 A 
ATOM      5  C   UNL d   1       0.968   0.679  -0.168  0.00  0.00     0.087 A 
ATOM      6  O   UNL d   1      -0.697   2.309  -0.428  0.00  0.00    -0.268 OA
ATOM      7  O   UNL d   1      -0.746  -2.281  -0.121  0.00  0.00    -0.267 OA
ATOM      8  C   UNL d   1       2.119  -1.571   0.025  0.00  0.00     0.054 C 
ENDROOT
BRANCH   1   9
ATOM      9  C   UNL d   1      -2.615   0.007  -0.599  0.00  0.00     0.047 A 
ATOM     10  C   UNL d   1      -3.238   1.074  -1.271  0.00  0.00     0.057 A 
ATOM     11  C   UNL d   1      -4.605   1.036  -1.569  0.00  0.00     0.074 A 
ATOM     12 CL   UNL d   1      -5.313   2.333  -2.455  0.00  0.00    -0.081 Cl
ATOM     13  C   UNL d   1      -5.374  -0.051  -1.173  0.00  0.00     0.138 A 
ATOM     14  C   UNL d   1      -4.789  -1.105  -0.484  0.00  0.00     0.046 A 
ATOM     15  F   UNL d   1      -6.684  -0.108  -1.454  0.00  0.00    -0.204 F 
ATOM     16  C   UNL d   1      -3.418  -1.079  -0.207  0.00  0.00     0.033 A 
ENDBRANCH   1   9
TORSDOF 1
