REMARK  6 active torsions:
REMARK  status: ('A' for Active; 'I' for Inactive)
REMARK    1  A    between atoms: C_8  and  N_1 
REMARK    2  A    between atoms: C_10  and  C_4 
REMARK    3  A    between atoms: N_6  and  C_7 
REMARK    4  A    between atoms: S_12  and  C_9 
REMARK    5  A    between atoms: C_17  and  C_10 
REMARK    6  A    between atoms: C_22  and  S_12 
ROOT
ATOM      1  C   UNL d   1      -4.887  -1.231   0.721  0.00  0.00     0.120 C 
ATOM      2  C   UNL d   1      -6.091  -0.992   0.050  0.00  0.00     0.034 C 
ATOM      3  C   UNL d   1      -3.788  -0.360   0.644  0.00  0.00     0.049 C 
ATOM      4  C   UNL d   1      -3.805   0.692  -0.270  0.00  0.00    -0.032 C 
ATOM      5  C   UNL d   1      -6.099   0.100  -0.838  0.00  0.00     0.022 C 
ATOM      6  C   UNL d   1      -4.963   0.918  -1.017  0.00  0.00     0.013 C 
ENDROOT
BRANCH   4   7
ATOM      7  C   UNL d   1      -2.547   1.399  -0.520  0.00  0.00     0.036 C 
BRANCH   7   8
ATOM      8  C   UNL d   1      -1.502   0.839  -1.162  0.00  0.00     0.077 C 
ATOM      9  C   UNL d   1      -1.492  -0.478  -1.870  0.00  0.00     0.271 C 
ATOM     10  N   UNL d   1      -0.189  -0.845  -2.174  0.00  0.00    -0.260 N 
ATOM     11  O   UNL d   1      -2.505  -1.096  -2.151  0.00  0.00    -0.266 OA
ATOM     12  C   UNL d   1       0.798   0.092  -1.930  0.00  0.00     0.153 C 
ATOM     13  S   UNL d   1       0.075   1.525  -1.190  0.00  0.00    -0.054 SA
ATOM     14  S   UNL d   1       2.423   0.045  -2.323  0.00  0.00    -0.052 SA
BRANCH  10  15
ATOM     15  C   UNL d   1       0.036  -2.085  -2.839  0.00  0.00     0.066 A 
ATOM     16  C   UNL d   1       0.749  -3.138  -2.238  0.00  0.00     0.061 A 
ATOM     17 CL   UNL d   1       1.295  -3.056  -0.599  0.00  0.00    -0.082 Cl
ATOM     18  C   UNL d   1       0.950  -4.335  -2.932  0.00  0.00     0.026 A 
ATOM     19  C   UNL d   1       0.433  -4.498  -4.219  0.00  0.00     0.002 A 
ATOM     20  C   UNL d   1      -0.303  -3.471  -4.807  0.00  0.00     0.002 A 
ATOM     21  C   UNL d   1      -0.508  -2.273  -4.118  0.00  0.00     0.032 A 
ENDBRANCH  10  15
ENDBRANCH   7   8
ENDBRANCH   4   7
BRANCH   1  22
ATOM     22  N   UNL d   1      -4.590  -2.529   1.283  0.00  0.00    -0.114 N 
ATOM     23  O   UNL d   1      -4.426  -3.466   0.490  0.00  0.00    -0.532 OA
ATOM     24  O   UNL d   1      -4.401  -2.582   2.507  0.00  0.00    -0.532 OA
ENDBRANCH   1  22
BRANCH   2  25
ATOM     25  S   UNL d   1      -7.482  -2.111   0.007  0.00  0.00    -0.123 SA
BRANCH  25  26
ATOM     26  C   UNL d   1      -8.546  -1.791   1.498  0.00  0.00     0.052 C 
ATOM     27  C   UNL d   1      -9.052  -0.362   1.696  0.00  0.00     0.015 C 
ATOM     28  C   UNL d   1      -8.137   0.500   2.554  0.00  0.00     0.001 C 
ATOM     29  C   UNL d   1      -7.854  -0.147   3.903  0.00  0.00     0.000 C 
ATOM     30  C   UNL d   1      -7.317  -1.565   3.772  0.00  0.00     0.001 C 
ATOM     31  C   UNL d   1      -8.093  -2.454   2.805  0.00  0.00     0.015 C 
ENDBRANCH  25  26
ENDBRANCH   2  25
TORSDOF 6
