REMARK  3 active torsions:
REMARK  status: ('A' for Active; 'I' for Inactive)
REMARK    1  A    between atoms: S_6  and  C_1 
REMARK    2  A    between atoms: N_3  and  C_7 
REMARK    3  A    between atoms: C_10  and  S_6 
ROOT
ATOM      1  S   UNL d   1      -1.986  -2.805  -0.128  0.00  0.00    -0.036 SA
ENDROOT
BRANCH   1   2
ATOM      2  C   UNL d   1      -1.487  -1.150   0.026  0.00  0.00     0.157 A 
ATOM      3  N   UNL d   1      -0.173  -0.718  -0.041  0.00  0.00    -0.301 N 
ATOM      4  C   UNL d   1      -0.231   0.671   0.076  0.00  0.00     0.056 A 
ATOM      5  C   UNL d   1       1.039  -1.398  -0.198  0.00  0.00     0.099 A 
ATOM      6  C   UNL d   1       0.989   1.401   0.072  0.00  0.00     0.031 A 
ATOM      7  C   UNL d   1      -1.567   0.984   0.153  0.00  0.00     0.120 A 
ATOM      8  C   UNL d   1       2.154   0.738  -0.053  0.00  0.00     0.004 A 
ATOM      9  C   UNL d   1       2.193  -0.709  -0.203  0.00  0.00     0.018 A 
ATOM     10  N   UNL d   1      -2.338  -0.150   0.136  0.00  0.00    -0.344 N 
ATOM     11  HN  UNL d   1      -3.354  -0.207   0.195  1.00  0.00     0.167 HD
ENDBRANCH   1   2
BRANCH   1  12
ATOM     12  C   UNL d   1      -1.321  -3.450   1.386  0.00  0.00     0.077 A 
ATOM     13  N   UNL d   1      -0.159  -4.141   1.278  0.00  0.00    -0.358 N 
ATOM     14  C   UNL d   1       0.357  -4.697   2.403  0.00  0.00     0.124 A 
ATOM     15  HN  UNL d   1       0.313  -4.240   0.379  1.00  0.00     0.166 HD
ATOM     16  C   UNL d   1      -0.249  -4.594   3.644  0.00  0.00     0.118 A 
ATOM     17  C   UNL d   1      -1.449  -3.889   3.749  0.00  0.00     0.040 A 
ATOM     18  C   UNL d   1      -1.993  -3.308   2.599  0.00  0.00     0.040 A 
BRANCH  16  19
ATOM     19  N   UNL d   1       0.369  -5.219   4.802  0.00  0.00    -0.114 N 
ATOM     20  O   UNL d   1       1.432  -5.833   4.630  0.00  0.00    -0.532 OA
ATOM     21  O   UNL d   1      -0.203  -5.098   5.894  0.00  0.00    -0.532 OA
ENDBRANCH  16  19
ENDBRANCH   1  12
TORSDOF 3
