REMARK  3 active torsions:
REMARK  status: ('A' for Active; 'I' for Inactive)
REMARK    1  A    between atoms: C_10  and  C_5 
REMARK    2  A    between atoms: N_15  and  C_8 
REMARK    3  A    between atoms: N_16  and  C_9 
ROOT
ATOM      1  N   UNL d   1      -0.619   1.037   1.007  0.00  0.00    -0.318 N 
ATOM      2  HN  UNL d   1      -1.079   1.543   1.764  1.00  0.00     0.170 HD
ATOM      3  N   UNL d   1       0.587   1.038  -1.022  0.00  0.00    -0.318 N 
ATOM      4  HN  UNL d   1       1.053   1.544  -1.775  1.00  0.00     0.170 HD
ATOM      5  C   UNL d   1      -0.013   1.658  -0.006  0.00  0.00     0.120 A 
ATOM      6  N   UNL d   1      -0.028  -0.991  -0.015  0.00  0.00    -0.309 N 
ATOM      7  HN  UNL d   1      -0.035  -2.011  -0.019  1.00  0.00     0.171 HD
ATOM      8  C   UNL d   1       0.533  -0.281  -0.979  0.00  0.00     0.158 A 
ATOM      9  C   UNL d   1      -0.578  -0.282   0.956  0.00  0.00     0.158 A 
ENDROOT
BRANCH   5  10
ATOM     10  C   UNL d   1       0.004   3.137   0.005  0.00  0.00     0.010 A 
ATOM     11  C   UNL d   1       0.614   3.874  -1.026  0.00  0.00     0.039 A 
ATOM     12  C   UNL d   1       0.637   5.275  -1.012  0.00  0.00     0.041 A 
ATOM     13 CL   UNL d   1       1.415   6.082  -2.328  0.00  0.00    -0.084 Cl
ATOM     14  C   UNL d   1       0.048   5.991   0.037  0.00  0.00    -0.040 A 
ATOM     15  C   UNL d   1      -0.567   5.271   1.069  0.00  0.00     0.009 A 
ATOM     16  C   UNL d   1       0.055   7.492   0.083  0.00  0.00     0.050 C 
ATOM     17  C   UNL d   1      -0.586   3.871   1.050  0.00  0.00     0.016 A 
ENDBRANCH   5  10
BRANCH   8  18
ATOM     18  N   UNL d   1       1.148  -0.974  -2.004  0.00  0.00    -0.274 NA
ATOM     19  H   UNL d   1       1.409  -1.899  -1.690  0.00  0.00     0.127 HD
ATOM     20  H   UNL d   1       1.873  -0.409  -2.423  0.00  0.00     0.127 HD
ENDBRANCH   8  18
BRANCH   9  21
ATOM     21  N   UNL d   1      -1.182  -0.975   1.987  0.00  0.00    -0.274 NA
ATOM     22  H   UNL d   1      -1.456  -1.898   1.677  0.00  0.00     0.127 HD
ATOM     23  H   UNL d   1      -1.891  -0.406   2.428  0.00  0.00     0.127 HD
ENDBRANCH   9  21
TORSDOF 3
