REMARK  5 active torsions:
REMARK  status: ('A' for Active; 'I' for Inactive)
REMARK    1  A    between atoms: C_2  and  S_1 
REMARK    2  A    between atoms: N_8  and  S_1 
REMARK    3  A    between atoms: C_7  and  C_3 
REMARK    4  A    between atoms: O_14  and  C_7 
REMARK    5  A    between atoms: C_13  and  N_8 
ROOT
ATOM      1  S   UNL d   1       1.087   0.006   0.039  0.00  0.00     0.269 S 
ATOM      2  O   UNL d   1       0.394  -0.793  -0.954  0.00  0.00    -0.200 OA
ATOM      3  O   UNL d   1       2.529   0.065   0.084  0.00  0.00    -0.200 OA
ENDROOT
BRANCH   1   4
ATOM      4  C   UNL d   1       0.624  -0.719   1.601  0.00  0.00     0.122 A 
ATOM      5  S   UNL d   1      -1.040  -0.865   1.951  0.00  0.00    -0.069 SA
ATOM      6  C   UNL d   1      -0.745  -1.633   3.474  0.00  0.00     0.103 A 
ATOM      7  C   UNL d   1       0.616  -1.772   3.687  0.00  0.00     0.059 A 
ATOM      8  C   UNL d   1       1.394  -1.245   2.615  0.00  0.00     0.058 A 
ATOM      9 CL   UNL d   1       1.408  -2.476   5.037  0.00  0.00    -0.083 Cl
BRANCH   6  10
ATOM     10  C   UNL d   1      -1.892  -2.007   4.288  0.00  0.00     0.301 C 
ATOM     11  O   UNL d   1      -3.070  -1.836   3.999  0.00  0.00    -0.259 OA
BRANCH  10  12
ATOM     12  O   UNL d   1      -1.484  -2.587   5.455  0.00  0.00    -0.322 OA
ATOM     13  C   UNL d   1      -2.528  -2.978   6.348  0.00  0.00     0.213 C 
ENDBRANCH  10  12
ENDBRANCH   6  10
ENDBRANCH   1   4
BRANCH   1  14
ATOM     14  N   UNL d   1       0.471   1.561  -0.089  0.00  0.00    -0.280 N 
ATOM     15  H   UNL d   1      -0.484   1.599  -0.446  0.00  0.00     0.179 HD
BRANCH  14  16
ATOM     16  C   UNL d   1       0.881   2.573   0.820  0.00  0.00     0.042 A 
ATOM     17  C   UNL d   1       2.068   3.271   0.584  0.00  0.00     0.033 A 
ATOM     18  C   UNL d   1       2.422   4.337   1.418  0.00  0.00     0.044 A 
ATOM     19  C   UNL d   1       1.601   4.670   2.489  0.00  0.00     0.116 A 
ATOM     20  C   UNL d   1       0.438   3.954   2.749  0.00  0.00     0.044 A 
ATOM     21  F   UNL d   1       1.928   5.704   3.276  0.00  0.00    -0.206 F 
ATOM     22  C   UNL d   1       0.073   2.900   1.908  0.00  0.00     0.033 A 
ENDBRANCH  14  16
ENDBRANCH   1  14
TORSDOF 5
