REMARK  2 active torsions:
REMARK  status: ('A' for Active; 'I' for Inactive)
REMARK    1  A    between atoms: C_3  and  S_1 
REMARK    2  A    between atoms: C_4  and  S_1 
ROOT
ATOM      1  N   UNL d   1      -2.641  -0.803  -0.037  0.00  0.00    -0.196 NA
ATOM      2  C   UNL d   1      -0.312  -0.431  -1.198  0.00  0.00     0.269 C 
ATOM      3  C   UNL d   1      -1.602  -0.648  -0.544  0.00  0.00     0.074 C 
ENDROOT
BRANCH   2   4
ATOM      4  S   UNL d   1       0.900  -0.094   0.053  0.00  0.00     0.187 S 
ATOM      5  O   UNL d   1       2.155   0.215  -0.613  0.00  0.00    -0.222 OA
ATOM      6  O   UNL d   1       0.861  -1.149   1.050  0.00  0.00    -0.222 OA
BRANCH   4   7
ATOM      7  C   UNL d   1       0.369   1.416   0.842  0.00  0.00     0.060 A 
ATOM      8  C   UNL d   1      -0.448   1.356   1.977  0.00  0.00     0.026 A 
ATOM      9  C   UNL d   1      -0.806   2.538   2.627  0.00  0.00     0.044 A 
ATOM     10  C   UNL d   1      -0.334   3.758   2.152  0.00  0.00     0.116 A 
ATOM     11  C   UNL d   1       0.493   3.821   1.034  0.00  0.00     0.044 A 
ATOM     12  F   UNL d   1      -0.667   4.888   2.788  0.00  0.00    -0.206 F 
ATOM     13  C   UNL d   1       0.853   2.645   0.374  0.00  0.00     0.026 A 
ENDBRANCH   4   7
ENDBRANCH   2   4
TORSDOF 2
