REMARK  9 active torsions:
REMARK  status: ('A' for Active; 'I' for Inactive)
REMARK    1  A    between atoms: C_5  and  C_1 
REMARK    2  A    between atoms: N_20  and  C_4 
REMARK    3  A    between atoms: C_6  and  N_19 
REMARK    4  A    between atoms: N_12  and  C_6 
REMARK    5  A    between atoms: C_9  and  C_21 
REMARK    6  A    between atoms: C_21  and  N_12 
REMARK    7  A    between atoms: N_19  and  C_24 
REMARK    8  A    between atoms: C_25  and  N_20 
REMARK    9  A    between atoms: C_24  and  C_25 
ROOT
ATOM      1  N   UNL d   1       1.175   5.380  -3.868  0.00  0.00    -0.224 N 
ATOM      2  H   UNL d   1       0.620   5.260  -4.704  0.00  0.00     0.177 HD
ENDROOT
BRANCH   1   3
ATOM      3  C   UNL d   1       2.326   4.633  -3.905  0.00  0.00     0.678 A 
ATOM      4  N   UNL d   1       2.770   4.321  -5.125  0.00  0.00    -0.187 N 
ATOM      5  C   UNL d   1       3.940   3.636  -5.221  0.00  0.00     0.133 A 
ATOM      6  HN  UNL d   1       2.247   4.588  -5.959  1.00  0.00     0.184 HD
ATOM      7  C   UNL d   1       4.637   3.224  -4.099  0.00  0.00     0.052 A 
ATOM      8  C   UNL d   1       4.087   3.569  -2.892  0.00  0.00     0.108 A 
ATOM      9  N   UNL d   1       2.953   4.280  -2.776  0.00  0.00    -0.202 N 
ATOM     10  HN  UNL d   1       2.583   4.541  -1.862  1.00  0.00     0.183 HD
BRANCH   5  11
ATOM     11  C   UNL d   1       4.514   3.336  -6.593  0.00  0.00     0.433 C 
ATOM     12  F   UNL d   1       3.754   3.778  -7.632  0.00  0.00    -0.165 F 
ATOM     13  F   UNL d   1       4.687   1.999  -6.802  0.00  0.00    -0.165 F 
ATOM     14  F   UNL d   1       5.748   3.892  -6.771  0.00  0.00    -0.165 F 
ENDBRANCH   5  11
ENDBRANCH   1   3
BRANCH   1  15
ATOM     15  C   UNL d   1       0.521   5.607  -2.594  0.00  0.00     0.157 C 
BRANCH  15  16
ATOM     16  C   UNL d   1       1.008   6.933  -1.995  0.00  0.00     0.142 C 
BRANCH  16  17
ATOM     17  N   UNL d   1       0.558   8.070  -2.803  0.00  0.00    -0.366 N 
ATOM     18  H   UNL d   1       0.663   7.945  -3.805  0.00  0.00     0.161 HD
BRANCH  17  19
ATOM     19  C   UNL d   1       0.428   9.365  -2.360  0.00  0.00     0.167 C 
ATOM     20  S   UNL d   1       0.992   9.929  -0.887  0.00  0.00    -0.041 SA
BRANCH  19  21
ATOM     21  N   UNL d   1      -0.306  10.112  -3.260  0.00  0.00    -0.361 N 
ATOM     22  H   UNL d   1      -0.726   9.585  -4.015  0.00  0.00     0.162 HD
BRANCH  21  23
ATOM     23  C   UNL d   1      -1.091  11.263  -2.847  0.00  0.00     0.187 C 
BRANCH  23  24
ATOM     24  C   UNL d   1      -1.873  11.795  -3.986  0.00  0.00     0.070 A 
ATOM     25  O   UNL d   1      -2.693  10.926  -4.646  0.00  0.00    -0.325 OA
ATOM     26  C   UNL d   1      -3.357  11.643  -5.588  0.00  0.00     0.142 A 
ATOM     27  C   UNL d   1      -2.972  12.961  -5.550  0.00  0.00     0.027 A 
ATOM     28  C   UNL d   1      -2.009  13.064  -4.521  0.00  0.00     0.036 A 
ENDBRANCH  23  24
ENDBRANCH  21  23
ENDBRANCH  19  21
ENDBRANCH  17  19
ENDBRANCH  16  17
ENDBRANCH  15  16
ENDBRANCH   1  15
TORSDOF 9
