REMARK  2 active torsions:
REMARK  status: ('A' for Active; 'I' for Inactive)
REMARK    1  A    between atoms: C_4  and  C_2 
REMARK    2  A    between atoms: O_12  and  C_4 
ROOT
ATOM      1  C   UNL d   1       0.119  -1.870  -0.662  0.00  0.00     0.139 C 
ATOM      2  C   UNL d   1      -1.899  -1.603   1.416  0.00  0.00     0.085 C 
ATOM      3  C   UNL d   1      -0.786  -3.059  -0.372  0.00  0.00     0.079 C 
ATOM      4  C   UNL d   1       0.460  -1.058   0.569  0.00  0.00     0.060 C 
ATOM      5  C   UNL d   1      -2.109  -2.532   0.203  0.00  0.00     0.031 C 
ATOM      6  C   UNL d   1      -0.871  -0.500   1.099  0.00  0.00     0.027 C 
ATOM      7  C   UNL d   1      -0.062  -3.931   0.623  0.00  0.00    -0.019 C 
ATOM      8  C   UNL d   1       0.828  -3.436   1.499  0.00  0.00    -0.029 C 
ATOM      9  O   UNL d   1       0.521  -1.585  -1.786  0.00  0.00    -0.297 OA
ATOM     10  C   UNL d   1       1.200  -1.973   1.566  0.00  0.00     0.039 C 
ENDROOT
BRANCH   2  11
ATOM     11  C   UNL d   1      -3.227  -1.011   1.843  0.00  0.00     0.143 C 
ATOM     12  O   UNL d   1      -3.660   0.068   1.469  0.00  0.00    -0.650 OA
BRANCH  11  13
ATOM     13  O   UNL d   1      -3.916  -1.814   2.685  0.00  0.00    -0.776 OA
ATOM     14  H   UNL d   1      -3.465  -2.650   2.909  0.00  0.00     0.167 HD
ENDBRANCH  11  13
ENDBRANCH   2  11
TORSDOF 2
