REMARK  1 active torsions:
REMARK  status: ('A' for Active; 'I' for Inactive)
REMARK    1  A    between atoms: C_11  and  C_4 
ROOT
ATOM      1  C   UNL d   1      -0.104  -0.155   0.323  0.00  0.00     0.100 A 
ATOM      2  S   UNL d   1      -1.610  -0.777   0.763  0.00  0.00    -0.086 SA
ATOM      3  C   UNL d   1      -0.210   1.005  -0.389  0.00  0.00     0.056 A 
ATOM      4  C   UNL d   1      -2.455   0.506  -0.044  0.00  0.00    -0.007 A 
ATOM      5  C   UNL d   1      -1.547   1.403  -0.599  0.00  0.00     0.046 A 
ATOM      6  C   UNL d   1       1.164  -0.737   0.646  0.00  0.00     0.265 A 
ATOM      7  N   UNL d   1       0.902   1.723  -0.856  0.00  0.00    -0.351 N 
ATOM      8  HN  UNL d   1       0.824   2.591  -1.386  1.00  0.00     0.166 HD
ATOM      9  N   UNL d   1       2.214   0.011   0.159  0.00  0.00    -0.319 N 
ATOM     10  C   UNL d   1       2.036   1.176  -0.550  0.00  0.00     0.183 A 
ATOM     11  O   UNL d   1       1.366  -1.772   1.275  0.00  0.00    -0.267 OA
ATOM     12  H   UNL d   1       3.138  -0.344   0.352  0.00  0.00     0.169 HD
ENDROOT
BRANCH   4  13
ATOM     13  C   UNL d   1      -3.988   0.590  -0.043  0.00  0.00    -0.018 C 
ATOM     14  C   UNL d   1      -4.451   1.381   1.195  0.00  0.00     0.020 C 
ATOM     15  C   UNL d   1      -4.483   1.323  -1.310  0.00  0.00     0.020 C 
ATOM     16  C   UNL d   1      -4.665  -0.796  -0.030  0.00  0.00     0.020 C 
ENDBRANCH   4  13
TORSDOF 1
