REMARK  3 active torsions:
REMARK  status: ('A' for Active; 'I' for Inactive)
REMARK    1  A    between atoms: C_8  and  N_1 
REMARK    2  A    between atoms: N_10  and  C_7 
REMARK    3  A    between atoms: C_13  and  N_10 
ROOT
ATOM      1  N   UNL d   1      -1.157   1.126  -0.013  0.00  0.00    -0.220 N 
ATOM      2  C   UNL d   1       0.052  -0.772   0.029  0.00  0.00     0.073 A 
ATOM      3  N   UNL d   1       0.182   1.525  -0.027  0.00  0.00    -0.294 N 
ATOM      4  HN  UNL d   1       0.535   2.482  -0.056  1.00  0.00     0.187 HD
ATOM      5  C   UNL d   1      -1.338  -0.265   0.019  0.00  0.00     0.280 A 
ATOM      6  C   UNL d   1       0.891   0.429   0.004  0.00  0.00     0.039 A 
ATOM      7  C   UNL d   1       0.334  -2.077   0.056  0.00  0.00     0.107 C 
ATOM      8  O   UNL d   1      -2.338  -0.961   0.043  0.00  0.00    -0.265 OA
ATOM      9  C   UNL d   1       2.382   0.416   0.021  0.00  0.00     0.071 C 
ENDROOT
BRANCH   7  10
ATOM     10  N   UNL d   1       1.536  -2.734   0.112  0.00  0.00    -0.365 N 
ATOM     11  H   UNL d   1       2.377  -2.183   0.231  0.00  0.00     0.165 HD
BRANCH  10  12
ATOM     12  C   UNL d   1       1.760  -4.117  -0.020  0.00  0.00     0.031 A 
ATOM     13  C   UNL d   1       0.841  -4.988  -0.615  0.00  0.00     0.030 A 
ATOM     14  C   UNL d   1       1.089  -6.362  -0.683  0.00  0.00     0.009 A 
ATOM     15  C   UNL d   1       2.256  -6.901  -0.133  0.00  0.00    -0.062 A 
ATOM     16  C   UNL d   1       3.167  -6.043   0.487  0.00  0.00     0.009 A 
ATOM     17  C   UNL d   1       2.513  -8.375  -0.222  0.00  0.00     0.048 C 
ATOM     18  C   UNL d   1       2.919  -4.668   0.543  0.00  0.00     0.030 A 
ENDBRANCH  10  12
ENDBRANCH   7  10
BRANCH   1  19
ATOM     19  C   UNL d   1      -2.162   2.124   0.035  0.00  0.00     0.060 A 
ATOM     20  C   UNL d   1      -3.516   1.799   0.177  0.00  0.00     0.032 A 
ATOM     21  C   UNL d   1      -4.491   2.798   0.274  0.00  0.00     0.009 A 
ATOM     22  C   UNL d   1      -4.136   4.147   0.219  0.00  0.00    -0.062 A 
ATOM     23  C   UNL d   1      -2.790   4.483   0.055  0.00  0.00     0.009 A 
ATOM     24  C   UNL d   1      -5.190   5.204   0.358  0.00  0.00     0.048 C 
ATOM     25  C   UNL d   1      -1.816   3.482  -0.035  0.00  0.00     0.032 A 
ENDBRANCH   1  19
TORSDOF 3
