REMARK  8 active torsions:
REMARK  status: ('A' for Active; 'I' for Inactive)
REMARK    1  A    between atoms: C_2  and  C_1 
REMARK       I    between atoms: N_3  and  C_1 
REMARK    2  A    between atoms: C_6  and  N_3 
REMARK    3  A    between atoms: S_11  and  C_4 
REMARK    4  A    between atoms: O_12  and  C_5 
REMARK    5  A    between atoms: C_6  and  C_5 
REMARK    6  A    between atoms: C_13  and  C_6 
REMARK    7  A    between atoms: C_17  and  C_13 
REMARK    8  A    between atoms: S_14  and  C_17 
ROOT
ATOM      1  C   UNL d   1      -0.867  -0.351  -2.911  0.00  0.00     0.255 C 
ATOM      2  N   UNL d   1      -1.312  -0.524  -1.612  0.00  0.00    -0.343 N 
ATOM      3  O   UNL d   1       0.027  -1.014  -3.415  0.00  0.00    -0.268 OA
ATOM      4  H   UNL d   1      -2.028   0.093  -1.253  0.00  0.00     0.163 HD
ENDROOT
BRANCH   1   5
ATOM      5  C   UNL d   1      -1.593   0.703  -3.674  0.00  0.00     0.065 A 
ATOM      6  C   UNL d   1      -0.985   1.731  -4.399  0.00  0.00     0.085 A 
ATOM      7  N   UNL d   1      -1.722   2.699  -5.016  0.00  0.00    -0.360 N 
ATOM      8  C   UNL d   1      -3.067   2.641  -4.939  0.00  0.00     0.089 A 
ATOM      9  HN  UNL d   1      -1.264   3.453  -5.528  1.00  0.00     0.166 HD
ATOM     10  C   UNL d   1      -3.748   1.643  -4.276  0.00  0.00     0.018 A 
ATOM     11  C   UNL d   1      -2.999   0.659  -3.639  0.00  0.00     0.021 A 
BRANCH   6  12
ATOM     12  S   UNL d   1       0.785   1.941  -4.550  0.00  0.00    -0.116 SA
ATOM     13  C   UNL d   1       0.866   3.310  -5.749  0.00  0.00     0.097 C 
ENDBRANCH   6  12
ENDBRANCH   1   5
BRANCH   2  14
ATOM     14  C   UNL d   1      -0.757  -1.503  -0.666  0.00  0.00     0.185 C 
BRANCH  14  15
ATOM     15  C   UNL d   1      -1.265  -2.938  -0.882  0.00  0.00     0.045 C 
BRANCH  15  16
ATOM     16  C   UNL d   1      -0.964  -3.905   0.283  0.00  0.00     0.076 C 
BRANCH  16  17
ATOM     17  S   UNL d   1      -1.752  -3.397   1.852  0.00  0.00    -0.173 SA
ATOM     18  C   UNL d   1      -1.006  -4.621   2.962  0.00  0.00     0.089 C 
ENDBRANCH  16  17
ENDBRANCH  15  16
ENDBRANCH  14  15
BRANCH  14  19
ATOM     19  C   UNL d   1       0.762  -1.335  -0.525  0.00  0.00     0.281 C 
ATOM     20  O   UNL d   1       1.289  -0.292  -0.132  0.00  0.00    -0.263 OA
BRANCH  19  21
ATOM     21  O   UNL d   1       1.446  -2.446  -0.903  0.00  0.00    -0.325 OA
ATOM     22  C   UNL d   1       2.864  -2.301  -0.879  0.00  0.00     0.213 C 
ENDBRANCH  19  21
ENDBRANCH  14  19
ENDBRANCH   2  14
TORSDOF 8
