REMARK  4 active torsions:
REMARK  status: ('A' for Active; 'I' for Inactive)
REMARK    1  A    between atoms: C_8  and  C_1 
REMARK       I    between atoms: C_2  and  N_4 
REMARK    2  A    between atoms: C_5  and  C_2 
REMARK    3  A    between atoms: N_7  and  C_3 
REMARK       I    between atoms: N_4  and  C_6 
REMARK       I    between atoms: C_6  and  N_7 
REMARK    4  A    between atoms: O_17  and  C_8 
ROOT
ATOM      1  C   UNL d   1       0.099   3.035   0.959  0.00  0.00     0.263 C 
ATOM      2  N   UNL d   1       1.327   3.672   0.855  0.00  0.00    -0.275 N 
ATOM      3  C   UNL d   1       2.580   3.157   0.576  0.00  0.00     0.327 C 
ATOM      4  N   UNL d   1       2.602   1.937  -0.056  0.00  0.00    -0.307 N 
ATOM      5  O   UNL d   1      -0.010   1.831   0.755  0.00  0.00    -0.267 OA
ATOM      6  O   UNL d   1       3.564   3.854   0.825  0.00  0.00    -0.247 OA
ATOM      7  H   UNL d   1       1.407   4.621   1.191  0.00  0.00     0.173 HD
ATOM      8  H   UNL d   1       1.714   1.703  -0.490  0.00  0.00     0.170 HD
ENDROOT
BRANCH   4   9
ATOM      9  C   UNL d   1       3.760   1.572  -0.748  0.00  0.00     0.060 C 
ATOM     10  C   UNL d   1       5.008   1.327  -0.188  0.00  0.00     0.106 C 
ATOM     11  S   UNL d   1       6.196   1.140  -1.426  0.00  0.00    -0.094 SA
ATOM     12  C   UNL d   1       5.032   1.214  -2.666  0.00  0.00     0.053 C 
ATOM     13  C   UNL d   1       3.764   1.397  -2.166  0.00  0.00     0.038 C 
BRANCH  10  14
ATOM     14  C   UNL d   1       5.363   1.146   1.215  0.00  0.00     0.302 C 
ATOM     15  O   UNL d   1       4.576   1.097   2.157  0.00  0.00    -0.259 OA
BRANCH  14  16
ATOM     16  O   UNL d   1       6.705   0.903   1.354  0.00  0.00    -0.322 OA
ATOM     17  C   UNL d   1       7.103   0.421   2.637  0.00  0.00     0.213 C 
ENDBRANCH  14  16
ENDBRANCH  10  14
ENDBRANCH   4   9
BRANCH   1  18
ATOM     18  C   UNL d   1      -1.103   3.897   1.272  0.00  0.00     0.075 A 
ATOM     19  C   UNL d   1      -2.395   3.480   0.871  0.00  0.00     0.051 A 
ATOM     20 CL   UNL d   1      -2.734   2.012   0.012  0.00  0.00    -0.083 Cl
ATOM     21  C   UNL d   1      -3.525   4.281   1.112  0.00  0.00     0.025 A 
ATOM     22  C   UNL d   1      -3.404   5.515   1.737  0.00  0.00     0.003 A 
ATOM     23  C   UNL d   1      -2.149   5.942   2.147  0.00  0.00     0.025 A 
ATOM     24  C   UNL d   1      -1.013   5.141   1.937  0.00  0.00     0.051 A 
ATOM     25 CL   UNL d   1       0.452   5.802   2.586  0.00  0.00    -0.083 Cl
ENDBRANCH   1  18
TORSDOF 4
