REMARK  6 active torsions:
REMARK  status: ('A' for Active; 'I' for Inactive)
REMARK    1  A    between atoms: C_4  and  C_1 
REMARK    2  A    between atoms: C_5  and  C_1 
REMARK    3  A    between atoms: C_3  and  C_2 
REMARK    4  A    between atoms: C_10  and  C_2 
REMARK       I    between atoms: N_15  and  C_4 
REMARK    5  A    between atoms: N_6  and  C_5 
REMARK    6  A    between atoms: N_12  and  C_9 
ROOT
ATOM      1  C   UNL d   1       1.069  -0.071  -0.015  0.00  0.00     0.105 C 
ATOM      2  C   UNL d   1       0.373   0.992  -0.501  0.00  0.00     0.001 C 
ENDROOT
BRANCH   2   3
ATOM      3  C   UNL d   1      -1.094   1.065  -0.518  0.00  0.00     0.030 C 
ATOM      4  C   UNL d   1      -1.835   2.082  -0.988  0.00  0.00     0.085 C 
BRANCH   4   5
ATOM      5  N   UNL d   1      -3.215   2.230  -0.995  0.00  0.00    -0.398 N 
ATOM      6  C   UNL d   1      -4.150   1.314  -0.341  0.00  0.00     0.148 C 
ATOM      7  C   UNL d   1      -3.866   3.307  -1.743  0.00  0.00     0.148 C 
ENDBRANCH   4   5
ENDBRANCH   2   3
BRANCH   2   8
ATOM      8  C   UNL d   1       1.169   2.141  -1.025  0.00  0.00    -0.024 A 
ATOM      9  C   UNL d   1       1.515   2.200  -2.384  0.00  0.00     0.014 A 
ATOM     10  C   UNL d   1       2.227   3.295  -2.881  0.00  0.00     0.024 A 
ATOM     11  C   UNL d   1       2.591   4.333  -2.025  0.00  0.00     0.034 A 
ATOM     12  C   UNL d   1       2.249   4.288  -0.675  0.00  0.00     0.024 A 
ATOM     13 CL   UNL d   1       3.458   5.685  -2.643  0.00  0.00    -0.084 Cl
ATOM     14  C   UNL d   1       1.535   3.195  -0.175  0.00  0.00     0.014 A 
ENDBRANCH   2   8
BRANCH   1  15
ATOM     15  C   UNL d   1       0.487  -1.339   0.567  0.00  0.00     0.259 C 
ATOM     16  O   UNL d   1      -0.709  -1.574   0.682  0.00  0.00    -0.267 OA
ATOM     17  N   UNL d   1       1.366  -2.297   0.998  0.00  0.00    -0.365 N 
ATOM     18  H   UNL d   1       2.376  -2.244   0.967  0.00  0.00     0.159 HD
ATOM     19  H   UNL d   1       0.966  -3.140   1.384  0.00  0.00     0.159 HD
ENDBRANCH   1  15
BRANCH   1  20
ATOM     20  C   UNL d   1       2.589  -0.071  -0.015  0.00  0.00    -0.030 C 
BRANCH  20  21
ATOM     21  N   UNL d   1       3.850  -0.071  -0.015  0.00  0.00    -0.365 N 
ATOM     22  HN2 UNL d   1       2.830  -0.071  -0.015  1.00  0.00     0.165 HD
ATOM     23  HN1 UNL d   1       4.870  -0.071  -0.015  1.00  0.00     0.165 HD
ENDBRANCH  20  21
ENDBRANCH   1  20
TORSDOF 6
