REMARK  7 active torsions:
REMARK  status: ('A' for Active; 'I' for Inactive)
REMARK    1  A    between atoms: C_5  and  C_1 
REMARK    2  A    between atoms: O_7  and  C_2 
REMARK    3  A    between atoms: C_3  and  C_10 
REMARK       I    between atoms: C_4  and  N_8 
REMARK       I    between atoms: N_15  and  C_4 
REMARK    4  A    between atoms: O_24  and  C_5 
REMARK    5  A    between atoms: N_8  and  C_6 
REMARK    6  A    between atoms: C_11  and  O_7 
REMARK    7  A    between atoms: C_23  and  N_15 
ROOT
ATOM      1  C   UNL d   1       2.034   3.394   0.801  0.00  0.00     0.071 C 
ATOM      2  C   UNL d   1       2.354   5.702   0.075  0.00  0.00     0.050 C 
ATOM      3  C   UNL d   1       2.128   2.983  -0.535  0.00  0.00     0.102 C 
ATOM      4  C   UNL d   1       2.078   4.766   1.087  0.00  0.00     0.048 C 
ATOM      5  C   UNL d   1       2.650   5.242  -1.215  0.00  0.00     0.019 C 
ATOM      6  C   UNL d   1       2.528   3.892  -1.520  0.00  0.00     0.040 C 
ENDROOT
BRANCH   1   7
ATOM      7  N   UNL d   1       1.819   2.513   1.876  0.00  0.00    -0.306 N 
ATOM      8  C   UNL d   1       2.482   1.363   2.232  0.00  0.00     0.325 C 
ATOM      9  N   UNL d   1       3.612   1.037   1.525  0.00  0.00    -0.309 N 
ATOM     10  O   UNL d   1       2.087   0.799   3.256  0.00  0.00    -0.247 OA
ATOM     11  H   UNL d   1       3.837   1.632   0.745  0.00  0.00     0.170 HD
ATOM     12  H   UNL d   1       1.304   2.864   2.675  0.00  0.00     0.171 HD
BRANCH   9  13
ATOM     13  C   UNL d   1       4.600   0.086   1.894  0.00  0.00     0.036 A 
ATOM     14  C   UNL d   1       4.467  -0.803   2.968  0.00  0.00     0.032 A 
ATOM     15  C   UNL d   1       5.528  -1.634   3.349  0.00  0.00     0.044 A 
ATOM     16  C   UNL d   1       6.722  -1.591   2.646  0.00  0.00     0.116 A 
ATOM     17  C   UNL d   1       6.862  -0.757   1.545  0.00  0.00     0.044 A 
ATOM     18  F   UNL d   1       7.750  -2.356   3.036  0.00  0.00    -0.206 F 
ATOM     19  C   UNL d   1       5.801   0.075   1.166  0.00  0.00     0.032 A 
ENDBRANCH   9  13
ENDBRANCH   1   7
BRANCH   3  20
ATOM     20  O   UNL d   1       1.754   1.707  -0.888  0.00  0.00    -0.307 OA
BRANCH  20  21
ATOM     21  C   UNL d   1       0.987   1.495  -1.999  0.00  0.00     0.099 A 
ATOM     22  C   UNL d   1       1.102   0.327  -2.726  0.00  0.00     0.114 A 
ATOM     23  S   UNL d   1       0.046   0.320  -4.081  0.00  0.00    -0.093 SA
ATOM     24  C   UNL d   1      -0.566   1.867  -3.704  0.00  0.00     0.053 A 
ATOM     25  C   UNL d   1      -0.019   2.365  -2.542  0.00  0.00     0.046 A 
BRANCH  22  26
ATOM     26  C   UNL d   1       1.969  -0.806  -2.526  0.00  0.00     0.302 C 
ATOM     27  O   UNL d   1       1.735  -1.959  -2.878  0.00  0.00    -0.259 OA
BRANCH  26  28
ATOM     28  O   UNL d   1       3.127  -0.412  -1.931  0.00  0.00    -0.322 OA
ATOM     29  C   UNL d   1       4.092  -1.446  -1.726  0.00  0.00     0.213 C 
ENDBRANCH  26  28
ENDBRANCH  22  26
ENDBRANCH  20  21
ENDBRANCH   3  20
BRANCH   2  30
ATOM     30  C   UNL d   1       2.316   7.190   0.325  0.00  0.00     0.417 C 
ATOM     31  F   UNL d   1       1.833   7.527   1.551  0.00  0.00    -0.166 F 
ATOM     32  F   UNL d   1       3.542   7.769   0.224  0.00  0.00    -0.166 F 
ATOM     33  F   UNL d   1       1.523   7.834  -0.578  0.00  0.00    -0.166 F 
ENDBRANCH   2  30
TORSDOF 7
