REMARK  6 active torsions:
REMARK  status: ('A' for Active; 'I' for Inactive)
REMARK    1  A    between atoms: C_7  and  C_1 
REMARK    2  A    between atoms: C_3  and  C_2 
REMARK    3  A    between atoms: N_11  and  C_6 
REMARK    4  A    between atoms: O_19  and  C_7 
REMARK    5  A    between atoms: N_13  and  N_11 
REMARK       I    between atoms: C_12  and  N_13 
REMARK    6  A    between atoms: C_21  and  O_19 
ROOT
ATOM      1  C   UNL d   1      -0.088  -1.443  -0.014  0.00  0.00     0.086 A 
ATOM      2  C   UNL d   1       1.119  -0.772   0.048  0.00  0.00     0.136 A 
ATOM      3  N   UNL d   1       1.154   0.602   0.093  0.00  0.00    -0.327 N 
ATOM      4  HN  UNL d   1       2.044   1.086   0.212  1.00  0.00     0.168 HD
ATOM      5  C   UNL d   1       0.015   1.306  -0.021  0.00  0.00     0.176 A 
ATOM      6  N   UNL d   1      -1.176   0.715  -0.146  0.00  0.00    -0.340 N 
ATOM      7  HN  UNL d   1      -2.029   1.261  -0.273  1.00  0.00     0.167 HD
ATOM      8  C   UNL d   1      -1.204  -0.634  -0.098  0.00  0.00     0.110 A 
ENDROOT
BRANCH   5   9
ATOM      9  N   UNL d   1       0.023   2.707   0.028  0.00  0.00    -0.173 NA
ATOM     10  H   UNL d   1      -0.295   3.044  -0.885  0.00  0.00     0.156 HD
BRANCH   9  11
ATOM     11  N   UNL d   1       1.259   3.264   0.404  0.00  0.00    -0.285 N 
ATOM     12  C   UNL d   1       1.664   4.403  -0.258  0.00  0.00     0.228 C 
ATOM     13  O   UNL d   1       1.146   4.806  -1.297  0.00  0.00    -0.273 OA
ATOM     14  C   UNL d   1       2.812   5.114   0.409  0.00  0.00     0.118 C 
ATOM     15  H   UNL d   1       1.530   3.083   1.365  0.00  0.00     0.184 HD
ENDBRANCH   9  11
ENDBRANCH   5   9
BRANCH   2  16
ATOM     16  C   UNL d   1       2.479  -1.440  -0.007  0.00  0.00     0.433 C 
ATOM     17  F   UNL d   1       2.501  -2.791  -0.128  0.00  0.00    -0.165 F 
ATOM     18  F   UNL d   1       3.203  -0.997  -1.082  0.00  0.00    -0.165 F 
ATOM     19  F   UNL d   1       3.247  -1.149   1.085  0.00  0.00    -0.165 F 
ENDBRANCH   2  16
BRANCH   1  20
ATOM     20  C   UNL d   1      -0.279  -2.902   0.067  0.00  0.00     0.296 C 
ATOM     21  O   UNL d   1       0.423  -3.655   0.722  0.00  0.00    -0.259 OA
BRANCH  20  22
ATOM     22  O   UNL d   1      -1.382  -3.240  -0.643  0.00  0.00    -0.318 OA
BRANCH  22  23
ATOM     23  C   UNL d   1      -1.780  -4.619  -0.623  0.00  0.00     0.174 C 
ATOM     24  C   UNL d   1      -2.481  -4.971   0.677  0.00  0.00     0.034 C 
ENDBRANCH  22  23
ENDBRANCH  20  22
ENDBRANCH   1  20
TORSDOF 6
