REMARK  0 active torsions:
REMARK  status: ('A' for Active; 'I' for Inactive)
ROOT
ATOM      1  N   UNL d   1      -0.103   0.133   0.221  0.00  0.00    -0.261 N 
ATOM      2  C   UNL d   1       0.242  -1.206   0.267  0.00  0.00     0.127 A 
ATOM      3  C   UNL d   1       0.860   1.139   0.124  0.00  0.00     0.265 A 
ATOM      4  N   UNL d   1      -0.826  -1.976   0.320  0.00  0.00    -0.339 N 
ATOM      5  HN  UNL d   1      -0.853  -2.992   0.399  1.00  0.00     0.167 HD
ATOM      6  C   UNL d   1       1.645  -1.607   0.163  0.00  0.00     0.021 A 
ATOM      7  C   UNL d   1       2.287   0.771  -0.051  0.00  0.00     0.044 A 
ATOM      8  C   UNL d   1       2.619  -0.602  -0.062  0.00  0.00     0.004 A 
ATOM      9  C   UNL d   1      -1.479   0.212   0.207  0.00  0.00     0.071 A 
ATOM     10  C   UNL d   1      -1.896  -1.116   0.246  0.00  0.00     0.061 A 
ATOM     11  O   UNL d   1       0.502   2.315   0.150  0.00  0.00    -0.267 OA
ATOM     12  C   UNL d   1       3.958  -0.969  -0.311  0.00  0.00    -0.024 A 
ATOM     13  C   UNL d   1       2.027  -2.949   0.229  0.00  0.00     0.016 A 
ATOM     14  C   UNL d   1       3.254   1.760  -0.234  0.00  0.00     0.018 A 
ATOM     15  C   UNL d   1      -2.377   1.285   0.113  0.00  0.00     0.032 A 
ATOM     16  C   UNL d   1      -3.268  -1.406   0.179  0.00  0.00     0.032 A 
ATOM     17  C   UNL d   1       3.351  -3.309  -0.019  0.00  0.00     0.002 A 
ATOM     18  C   UNL d   1       4.568   1.387  -0.484  0.00  0.00     0.002 A 
ATOM     19  C   UNL d   1       4.915   0.034  -0.545  0.00  0.00     0.012 A 
ATOM     20  C   UNL d   1       4.301  -2.330  -0.321  0.00  0.00     0.012 A 
ATOM     21  C   UNL d   1      -3.738   0.975   0.040  0.00  0.00     0.002 A 
ATOM     22  C   UNL d   1      -4.180  -0.348   0.069  0.00  0.00     0.002 A 
ENDROOT
TORSDOF 0
