REMARK  2 active torsions:
REMARK  status: ('A' for Active; 'I' for Inactive)
REMARK    1  A    between atoms: C_13  and  C_4 
REMARK    2  A    between atoms: C_6  and  C_7 
ROOT
ATOM      1  C   UNL d   1      -5.790  -0.626  -0.262  0.00  0.00    -0.051 A 
ATOM      2  C   UNL d   1      -3.063  -1.387  -0.043  0.00  0.00    -0.034 A 
ATOM      3  C   UNL d   1      -5.325  -1.399   0.822  0.00  0.00     0.009 A 
ATOM      4  C   UNL d   1      -4.847  -0.257  -1.236  0.00  0.00     0.009 A 
ATOM      5  C   UNL d   1      -3.982  -1.773   0.931  0.00  0.00     0.012 A 
ATOM      6  C   UNL d   1      -3.503  -0.631  -1.130  0.00  0.00     0.012 A 
ENDROOT
BRANCH   2   7
ATOM      7  C   UNL d   1      -1.663  -1.794   0.055  0.00  0.00     0.038 C 
ATOM      8  C   UNL d   1      -1.201  -2.909  -0.524  0.00  0.00     0.058 C 
ATOM      9  C   UNL d   1       0.262  -3.291  -0.401  0.00  0.00     0.174 C 
ATOM     10  N   UNL d   1      -1.907  -3.861  -1.295  0.00  0.00    -0.280 NA
ATOM     11  C   UNL d   1       0.536  -4.585  -1.169  0.00  0.00     0.064 C 
ATOM     12  O   UNL d   1       1.104  -2.659   0.222  0.00  0.00    -0.291 OA
ATOM     13  C   UNL d   1      -0.390  -5.664  -0.569  0.00  0.00     0.027 C 
ATOM     14  C   UNL d   1       0.114  -4.324  -2.630  0.00  0.00     0.027 C 
ATOM     15  C   UNL d   1      -1.867  -5.220  -0.684  0.00  0.00     0.096 C 
ATOM     16  C   UNL d   1      -1.387  -3.959  -2.690  0.00  0.00     0.096 C 
ENDBRANCH   2   7
BRANCH   1  17
ATOM     17  C   UNL d   1      -7.271  -0.221  -0.345  0.00  0.00    -0.024 C 
ATOM     18  C   UNL d   1      -7.603   0.657  -1.573  0.00  0.00     0.019 C 
ATOM     19  C   UNL d   1      -8.157  -1.482  -0.429  0.00  0.00     0.019 C 
ATOM     20  C   UNL d   1      -7.662   0.588   0.911  0.00  0.00     0.019 C 
ENDBRANCH   1  17
TORSDOF 2
