REMARK  1 active torsions:
REMARK  status: ('A' for Active; 'I' for Inactive)
REMARK    1  A    between atoms: C_2  and  N_1 
ROOT
ATOM      1  C   UNL d   1       0.211   1.125  -0.623  0.00  0.00     0.131 A 
ATOM      2  C   UNL d   1      -0.835   1.715   0.105  0.00  0.00     0.092 A 
ATOM      3  N   UNL d   1      -2.392   2.235   1.684  0.00  0.00    -0.310 N 
ATOM      4  HN  UNL d   1      -2.954   2.208   2.535  1.00  0.00     0.186 HD
ATOM      5  N   UNL d   1      -1.403   1.402   1.315  0.00  0.00    -0.298 N 
ATOM      6  C   UNL d   1      -1.527   2.833  -0.347  0.00  0.00     0.011 A 
ATOM      7  C   UNL d   1      -2.464   3.104   0.674  0.00  0.00     0.120 A 
ATOM      8  C   UNL d   1       0.542   1.703  -1.862  0.00  0.00     0.038 A 
ATOM      9  C   UNL d   1      -1.183   3.399  -1.587  0.00  0.00     0.015 A 
ATOM     10  C   UNL d   1      -0.148   2.822  -2.336  0.00  0.00     0.003 A 
ATOM     11  H   UNL d   1      -1.154   0.631   1.930  0.00  0.00     0.187 HD
ENDROOT
BRANCH   1  12
ATOM     12  N   UNL d   1       0.955  -0.041  -0.141  0.00  0.00    -0.113 N 
ATOM     13  O   UNL d   1       0.608  -0.516   0.952  0.00  0.00    -0.532 OA
ATOM     14  O   UNL d   1       1.877  -0.478  -0.842  0.00  0.00    -0.532 OA
ENDBRANCH   1  12
TORSDOF 1
