REMARK  4 active torsions:
REMARK  status: ('A' for Active; 'I' for Inactive)
REMARK    1  A    between atoms: C_8  and  C_1 
REMARK    2  A    between atoms: N_6  and  C_2 
REMARK       I    between atoms: N_14  and  C_8 
REMARK    3  A    between atoms: C_18  and  N_14 
REMARK    4  A    between atoms: C_15  and  C_18 
ROOT
ATOM      1  C   UNL d   1       1.479  -0.801   0.045  0.00  0.00     0.094 A 
ATOM      2  C   UNL d   1       0.164  -1.256  -0.013  0.00  0.00     0.145 A 
ATOM      3  N   UNL d   1       0.086   1.014  -0.072  0.00  0.00    -0.307 N 
ATOM      4  HN  UNL d   1      -0.263   1.971  -0.106  1.00  0.00     0.186 HD
ATOM      5  N   UNL d   1      -0.629  -0.132  -0.083  0.00  0.00    -0.280 N 
ATOM      6  C   UNL d   1       1.350   0.606  -0.006  0.00  0.00     0.128 A 
ATOM      7  C   UNL d   1      -2.065   0.019  -0.019  0.00  0.00     0.179 C 
ENDROOT
BRANCH   1   8
ATOM      8  C   UNL d   1       2.720  -1.559   0.023  0.00  0.00     0.257 C 
ATOM      9  O   UNL d   1       2.825  -2.644  -0.539  0.00  0.00    -0.267 OA
ATOM     10  N   UNL d   1       3.777  -0.957   0.676  0.00  0.00    -0.353 N 
ATOM     11  H   UNL d   1       3.627  -0.107   1.199  0.00  0.00     0.163 HD
BRANCH  10  12
ATOM     12  C   UNL d   1       5.061  -1.600   0.791  0.00  0.00     0.149 C 
BRANCH  12  13
ATOM     13  C   UNL d   1       6.080  -0.692   0.181  0.00  0.00    -0.018 C 
ATOM     14  C   UNL d   1       7.135  -0.182   0.830  0.00  0.00     0.008 C 
ENDBRANCH  12  13
ENDBRANCH  10  12
ENDBRANCH   1   8
BRANCH   2  15
ATOM     15  N   UNL d   1      -0.305  -2.576   0.018  0.00  0.00    -0.317 N 
ATOM     16  C   UNL d   1      -1.459  -3.073  -0.564  0.00  0.00     0.098 A 
ATOM     17  C   UNL d   1      -1.579  -4.418  -0.291  0.00  0.00     0.019 A 
ATOM     18  C   UNL d   1      -0.459  -4.784   0.479  0.00  0.00     0.019 A 
ATOM     19  C   UNL d   1       0.297  -3.647   0.654  0.00  0.00     0.098 A 
ENDBRANCH   2  15
TORSDOF 4
