REMARK  6 active torsions:
REMARK  status: ('A' for Active; 'I' for Inactive)
REMARK    1  A    between atoms: C_3  and  C_1 
REMARK    2  A    between atoms: O_11  and  C_1 
REMARK    3  A    between atoms: S_2  and  C_9 
REMARK    4  A    between atoms: C_4  and  S_2 
REMARK    5  A    between atoms: N_10  and  C_6 
REMARK    6  A    between atoms: C_9  and  C_12 
ROOT
ATOM      1  C   UNL d   1      -1.489  -4.500  -2.732  0.00  0.00     0.118 C 
ENDROOT
BRANCH   1   2
ATOM      2  S   UNL d   1      -0.720  -6.088  -2.232  0.00  0.00    -0.123 SA
BRANCH   2   3
ATOM      3  C   UNL d   1      -1.326  -7.302  -3.416  0.00  0.00     0.021 A 
ATOM      4  C   UNL d   1      -0.636  -8.539  -3.497  0.00  0.00     0.022 A 
ATOM      5  C   UNL d   1      -1.139  -9.560  -4.314  0.00  0.00     0.024 A 
ATOM      6  C   UNL d   1      -2.260  -9.344  -5.113  0.00  0.00     0.002 A 
ATOM      7  C   UNL d   1      -2.901  -8.107  -5.083  0.00  0.00     0.001 A 
ATOM      8  C   UNL d   1      -2.441  -7.093  -4.234  0.00  0.00     0.020 A 
BRANCH   4   9
ATOM      9  N   UNL d   1       0.426  -8.852  -2.620  0.00  0.00    -0.302 NA
ATOM     10  H   UNL d   1       0.855  -8.008  -2.246  0.00  0.00     0.124 HD
ATOM     11  H   UNL d   1       1.098  -9.506  -3.002  0.00  0.00     0.124 HD
ENDBRANCH   4   9
ENDBRANCH   2   3
ENDBRANCH   1   2
BRANCH   1  12
ATOM     12  C   UNL d   1      -0.898  -3.333  -1.958  0.00  0.00    -0.049 A 
ATOM     13  C   UNL d   1       0.492  -3.159  -1.857  0.00  0.00     0.009 A 
ATOM     14  C   UNL d   1       1.036  -2.131  -1.084  0.00  0.00     0.018 A 
ATOM     15  C   UNL d   1       0.198  -1.228  -0.423  0.00  0.00     0.039 A 
ATOM     16  C   UNL d   1      -1.189  -1.345  -0.580  0.00  0.00     0.018 A 
ATOM     17  C   UNL d   1      -1.732  -2.389  -1.340  0.00  0.00     0.009 A 
BRANCH  15  18
ATOM     18  C   UNL d   1       0.732  -0.150   0.458  0.00  0.00     0.292 C 
ATOM     19  O   UNL d   1       0.051   0.748   0.920  0.00  0.00    -0.259 OA
BRANCH  18  20
ATOM     20  O   UNL d   1       2.056  -0.349   0.680  0.00  0.00    -0.323 OA
ATOM     21  C   UNL d   1       2.672   0.586   1.569  0.00  0.00     0.213 C 
ENDBRANCH  18  20
ENDBRANCH  15  18
ENDBRANCH   1  12
TORSDOF 6
