REMARK  4 active torsions:
REMARK  status: ('A' for Active; 'I' for Inactive)
REMARK    1  A    between atoms: C_6  and  C_3 
REMARK       I    between atoms: N_10  and  C_6 
REMARK    2  A    between atoms: N_8  and  N_10 
REMARK    3  A    between atoms: C_16  and  C_15 
REMARK    4  A    between atoms: O_23  and  C_17 
ROOT
ATOM      1  C   UNL d   1      -4.656   0.536   0.089  0.00  0.00     0.277 C 
ATOM      2  N   UNL d   1      -5.626  -0.459  -0.026  0.00  0.00    -0.266 N 
ATOM      3  O   UNL d   1      -4.943   1.721   0.264  0.00  0.00    -0.265 OA
ATOM      4  H   UNL d   1      -5.353  -1.423  -0.170  0.00  0.00     0.190 HD
ENDROOT
BRANCH   1   5
ATOM      5  C   UNL d   1      -3.264   0.103  -0.013  0.00  0.00     0.075 A 
ATOM      6  S   UNL d   1      -2.784  -1.530  -0.232  0.00  0.00    -0.083 SA
ATOM      7  C   UNL d   1      -1.129  -1.120  -0.264  0.00  0.00     0.023 A 
ATOM      8  C   UNL d   1      -0.935   0.241  -0.113  0.00  0.00    -0.038 A 
ATOM      9  C   UNL d   1      -0.010  -2.057  -0.463  0.00  0.00    -0.012 A 
ATOM     10  C   UNL d   1      -2.162   0.939   0.051  0.00  0.00     0.033 A 
ATOM     11  C   UNL d   1       0.447   0.819  -0.127  0.00  0.00     0.044 C 
ATOM     12  C   UNL d   1       1.359   0.005  -1.061  0.00  0.00     0.044 C 
ATOM     13  C   UNL d   1       1.244  -1.492  -0.818  0.00  0.00    -0.046 A 
ATOM     14  C   UNL d   1       2.362  -2.317  -1.001  0.00  0.00     0.008 A 
ATOM     15  C   UNL d   1       2.254  -3.690  -0.798  0.00  0.00     0.001 A 
ATOM     16  C   UNL d   1       1.030  -4.249  -0.432  0.00  0.00     0.001 A 
ATOM     17  C   UNL d   1      -0.100  -3.439  -0.270  0.00  0.00     0.013 A 
ENDBRANCH   1   5
BRANCH   2  18
ATOM     18  N   UNL d   1      -6.941  -0.116   0.078  0.00  0.00    -0.308 N 
ATOM     19  C   UNL d   1      -7.820  -1.060  -0.022  0.00  0.00     0.118 C 
ATOM     20  HN  UNL d   1      -7.223   0.852   0.230  1.00  0.00     0.186 HD
BRANCH  19  21
ATOM     21  C   UNL d   1      -9.263  -0.754   0.101  0.00  0.00    -0.019 A 
ATOM     22  C   UNL d   1      -9.690   0.562   0.301  0.00  0.00     0.015 A 
ATOM     23  C   UNL d   1     -11.051   0.856   0.439  0.00  0.00     0.037 A 
ATOM     24  C   UNL d   1     -11.995  -0.170   0.381  0.00  0.00     0.068 A 
ATOM     25  C   UNL d   1     -11.564  -1.485   0.173  0.00  0.00     0.037 A 
ATOM     26  C   UNL d   1     -10.202  -1.784   0.031  0.00  0.00     0.015 A 
BRANCH  24  27
ATOM     27  O   UNL d   1     -13.348  -0.021   0.515  0.00  0.00    -0.356 OA
ATOM     28  C   UNL d   1     -13.830   1.300   0.740  0.00  0.00     0.210 C 
ENDBRANCH  24  27
ENDBRANCH  19  21
ENDBRANCH   2  18
TORSDOF 4
