REMARK  4 active torsions:
REMARK  status: ('A' for Active; 'I' for Inactive)
REMARK    1  A    between atoms: N_8  and  C_2 
REMARK    2  A    between atoms: S_13  and  C_3 
REMARK    3  A    between atoms: C_11  and  C_10 
REMARK    4  A    between atoms: O_14  and  C_12 
ROOT
ATOM      1  N   UNL d   1       0.232   2.548   0.233  0.00  0.00    -0.344 N 
ATOM      2  HN  UNL d   1      -0.494   3.123   0.660  1.00  0.00     0.167 HD
ATOM      3  C   UNL d   1       1.364   3.038  -0.167  0.00  0.00     0.104 C 
ENDROOT
BRANCH   1   4
ATOM      4  C   UNL d   1       0.088   1.206   0.041  0.00  0.00     0.165 A 
ATOM      5  S   UNL d   1      -1.380   0.459   0.570  0.00  0.00    -0.026 SA
ATOM      6  C   UNL d   1      -0.782  -1.014  -0.064  0.00  0.00     0.129 A 
ATOM      7  N   UNL d   1       0.417  -0.930  -0.593  0.00  0.00    -0.286 N 
ATOM      8  N   UNL d   1       0.918   0.353  -0.530  0.00  0.00    -0.278 N 
ATOM      9  HN  UNL d   1       0.917  -1.720  -1.002  1.00  0.00     0.188 HD
ATOM     10  HN  UNL d   1       1.837   0.616  -0.888  1.00  0.00     0.189 HD
BRANCH   6  11
ATOM     11  S   UNL d   1      -1.694  -2.505  -0.015  0.00  0.00    -0.108 SA
ATOM     12  C   UNL d   1      -0.584  -3.604  -0.923  0.00  0.00     0.097 C 
ENDBRANCH   6  11
ENDBRANCH   1   4
BRANCH   3  13
ATOM     13  C   UNL d   1       1.655   4.485  -0.081  0.00  0.00     0.012 A 
ATOM     14  C   UNL d   1       0.743   5.408   0.444  0.00  0.00     0.077 A 
ATOM     15  C   UNL d   1       1.056   6.765   0.473  0.00  0.00     0.037 A 
ATOM     16  C   UNL d   1       2.282   7.208  -0.025  0.00  0.00     0.003 A 
ATOM     17  C   UNL d   1       3.197   6.293  -0.546  0.00  0.00     0.001 A 
ATOM     18  C   UNL d   1       2.887   4.931  -0.574  0.00  0.00     0.015 A 
BRANCH  14  19
ATOM     19  O   UNL d   1      -0.481   5.054   0.942  0.00  0.00    -0.360 OA
ATOM     20  H   UNL d   1      -0.572   4.083   0.841  0.00  0.00     0.217 HD
ENDBRANCH  14  19
ENDBRANCH   3  13
TORSDOF 4
