REMARK  8 active torsions:
REMARK  status: ('A' for Active; 'I' for Inactive)
REMARK    1  A    between atoms: N_3  and  C_1 
REMARK    2  A    between atoms: N_7  and  C_1 
REMARK    3  A    between atoms: O_13  and  C_2 
REMARK    4  A    between atoms: C_9  and  N_3 
REMARK    5  A    between atoms: O_18  and  C_5 
REMARK    6  A    between atoms: C_20  and  N_7 
REMARK    7  A    between atoms: C_10  and  C_21 
REMARK    8  A    between atoms: C_21  and  C_20 
ROOT
ATOM      1  N   UNL d   1       2.424   0.032   0.070  0.00  0.00    -0.367 N 
ATOM      2  H   UNL d   1       2.854  -0.344  -0.769  0.00  0.00     0.161 HD
ENDROOT
BRANCH   1   3
ATOM      3  C   UNL d   1       1.072  -0.156   0.120  0.00  0.00     0.172 C 
ATOM      4  S   UNL d   1       0.365  -0.859  -1.224  0.00  0.00    -0.041 SA
BRANCH   3   5
ATOM      5  N   UNL d   1       0.450   0.296   1.266  0.00  0.00    -0.333 N 
ATOM      6  H   UNL d   1       0.809   1.176   1.611  0.00  0.00     0.168 HD
BRANCH   5   7
ATOM      7  C   UNL d   1      -0.815  -0.093   1.757  0.00  0.00     0.034 A 
ATOM      8  C   UNL d   1      -1.286  -1.405   1.633  0.00  0.00     0.032 A 
ATOM      9  C   UNL d   1      -2.558  -1.750   2.090  0.00  0.00     0.044 A 
ATOM     10  C   UNL d   1      -3.351  -0.783   2.690  0.00  0.00     0.116 A 
ATOM     11  C   UNL d   1      -2.878   0.510   2.880  0.00  0.00     0.044 A 
ATOM     12  F   UNL d   1      -4.586  -1.103   3.098  0.00  0.00    -0.206 F 
ATOM     13  C   UNL d   1      -1.596   0.852   2.434  0.00  0.00     0.032 A 
ENDBRANCH   5   7
ENDBRANCH   3   5
ENDBRANCH   1   3
BRANCH   1  14
ATOM     14  C   UNL d   1       3.280   0.458   1.159  0.00  0.00     0.126 C 
BRANCH  14  15
ATOM     15  C   UNL d   1       4.769   0.333   0.829  0.00  0.00     0.058 C 
BRANCH  15  16
ATOM     16  C   UNL d   1       5.571   0.780   2.026  0.00  0.00    -0.054 A 
ATOM     17  C   UNL d   1       5.973  -0.154   2.996  0.00  0.00     0.046 A 
ATOM     18  C   UNL d   1       6.549   0.258   4.208  0.00  0.00     0.102 A 
ATOM     19  C   UNL d   1       6.744   1.632   4.429  0.00  0.00     0.101 A 
ATOM     20  C   UNL d   1       6.364   2.557   3.451  0.00  0.00     0.040 A 
ATOM     21  C   UNL d   1       5.787   2.140   2.253  0.00  0.00     0.010 A 
BRANCH  18  22
ATOM     22  O   UNL d   1       6.879  -0.612   5.214  0.00  0.00    -0.353 OA
ATOM     23  C   UNL d   1       6.655  -2.001   5.005  0.00  0.00     0.210 C 
ENDBRANCH  18  22
BRANCH  19  24
ATOM     24  O   UNL d   1       7.226   2.237   5.563  0.00  0.00    -0.353 OA
ATOM     25  C   UNL d   1       8.158   1.502   6.343  0.00  0.00     0.210 C 
ENDBRANCH  19  24
ENDBRANCH  15  16
ENDBRANCH  14  15
ENDBRANCH   1  14
TORSDOF 8
