REMARK  2 active torsions:
REMARK  status: ('A' for Active; 'I' for Inactive)
REMARK    1  A    between atoms: N_4  and  C_9 
REMARK    2  A    between atoms: C_13  and  C_5 
ROOT
ATOM      1  N   UNL d   1       6.503  -5.568   3.071  0.00  0.00    -0.191 NA
ATOM      2  C   UNL d   1       5.703  -4.924   2.528  0.00  0.00     0.099 C 
ATOM      3  C   UNL d   1       2.836  -2.510   0.534  0.00  0.00    -0.021 A 
ATOM      4  C   UNL d   1       3.663  -3.377  -0.196  0.00  0.00     0.012 A 
ATOM      5  C   UNL d   1       2.955  -2.482   1.938  0.00  0.00     0.012 A 
ATOM      6  C   UNL d   1       4.722  -4.125   1.857  0.00  0.00     0.044 A 
ATOM      7  C   UNL d   1       3.892  -3.280   2.594  0.00  0.00     0.023 A 
ATOM      8  C   UNL d   1       4.600  -4.180   0.464  0.00  0.00     0.023 A 
ENDROOT
BRANCH   3   9
ATOM      9  C   UNL d   1       1.857  -1.582  -0.156  0.00  0.00     0.196 C 
ATOM     10  N   UNL d   1       0.517  -1.872   0.316  0.00  0.00    -0.267 NA
ATOM     11  C   UNL d   1      -0.454  -0.898   0.073  0.00  0.00     0.026 A 
ATOM     12  H   UNL d   1       0.223  -2.820   0.105  0.00  0.00     0.130 HD
ATOM     13  C   UNL d   1      -0.109   0.459  -0.028  0.00  0.00     0.055 A 
ATOM     14  C   UNL d   1      -1.812  -1.236   0.107  0.00  0.00     0.027 A 
ATOM     15  C   UNL d   1       1.321   0.812   0.021  0.00  0.00     0.255 C 
ATOM     16  C   UNL d   1      -1.078   1.464  -0.112  0.00  0.00     0.054 A 
ATOM     17  N   UNL d   1       2.198  -0.224   0.142  0.00  0.00    -0.336 N 
ATOM     18  O   UNL d   1       1.703   1.974  -0.017  0.00  0.00    -0.268 OA
ATOM     19  H   UNL d   1       3.171   0.044   0.103  0.00  0.00     0.164 HD
ATOM     20  C   UNL d   1      -2.426   1.101  -0.082  0.00  0.00     0.103 A 
ATOM     21  C   UNL d   1      -2.798  -0.247   0.015  0.00  0.00     0.038 A 
BRANCH  20  22
ATOM     22  N   UNL d   1      -3.462   2.141  -0.114  0.00  0.00    -0.116 N 
ATOM     23  O   UNL d   1      -3.093   3.322  -0.161  0.00  0.00    -0.532 OA
ATOM     24  O   UNL d   1      -4.645   1.773  -0.090  0.00  0.00    -0.532 OA
ENDBRANCH  20  22
ENDBRANCH   3   9
TORSDOF 2
