REMARK  5 active torsions:
REMARK  status: ('A' for Active; 'I' for Inactive)
REMARK    1  A    between atoms: C_9  and  N_1 
REMARK    2  A    between atoms: N_11  and  C_7 
REMARK    3  A    between atoms: C_8  and  O_12 
REMARK    4  A    between atoms: C_18  and  N_11 
REMARK    5  A    between atoms: O_12  and  C_19 
ROOT
ATOM      1  N   UNL d   1      -1.174   1.117  -0.012  0.00  0.00    -0.220 N 
ATOM      2  C   UNL d   1       0.056  -0.767   0.082  0.00  0.00     0.073 A 
ATOM      3  N   UNL d   1       0.162   1.526  -0.086  0.00  0.00    -0.294 N 
ATOM      4  HN  UNL d   1       0.504   2.483  -0.175  1.00  0.00     0.187 HD
ATOM      5  C   UNL d   1      -1.340  -0.272   0.094  0.00  0.00     0.280 A 
ATOM      6  C   UNL d   1       0.883   0.439  -0.021  0.00  0.00     0.039 A 
ATOM      7  C   UNL d   1       0.342  -2.068   0.157  0.00  0.00     0.107 C 
ATOM      8  O   UNL d   1      -2.331  -0.975   0.178  0.00  0.00    -0.265 OA
ATOM      9  C   UNL d   1       2.374   0.439  -0.044  0.00  0.00     0.071 C 
ENDROOT
BRANCH   7  10
ATOM     10  N   UNL d   1       1.546  -2.724   0.208  0.00  0.00    -0.365 N 
ATOM     11  H   UNL d   1       2.387  -2.168   0.310  0.00  0.00     0.165 HD
BRANCH  10  12
ATOM     12  C   UNL d   1       1.751  -4.114   0.218  0.00  0.00     0.032 A 
ATOM     13  C   UNL d   1       0.825  -5.029  -0.302  0.00  0.00     0.032 A 
ATOM     14  C   UNL d   1       1.042  -6.412  -0.224  0.00  0.00     0.039 A 
ATOM     15  C   UNL d   1       2.200  -6.903   0.369  0.00  0.00     0.078 A 
ATOM     16  C   UNL d   1       3.102  -6.002   0.939  0.00  0.00     0.039 A 
ATOM     17  C   UNL d   1       2.884  -4.624   0.858  0.00  0.00     0.032 A 
BRANCH  15  18
ATOM     18  O   UNL d   1       2.555  -8.209   0.497  0.00  0.00    -0.255 OA
BRANCH  18  19
ATOM     19  C   UNL d   1       2.080  -9.156  -0.448  0.00  0.00     0.530 C 
ATOM     20  F   UNL d   1       1.651  -8.607  -1.603  0.00  0.00    -0.144 F 
ATOM     21  F   UNL d   1       3.096  -9.998  -0.747  0.00  0.00    -0.144 F 
ATOM     22  F   UNL d   1       1.081  -9.880   0.097  0.00  0.00    -0.144 F 
ENDBRANCH  18  19
ENDBRANCH  15  18
ENDBRANCH  10  12
ENDBRANCH   7  10
BRANCH   1  23
ATOM     23  C   UNL d   1      -2.187   2.106   0.021  0.00  0.00     0.060 A 
ATOM     24  C   UNL d   1      -3.523   1.782   0.291  0.00  0.00     0.032 A 
ATOM     25  C   UNL d   1      -4.505   2.777   0.368  0.00  0.00     0.009 A 
ATOM     26  C   UNL d   1      -4.178   4.118   0.157  0.00  0.00    -0.062 A 
ATOM     27  C   UNL d   1      -2.853   4.450  -0.136  0.00  0.00     0.009 A 
ATOM     28  C   UNL d   1      -5.234   5.174   0.285  0.00  0.00     0.048 C 
ATOM     29  C   UNL d   1      -1.869   3.455  -0.199  0.00  0.00     0.032 A 
ENDBRANCH   1  23
TORSDOF 5
