REMARK  9 active torsions:
REMARK  status: ('A' for Active; 'I' for Inactive)
REMARK    1  A    between atoms: C_3  and  C_1 
REMARK    2  A    between atoms: S_5  and  C_3 
REMARK    3  A    between atoms: C_6  and  C_3 
REMARK    4  A    between atoms: O_20  and  C_4 
REMARK    5  A    between atoms: C_11  and  S_5 
REMARK    6  A    between atoms: C_7  and  C_6 
REMARK    7  A    between atoms: C_8  and  C_7 
REMARK    8  A    between atoms: O_22  and  C_12 
REMARK    9  A    between atoms: N_21  and  C_15 
ROOT
ATOM      1  C   UNL d   1      -0.494   2.445  -0.235  0.00  0.00     0.094 C 
ENDROOT
BRANCH   1   2
ATOM      2  C   UNL d   1       0.144   1.051   0.048  0.00  0.00    -0.019 C 
ATOM      3  C   UNL d   1      -0.515  -0.166   0.407  0.00  0.00     0.077 C 
ATOM      4  C   UNL d   1       0.188  -1.400   0.408  0.00  0.00     0.123 C 
ATOM      5 CL   UNL d   1      -2.152  -0.141   0.980  0.00  0.00    -0.081 Cl
ATOM      6  C   UNL d   1       1.572  -1.405   0.116  0.00  0.00     0.103 C 
ATOM      7  C   UNL d   1       2.250  -0.209  -0.088  0.00  0.00     0.040 C 
ATOM      8  C   UNL d   1       1.549   0.995  -0.104  0.00  0.00     0.013 C 
BRANCH   4   9
ATOM      9  O   UNL d   1      -0.271  -2.667   0.682  0.00  0.00    -0.351 OA
ATOM     10  C   UNL d   1      -1.634  -2.994   0.863  0.00  0.00     0.210 C 
ENDBRANCH   4   9
BRANCH   6  11
ATOM     11  O   UNL d   1       2.178  -2.640   0.086  0.00  0.00    -0.353 OA
ATOM     12  C   UNL d   1       3.489  -2.722  -0.453  0.00  0.00     0.210 C 
ENDBRANCH   6  11
ENDBRANCH   1   2
BRANCH   1  13
ATOM     13  S   UNL d   1       0.040   3.088  -1.922  0.00  0.00    -0.118 SA
BRANCH  13  14
ATOM     14  C   UNL d   1      -0.583   1.827  -3.033  0.00  0.00     0.022 A 
ATOM     15  C   UNL d   1      -1.825   1.980  -3.678  0.00  0.00     0.022 A 
ATOM     16  C   UNL d   1      -2.276   0.959  -4.524  0.00  0.00     0.024 A 
ATOM     17  C   UNL d   1      -1.463  -0.138  -4.820  0.00  0.00     0.002 A 
ATOM     18  C   UNL d   1      -0.203  -0.244  -4.242  0.00  0.00     0.001 A 
ATOM     19  C   UNL d   1       0.238   0.737  -3.356  0.00  0.00     0.020 A 
BRANCH  15  20
ATOM     20  N   UNL d   1      -2.705   3.027  -3.334  0.00  0.00    -0.302 NA
ATOM     21  H   UNL d   1      -2.184   3.850  -3.023  0.00  0.00     0.124 HD
ATOM     22  H   UNL d   1      -3.354   3.264  -4.079  0.00  0.00     0.124 HD
ENDBRANCH  15  20
ENDBRANCH  13  14
ENDBRANCH   1  13
BRANCH   1  23
ATOM     23  C   UNL d   1      -2.003   2.582  -0.054  0.00  0.00     0.104 C 
BRANCH  23  24
ATOM     24  C   UNL d   1      -2.704   3.920  -0.252  0.00  0.00     0.167 C 
ATOM     25  O   UNL d   1      -2.069   4.960  -0.419  0.00  0.00    -0.292 OA
BRANCH  24  26
ATOM     26  C   UNL d   1      -4.168   3.843  -0.144  0.00  0.00     0.050 A 
ATOM     27  S   UNL d   1      -5.128   5.244  -0.366  0.00  0.00    -0.098 SA
ATOM     28  C   UNL d   1      -6.582   4.382  -0.082  0.00  0.00     0.050 A 
ATOM     29  C   UNL d   1      -6.353   3.053   0.176  0.00  0.00     0.009 A 
ATOM     30  C   UNL d   1      -4.965   2.741   0.139  0.00  0.00     0.023 A 
ENDBRANCH  24  26
ENDBRANCH  23  24
ENDBRANCH   1  23
TORSDOF 9
