REMARK  4 active torsions:
REMARK  status: ('A' for Active; 'I' for Inactive)
REMARK    1  A    between atoms: C_2  and  C_1 
REMARK    2  A    between atoms: C_4  and  C_2 
REMARK    3  A    between atoms: S_10  and  C_3 
REMARK    4  A    between atoms: S_11  and  C_3 
ROOT
ATOM      1  C   UNL d   1       0.445   1.115   0.738  0.00  0.00     0.207 C 
ATOM      2  O   UNL d   1       0.958   2.113   1.237  0.00  0.00    -0.285 OA
ENDROOT
BRANCH   1   3
ATOM      3  C   UNL d   1       1.264   0.132  -0.033  0.00  0.00     0.083 C 
ATOM      4  C   UNL d   1       2.563  -0.167   0.139  0.00  0.00     0.040 C 
BRANCH   4   5
ATOM      5  S   UNL d   1       3.247  -1.383  -0.930  0.00  0.00    -0.127 SA
ATOM      6  C   UNL d   1       4.595  -0.451  -1.699  0.00  0.00     0.096 C 
ENDBRANCH   4   5
BRANCH   4   7
ATOM      7  S   UNL d   1       3.598   0.486   1.379  0.00  0.00    -0.127 SA
ATOM      8  C   UNL d   1       2.758  -0.075   2.879  0.00  0.00     0.096 C 
ENDBRANCH   4   7
ENDBRANCH   1   3
BRANCH   1   9
ATOM      9  C   UNL d   1      -0.976   0.841   0.852  0.00  0.00     0.124 A 
ATOM     10  O   UNL d   1      -1.519  -0.266   0.254  0.00  0.00    -0.319 OA
ATOM     11  C   UNL d   1      -2.845  -0.277   0.550  0.00  0.00     0.142 A 
ATOM     12  C   UNL d   1      -3.171   0.803   1.335  0.00  0.00     0.027 A 
ATOM     13  C   UNL d   1      -1.971   1.529   1.523  0.00  0.00     0.043 A 
ENDBRANCH   1   9
TORSDOF 4
