REMARK  2 active torsions:
REMARK  status: ('A' for Active; 'I' for Inactive)
REMARK    1  A    between atoms: C_12  and  C_7 
REMARK    2  A    between atoms: C_11  and  C_12 
ROOT
ATOM      1  C   UNL d   1       0.762   2.517  -0.010  0.00  0.00     0.117 C 
ENDROOT
BRANCH   1   2
ATOM      2  C   UNL d   1      -0.469   3.390  -0.012  0.00  0.00    -0.051 A 
ATOM      3  C   UNL d   1      -1.400   3.321   1.036  0.00  0.00     0.014 A 
ATOM      4  C   UNL d   1      -2.533   4.153   1.065  0.00  0.00    -0.056 A 
ATOM      5  C   UNL d   1      -3.500   4.042   2.212  0.00  0.00     0.049 C 
ATOM      6  C   UNL d   1      -2.737   5.076   0.020  0.00  0.00    -0.056 A 
ATOM      7  C   UNL d   1      -1.816   5.130  -1.036  0.00  0.00     0.008 A 
ATOM      8  C   UNL d   1      -3.923   6.002   0.011  0.00  0.00     0.049 C 
ATOM      9  C   UNL d   1      -0.697   4.296  -1.054  0.00  0.00     0.008 A 
ENDBRANCH   1   2
BRANCH   1  10
ATOM     10  C   UNL d   1       0.402   1.258  -0.704  0.00  0.00     0.114 A 
ATOM     11  N   UNL d   1      -0.083   0.160  -0.040  0.00  0.00    -0.270 N 
ATOM     12  N   UNL d   1      -0.225  -0.795  -0.949  0.00  0.00    -0.005 NA
ATOM     13  HN  UNL d   1      -0.294   0.091   0.955  1.00  0.00     0.185 HD
ATOM     14  N   UNL d   1       0.182  -0.236  -2.095  0.00  0.00    -0.225 N 
ATOM     15  N   UNL d   1       0.614   1.033  -2.012  0.00  0.00    -0.275 N 
ATOM     16  H   UNL d   1       0.176  -0.750  -2.971  0.00  0.00     0.205 HD
ATOM     17  HN  UNL d   1       0.992   1.648  -2.733  1.00  0.00     0.189 HD
ENDBRANCH   1  10
TORSDOF 2
