REMARK  5 active torsions:
REMARK  status: ('A' for Active; 'I' for Inactive)
REMARK    1  A    between atoms: C_5  and  C_1 
REMARK    2  A    between atoms: C_6  and  C_2 
REMARK       I    between atoms: N_10  and  C_5 
REMARK    3  A    between atoms: N_7  and  C_16 
REMARK    4  A    between atoms: N_12  and  C_8 
REMARK    5  A    between atoms: C_9  and  N_15 
ROOT
ATOM      1  C   UNL d   1       0.444  -2.749   0.082  0.00  0.00     0.258 C 
ATOM      2  N   UNL d   1      -0.709  -3.565   0.120  0.00  0.00    -0.345 N 
ATOM      3  N   UNL d   1      -2.920  -5.425   0.055  0.00  0.00    -0.376 N 
ATOM      4  O   UNL d   1       1.248  -2.736   1.023  0.00  0.00    -0.267 OA
ATOM      5  C   UNL d   1      -1.646  -3.655  -1.000  0.00  0.00     0.146 C 
ATOM      6  C   UNL d   1      -0.746  -4.729   1.032  0.00  0.00     0.146 C 
ATOM      7  C   UNL d   1      -2.180  -5.262   1.326  0.00  0.00     0.143 C 
ATOM      8  C   UNL d   1      -3.049  -4.144  -0.662  0.00  0.00     0.143 C 
ENDROOT
BRANCH   1   9
ATOM      9  C   UNL d   1       0.657  -1.888  -1.083  0.00  0.00     0.092 C 
ATOM     10  C   UNL d   1       0.998  -0.480  -1.167  0.00  0.00     0.086 C 
ATOM     11  N   UNL d   1       0.939  -0.090  -2.453  0.00  0.00    -0.259 N 
ATOM     12  O   UNL d   1       0.781  -1.202  -3.214  0.00  0.00    -0.241 OA
ATOM     13  HN  UNL d   1       1.002   0.869  -2.794  1.00  0.00     0.195 HD
ATOM     14  C   UNL d   1       0.641  -2.283  -2.422  0.00  0.00     0.090 C 
ATOM     15  C   UNL d   1       0.460  -3.537  -3.188  0.00  0.00     0.080 C 
BRANCH  10  16
ATOM     16  C   UNL d   1       1.316   0.572  -0.177  0.00  0.00     0.037 A 
ATOM     17  C   UNL d   1       2.340   1.522  -0.457  0.00  0.00     0.048 A 
ATOM     18 CL   UNL d   1       3.432   1.407  -1.809  0.00  0.00    -0.083 Cl
ATOM     19  C   UNL d   1       2.555   2.644   0.361  0.00  0.00     0.025 A 
ATOM     20  C   UNL d   1       1.800   2.827   1.508  0.00  0.00     0.003 A 
ATOM     21  C   UNL d   1       0.822   1.893   1.830  0.00  0.00     0.025 A 
ATOM     22  C   UNL d   1       0.558   0.793   0.988  0.00  0.00     0.048 A 
ATOM     23 CL   UNL d   1      -0.816  -0.159   1.435  0.00  0.00    -0.083 Cl
ENDBRANCH  10  16
ENDBRANCH   1   9
BRANCH   3  24
ATOM     24  C   UNL d   1      -4.015  -6.275  -0.087  0.00  0.00     0.058 A 
ATOM     25  C   UNL d   1      -4.369  -6.855  -1.341  0.00  0.00     0.067 A 
ATOM     26  C   UNL d   1      -5.541  -7.621  -1.484  0.00  0.00     0.068 A 
ATOM     27  C   UNL d   1      -6.354  -7.855  -0.376  0.00  0.00     0.105 A 
ATOM     28  C   UNL d   1      -6.034  -7.303   0.866  0.00  0.00     0.038 A 
ATOM     29  C   UNL d   1      -4.877  -6.521   1.000  0.00  0.00     0.034 A 
BRANCH  25  30
ATOM     30  N   UNL d   1      -3.540  -6.758  -2.499  0.00  0.00    -0.331 N 
ATOM     31  C   UNL d   1      -3.986  -6.686  -3.808  0.00  0.00     0.097 A 
ATOM     32  C   UNL d   1      -2.901  -6.662  -4.656  0.00  0.00     0.019 A 
ATOM     33  C   UNL d   1      -1.744  -6.724  -3.853  0.00  0.00     0.019 A 
ATOM     34  C   UNL d   1      -2.161  -6.778  -2.541  0.00  0.00     0.097 A 
ENDBRANCH  25  30
BRANCH  27  35
ATOM     35  N   UNL d   1      -7.534  -8.712  -0.526  0.00  0.00    -0.116 N 
ATOM     36  O   UNL d   1      -7.761  -9.212  -1.632  0.00  0.00    -0.532 OA
ATOM     37  O   UNL d   1      -8.243  -8.894   0.476  0.00  0.00    -0.532 OA
ENDBRANCH  27  35
ENDBRANCH   3  24
TORSDOF 5
