REMARK  5 active torsions:
REMARK  status: ('A' for Active; 'I' for Inactive)
REMARK    1  A    between atoms: C_5  and  C_1 
REMARK    2  A    between atoms: N_9  and  C_2 
REMARK       I    between atoms: C_8  and  N_9 
REMARK       I    between atoms: N_15  and  C_8 
REMARK    3  A    between atoms: C_10  and  O_11 
REMARK    4  A    between atoms: O_11  and  C_14 
REMARK    5  A    between atoms: C_21  and  N_15 
ROOT
ATOM      1  C   UNL d   1       1.645  -2.685  -0.462  0.00  0.00     0.325 C 
ATOM      2  N   UNL d   1       0.425  -2.426   0.099  0.00  0.00    -0.304 N 
ATOM      3  N   UNL d   1       2.653  -1.834  -0.087  0.00  0.00    -0.307 N 
ATOM      4  O   UNL d   1       1.928  -3.668  -1.152  0.00  0.00    -0.247 OA
ATOM      5  H   UNL d   1       0.477  -1.938   0.984  0.00  0.00     0.171 HD
ATOM      6  H   UNL d   1       3.572  -2.242  -0.214  0.00  0.00     0.170 HD
ENDROOT
BRANCH   2   7
ATOM      7  C   UNL d   1      -0.742  -3.159  -0.092  0.00  0.00     0.097 A 
ATOM      8  C   UNL d   1      -1.788  -3.320   0.880  0.00  0.00     0.097 A 
ATOM      9  N   UNL d   1      -2.803  -4.030   0.368  0.00  0.00    -0.258 N 
ATOM     10  O   UNL d   1      -2.414  -4.388  -0.901  0.00  0.00    -0.240 OA
ATOM     11  HN  UNL d   1      -3.685  -4.257   0.827  1.00  0.00     0.195 HD
ATOM     12  C   UNL d   1      -1.170  -3.905  -1.168  0.00  0.00     0.101 A 
ATOM     13  C   UNL d   1      -0.644  -4.308  -2.487  0.00  0.00     0.081 C 
BRANCH   8  14
ATOM     14  C   UNL d   1      -1.794  -2.949   2.297  0.00  0.00     0.038 A 
ATOM     15  C   UNL d   1      -2.807  -2.141   2.845  0.00  0.00     0.048 A 
ATOM     16 CL   UNL d   1      -4.023  -1.378   1.877  0.00  0.00    -0.083 Cl
ATOM     17  C   UNL d   1      -2.860  -1.896   4.226  0.00  0.00     0.025 A 
ATOM     18  C   UNL d   1      -1.898  -2.433   5.077  0.00  0.00     0.003 A 
ATOM     19  C   UNL d   1      -0.874  -3.211   4.551  0.00  0.00     0.025 A 
ATOM     20  C   UNL d   1      -0.824  -3.476   3.177  0.00  0.00     0.048 A 
ATOM     21 CL   UNL d   1       0.468  -4.512   2.659  0.00  0.00    -0.083 Cl
ENDBRANCH   8  14
ENDBRANCH   2   7
BRANCH   3  22
ATOM     22  C   UNL d   1       2.582  -0.541   0.463  0.00  0.00     0.051 A 
ATOM     23  C   UNL d   1       1.510   0.332   0.276  0.00  0.00     0.119 A 
ATOM     24  N   UNL d   1       1.414   1.560   0.842  0.00  0.00    -0.344 N 
ATOM     25  C   UNL d   1       2.460   1.954   1.603  0.00  0.00     0.148 A 
ATOM     26  HN  UNL d   1       0.597   2.155   0.701  1.00  0.00     0.167 HD
ATOM     27  C   UNL d   1       3.588   1.175   1.820  0.00  0.00     0.059 A 
ATOM     28  C   UNL d   1       3.655  -0.083   1.226  0.00  0.00     0.035 A 
BRANCH  25  29
ATOM     29  O   UNL d   1       2.448   3.197   2.228  0.00  0.00    -0.290 OA
BRANCH  29  30
ATOM     30  C   UNL d   1       1.465   4.071   1.826  0.00  0.00     0.121 A 
ATOM     31  C   UNL d   1       0.389   4.332   2.683  0.00  0.00     0.069 A 
ATOM     32 CL   UNL d   1       0.224   3.517   4.197  0.00  0.00    -0.081 Cl
ATOM     33  C   UNL d   1      -0.578   5.282   2.333  0.00  0.00     0.027 A 
ATOM     34  C   UNL d   1      -0.468   5.980   1.130  0.00  0.00     0.003 A 
ATOM     35  C   UNL d   1       0.610   5.733   0.279  0.00  0.00     0.027 A 
ATOM     36  C   UNL d   1       1.582   4.791   0.630  0.00  0.00     0.069 A 
ATOM     37 CL   UNL d   1       2.933   4.590  -0.428  0.00  0.00    -0.081 Cl
ENDBRANCH  29  30
ENDBRANCH  25  29
ENDBRANCH   3  22
TORSDOF 5
