REMARK  7 active torsions:
REMARK  status: ('A' for Active; 'I' for Inactive)
REMARK    1  A    between atoms: C_7  and  C_1 
REMARK    2  A    between atoms: O_16  and  C_2 
REMARK    3  A    between atoms: C_3  and  N_9 
REMARK    4  A    between atoms: N_12  and  C_3 
REMARK    5  A    between atoms: N_9  and  N_5 
REMARK    6  A    between atoms: C_17  and  N_12 
REMARK    7  A    between atoms: C_14  and  C_17 
ROOT
ATOM      1  N   UNL d   1      -1.868   3.497   0.073  0.00  0.00    -0.302 N 
ATOM      2  HN  UNL d   1      -2.059   4.499   0.098  1.00  0.00     0.186 HD
ATOM      3  C   UNL d   1      -0.631   3.096   0.066  0.00  0.00     0.035 C 
ATOM      4  C   UNL d   1      -0.180   1.649   0.035  0.00  0.00     0.070 C 
ENDROOT
BRANCH   1   5
ATOM      5  N   UNL d   1      -2.918   2.630   0.047  0.00  0.00    -0.276 N 
ATOM      6  H   UNL d   1      -2.753   1.636   0.009  0.00  0.00     0.189 HD
BRANCH   5   7
ATOM      7  C   UNL d   1      -4.233   3.096   0.044  0.00  0.00     0.186 C 
ATOM      8  S   UNL d   1      -4.653   4.720   0.081  0.00  0.00    -0.040 SA
BRANCH   7   9
ATOM      9  N   UNL d   1      -5.149   2.053   0.003  0.00  0.00    -0.365 N 
ATOM     10  H   UNL d   1      -4.794   1.109   0.016  0.00  0.00     0.161 HD
BRANCH   9  11
ATOM     11  C   UNL d   1      -6.603   2.222  -0.013  0.00  0.00     0.130 C 
BRANCH  11  12
ATOM     12  C   UNL d   1      -7.419   0.908  -0.079  0.00  0.00    -0.035 C 
ATOM     13  C   UNL d   1      -7.170   0.041   1.165  0.00  0.00     0.016 C 
ATOM     14  C   UNL d   1      -8.917   1.273  -0.126  0.00  0.00     0.016 C 
ATOM     15  C   UNL d   1      -7.076   0.107  -1.346  0.00  0.00     0.016 C 
ENDBRANCH  11  12
ENDBRANCH   9  11
ENDBRANCH   7   9
ENDBRANCH   5   7
ENDBRANCH   1   5
BRANCH   3  16
ATOM     16  C   UNL d   1       0.441   4.164   0.093  0.00  0.00     0.027 A 
ATOM     17  C   UNL d   1       0.110   5.532   0.124  0.00  0.00     0.116 A 
ATOM     18  C   UNL d   1       1.119   6.502   0.145  0.00  0.00     0.153 A 
ATOM     19  F   UNL d   1       0.806   7.806   0.173  0.00  0.00    -0.203 F 
ATOM     20  C   UNL d   1       2.459   6.145   0.136  0.00  0.00     0.087 A 
ATOM     21  C   UNL d   1       2.785   4.801   0.107  0.00  0.00     0.120 A 
ATOM     22  C   UNL d   1       1.800   3.812   0.086  0.00  0.00     0.058 A 
ATOM     23  F   UNL d   1       4.073   4.436   0.098  0.00  0.00    -0.206 F 
BRANCH  17  24
ATOM     24  O   UNL d   1      -1.179   5.998   0.135  0.00  0.00    -0.357 OA
ATOM     25  H   UNL d   1      -1.802   5.235   0.117  0.00  0.00     0.218 HD
ENDBRANCH  17  24
ENDBRANCH   3  16
TORSDOF 7
