REMARK  4 active torsions:
REMARK  status: ('A' for Active; 'I' for Inactive)
REMARK    1  A    between atoms: C_7  and  C_1 
REMARK    2  A    between atoms: C_9  and  C_6 
REMARK    3  A    between atoms: C_22  and  C_18 
REMARK    4  A    between atoms: C_23  and  C_22 
ROOT
ATOM      1  C   UNL d   1       0.050   1.079   0.179  0.00  0.00     0.141 A 
ATOM      2  N   UNL d   1       0.655   0.027   0.829  0.00  0.00    -0.318 N 
ATOM      3  HN  UNL d   1       1.113   0.021   1.740  1.00  0.00     0.169 HD
ATOM      4  N   UNL d   1      -0.504   0.742  -0.995  0.00  0.00    -0.242 N 
ATOM      5  HN  UNL d   1      -1.013   1.341  -1.645  1.00  0.00     0.196 HD
ATOM      6  C   UNL d   1       0.497  -0.968  -0.013  0.00  0.00     0.182 A 
ATOM      7  O   UNL d   1      -0.222  -0.619  -1.119  0.00  0.00    -0.217 OA
ENDROOT
BRANCH   6   8
ATOM      8  C   UNL d   1       1.020  -2.326   0.051  0.00  0.00     0.017 A 
ATOM      9  C   UNL d   1       1.878  -2.679   1.103  0.00  0.00     0.016 A 
ATOM     10  C   UNL d   1       2.424  -3.962   1.186  0.00  0.00     0.008 A 
ATOM     11  C   UNL d   1       2.124  -4.923   0.214  0.00  0.00    -0.058 A 
ATOM     12  C   UNL d   1       1.257  -4.581  -0.830  0.00  0.00     0.008 A 
ATOM     13  C   UNL d   1       0.716  -3.294  -0.916  0.00  0.00     0.016 A 
BRANCH  11  14
ATOM     14  C   UNL d   1       2.735  -6.302   0.296  0.00  0.00     0.038 C 
BRANCH  14  15
ATOM     15  C   UNL d   1       3.609  -6.669  -0.908  0.00  0.00     0.000 C 
ATOM     16  C   UNL d   1       4.818  -5.758  -1.073  0.00  0.00     0.005 C 
ENDBRANCH  14  15
ENDBRANCH  11  14
ENDBRANCH   6   8
BRANCH   1  17
ATOM     17  C   UNL d   1       0.070   2.433   0.723  0.00  0.00     0.053 A 
ATOM     18  C   UNL d   1       1.255   2.967   1.275  0.00  0.00     0.049 A 
ATOM     19 CL   UNL d   1       2.768   2.118   1.308  0.00  0.00    -0.083 Cl
ATOM     20  C   UNL d   1       1.282   4.265   1.807  0.00  0.00     0.025 A 
ATOM     21  C   UNL d   1       0.142   5.058   1.787  0.00  0.00     0.003 A 
ATOM     22  C   UNL d   1      -1.033   4.553   1.240  0.00  0.00     0.025 A 
ATOM     23  C   UNL d   1      -1.074   3.252   0.716  0.00  0.00     0.049 A 
ATOM     24 CL   UNL d   1      -2.619   2.730   0.125  0.00  0.00    -0.083 Cl
ENDBRANCH   1  17
TORSDOF 4
