REMARK  5 active torsions:
REMARK  status: ('A' for Active; 'I' for Inactive)
REMARK    1  A    between atoms: C_5  and  C_1 
REMARK       I    between atoms: N_11  and  C_5 
REMARK    2  A    between atoms: N_7  and  C_16 
REMARK    3  A    between atoms: C_15  and  N_11 
REMARK    4  A    between atoms: O_17  and  C_13 
REMARK    5  A    between atoms: C_16  and  C_15 
ROOT
ATOM      1  C   UNL d   1      -2.380  -0.009   0.036  0.00  0.00     0.102 A 
ATOM      2  N   UNL d   1      -1.526  -1.096   0.021  0.00  0.00    -0.351 N 
ATOM      3  C   UNL d   1      -1.576   1.117   0.079  0.00  0.00     0.049 A 
ATOM      4  C   UNL d   1      -0.224   0.704   0.077  0.00  0.00    -0.004 A 
ATOM      5  C   UNL d   1      -0.211  -0.687   0.040  0.00  0.00     0.043 A 
ATOM      6  C   UNL d   1       0.993   1.402   0.101  0.00  0.00     0.050 A 
ATOM      7  C   UNL d   1       0.982  -1.419   0.027  0.00  0.00     0.033 A 
ATOM      8  C   UNL d   1       2.199   0.697   0.090  0.00  0.00     0.069 A 
ATOM      9  C   UNL d   1       2.188  -0.698   0.053  0.00  0.00     0.039 A 
ATOM     10  H   UNL d   1      -1.843  -2.057  -0.013  0.00  0.00     0.166 HD
ENDROOT
BRANCH   1  11
ATOM     11  C   UNL d   1      -3.816  -0.153  -0.000  0.00  0.00     0.268 C 
ATOM     12  O   UNL d   1      -4.359  -1.253   0.001  0.00  0.00    -0.266 OA
ATOM     13  N   UNL d   1      -4.523   1.031  -0.050  0.00  0.00    -0.354 N 
ATOM     14  H   UNL d   1      -4.029   1.901   0.079  0.00  0.00     0.162 HD
BRANCH  13  15
ATOM     15  C   UNL d   1      -5.973   1.039  -0.015  0.00  0.00     0.153 C 
BRANCH  15  16
ATOM     16  C   UNL d   1      -6.575   2.290  -0.684  0.00  0.00     0.292 C 
BRANCH  16  17
ATOM     17  N   UNL d   1      -8.050   2.320  -0.708  0.00  0.00     0.094 N 
ATOM     18  C   UNL d   1      -8.663   1.183  -1.436  0.00  0.00     0.298 C 
ATOM     19  C   UNL d   1      -8.457   1.240  -2.958  0.00  0.00     0.198 C 
ATOM     20  O   UNL d   1      -8.980   2.459  -3.500  0.00  0.00    -0.388 OA
ATOM     21  C   UNL d   1      -8.375   3.597  -2.874  0.00  0.00     0.198 C 
ATOM     22  C   UNL d   1      -8.550   3.564  -1.343  0.00  0.00     0.298 C 
ENDBRANCH  16  17
ENDBRANCH  15  16
ENDBRANCH  13  15
ENDBRANCH   1  11
BRANCH   8  23
ATOM     23  O   UNL d   1       3.306   1.500   0.118  0.00  0.00    -0.356 OA
ATOM     24  C   UNL d   1       4.570   0.854   0.109  0.00  0.00     0.210 C 
ENDBRANCH   8  23
TORSDOF 5
