REMARK  4 active torsions:
REMARK  status: ('A' for Active; 'I' for Inactive)
REMARK    1  A    between atoms: N_2  and  C_1 
REMARK    2  A    between atoms: S_7  and  C_3 
REMARK    3  A    between atoms: C_5  and  C_6 
REMARK    4  A    between atoms: C_14  and  S_7 
ROOT
ATOM      1  C   UNL d   1       1.440  -0.161  -0.116  0.00  0.00     0.120 A 
ATOM      2  C   UNL d   1       0.641  -1.310  -0.082  0.00  0.00     0.038 A 
ATOM      3  C   UNL d   1       0.905   1.131   0.023  0.00  0.00     0.046 A 
ATOM      4  C   UNL d   1      -0.480   1.309   0.162  0.00  0.00    -0.032 A 
ATOM      5  C   UNL d   1      -0.744  -1.122   0.028  0.00  0.00     0.022 A 
ATOM      6  C   UNL d   1      -1.293   0.163   0.145  0.00  0.00     0.011 A 
ENDROOT
BRANCH   2   7
ATOM      7  S   UNL d   1       1.255  -2.990  -0.152  0.00  0.00    -0.088 SA
BRANCH   7   8
ATOM      8  C   UNL d   1       1.327  -3.401   1.585  0.00  0.00     0.005 A 
ATOM      9  C   UNL d   1       0.487  -4.389   2.107  0.00  0.00     0.019 A 
ATOM     10  C   UNL d   1       0.532  -4.710   3.468  0.00  0.00     0.008 A 
ATOM     11  C   UNL d   1       1.421  -4.051   4.326  0.00  0.00    -0.062 A 
ATOM     12  C   UNL d   1       2.277  -3.081   3.797  0.00  0.00     0.008 A 
ATOM     13  C   UNL d   1       1.436  -4.367   5.792  0.00  0.00     0.048 C 
ATOM     14  C   UNL d   1       2.236  -2.768   2.436  0.00  0.00     0.019 A 
ENDBRANCH   7   8
ENDBRANCH   2   7
BRANCH   1  15
ATOM     15  N   UNL d   1       2.874  -0.260  -0.294  0.00  0.00    -0.114 N 
ATOM     16  O   UNL d   1       3.287  -0.682  -1.381  0.00  0.00    -0.532 OA
ATOM     17  O   UNL d   1       3.582   0.138   0.644  0.00  0.00    -0.532 OA
ENDBRANCH   1  15
BRANCH   4  18
ATOM     18  C   UNL d   1      -1.106   2.674   0.367  0.00  0.00     0.141 C 
ATOM     19  S   UNL d   1      -0.679   3.877  -0.921  0.00  0.00    -0.148 SA
ATOM     20  C   UNL d   1      -0.975   5.327   0.117  0.00  0.00     0.085 C 
ATOM     21  C   UNL d   1      -0.301   5.061   1.450  0.00  0.00     0.085 C 
ATOM     22  S   UNL d   1      -0.699   3.375   2.003  0.00  0.00    -0.148 SA
ENDBRANCH   4  18
TORSDOF 4
