REMARK  6 active torsions:
REMARK  status: ('A' for Active; 'I' for Inactive)
REMARK    1  A    between atoms: N_2  and  C_1 
REMARK       I    between atoms: C_4  and  N_2 
REMARK    2  A    between atoms: C_15  and  C_4 
REMARK    3  A    between atoms: C_5  and  C_16 
REMARK    4  A    between atoms: O_12  and  C_5 
REMARK    5  A    between atoms: S_11  and  C_15 
REMARK    6  A    between atoms: C_16  and  S_11 
ROOT
ATOM      1  N   UNL d   1       1.774  -2.365   0.129  0.00  0.00    -0.326 N 
ATOM      2  C   UNL d   1       3.091  -2.617   0.478  0.00  0.00     0.231 C 
ATOM      3  O   UNL d   1       3.900  -1.801   0.921  0.00  0.00    -0.272 OA
ATOM      4  H   UNL d   1       1.220  -3.164  -0.148  0.00  0.00     0.169 HD
ENDROOT
BRANCH   1   5
ATOM      5  C   UNL d   1       1.110  -1.114   0.151  0.00  0.00     0.043 A 
ATOM      6  C   UNL d   1       1.812   0.089   0.301  0.00  0.00     0.072 A 
ATOM      7  C   UNL d   1       1.143   1.308   0.290  0.00  0.00     0.118 A 
ATOM      8  F   UNL d   1       1.843   2.443   0.423  0.00  0.00    -0.206 F 
ATOM      9  C   UNL d   1      -0.230   1.370   0.130  0.00  0.00     0.043 A 
ATOM     10  C   UNL d   1      -0.946   0.187  -0.025  0.00  0.00     0.012 A 
ATOM     11  C   UNL d   1      -0.295  -1.065  -0.008  0.00  0.00    -0.035 A 
ATOM     12  C   UNL d   1      -1.164  -2.281  -0.200  0.00  0.00     0.050 C 
ENDBRANCH   1   5
BRANCH   2  13
ATOM     13  C   UNL d   1       3.536  -4.053   0.241  0.00  0.00     0.177 C 
BRANCH  13  14
ATOM     14  S   UNL d   1       4.453  -4.190  -1.328  0.00  0.00    -0.149 SA
BRANCH  14  15
ATOM     15  C   UNL d   1       5.793  -2.971  -1.081  0.00  0.00     0.184 C 
BRANCH  15  16
ATOM     16  C   UNL d   1       6.661  -3.282   0.118  0.00  0.00     0.149 C 
ATOM     17  O   UNL d   1       7.590  -4.078   0.099  0.00  0.00    -0.649 OA
BRANCH  16  18
ATOM     18  O   UNL d   1       6.319  -2.616   1.245  0.00  0.00    -0.776 OA
ATOM     19  H   UNL d   1       5.516  -2.043   1.163  0.00  0.00     0.167 HD
ENDBRANCH  16  18
ENDBRANCH  15  16
ENDBRANCH  14  15
ENDBRANCH  13  14
ENDBRANCH   2  13
TORSDOF 6
