REMARK  6 active torsions:
REMARK  status: ('A' for Active; 'I' for Inactive)
REMARK    1  A    between atoms: C_9  and  N_3 
REMARK    2  A    between atoms: C_11  and  C_4 
REMARK    3  A    between atoms: N_8  and  C_10 
REMARK    4  A    between atoms: C_13  and  C_9 
REMARK    5  A    between atoms: O_17  and  C_13 
REMARK    6  A    between atoms: C_21  and  O_17 
ROOT
ATOM      1  N   UNL d   1      -0.407  -1.189   0.174  0.00  0.00    -0.268 N 
ATOM      2  HN  UNL d   1      -0.639  -2.159   0.390  1.00  0.00     0.190 HD
ATOM      3  N   UNL d   1       0.794  -0.610  -0.026  0.00  0.00    -0.207 N 
ATOM      4  C   UNL d   1      -1.211  -0.125   0.008  0.00  0.00     0.144 A 
ATOM      5  N   UNL d   1      -0.505   1.043  -0.178  0.00  0.00    -0.266 N 
ATOM      6  HN  UNL d   1      -0.897   1.977  -0.297  1.00  0.00     0.186 HD
ATOM      7  N   UNL d   1       0.780   0.722  -0.171  0.00  0.00    -0.002 NA
ENDROOT
BRANCH   4   8
ATOM      8  C   UNL d   1      -2.667  -0.174   0.007  0.00  0.00     0.013 A 
ATOM      9  C   UNL d   1      -3.348  -1.383   0.223  0.00  0.00     0.051 A 
ATOM     10  C   UNL d   1      -4.751  -1.410   0.191  0.00  0.00     0.103 A 
ATOM     11  C   UNL d   1      -5.483  -0.242  -0.057  0.00  0.00     0.036 A 
ATOM     12  C   UNL d   1      -4.810   0.959  -0.266  0.00  0.00     0.003 A 
ATOM     13  C   UNL d   1      -3.414   0.991  -0.234  0.00  0.00     0.015 A 
BRANCH  10  14
ATOM     14  N   UNL d   1      -5.460  -2.677   0.412  0.00  0.00    -0.116 N 
ATOM     15  O   UNL d   1      -4.782  -3.688   0.640  0.00  0.00    -0.532 OA
ATOM     16  O   UNL d   1      -6.699  -2.660   0.360  0.00  0.00    -0.532 OA
ENDBRANCH  10  14
ENDBRANCH   4   8
BRANCH   3  17
ATOM     17  C   UNL d   1       2.029  -1.349   0.059  0.00  0.00     0.278 C 
BRANCH  17  18
ATOM     18  C   UNL d   1       2.369  -1.963  -1.264  0.00  0.00     0.280 C 
ATOM     19  O   UNL d   1       1.734  -1.857  -2.303  0.00  0.00    -0.263 OA
BRANCH  18  20
ATOM     20  O   UNL d   1       3.492  -2.731  -1.116  0.00  0.00    -0.320 OA
BRANCH  20  21
ATOM     21  C   UNL d   1       3.737  -3.673  -2.171  0.00  0.00     0.174 C 
ATOM     22  C   UNL d   1       3.021  -4.964  -1.817  0.00  0.00     0.034 C 
ENDBRANCH  20  21
ENDBRANCH  18  20
ENDBRANCH  17  18
ENDBRANCH   3  17
TORSDOF 6
