REMARK  4 active torsions:
REMARK  status: ('A' for Active; 'I' for Inactive)
REMARK    1  A    between atoms: C_5  and  C_1 
REMARK    2  A    between atoms: C_7  and  C_2 
REMARK       I    between atoms: N_11  and  C_7 
REMARK    3  A    between atoms: C_8  and  C_10 
REMARK    4  A    between atoms: C_10  and  N_11 
ROOT
ATOM      1  C   UNL d   1      -1.226  -0.634   0.314  0.00  0.00     0.086 A 
ATOM      2  C   UNL d   1       0.050  -1.232   0.042  0.00  0.00     0.092 A 
ATOM      3  N   UNL d   1      -1.059   0.644   0.697  0.00  0.00    -0.259 N 
ATOM      4  HN  UNL d   1      -1.788   1.283   1.014  1.00  0.00     0.195 HD
ATOM      5  O   UNL d   1       0.278   0.924   0.578  0.00  0.00    -0.241 OA
ATOM      6  C   UNL d   1       0.942  -0.188   0.174  0.00  0.00     0.090 A 
ATOM      7  C   UNL d   1       2.389   0.006  -0.051  0.00  0.00     0.080 C 
ENDROOT
BRANCH   2   8
ATOM      8  C   UNL d   1       0.351  -2.602  -0.327  0.00  0.00     0.256 C 
ATOM      9  N   UNL d   1       1.516  -3.094   0.239  0.00  0.00    -0.352 N 
ATOM     10  H   UNL d   1       1.882  -2.570   1.024  0.00  0.00     0.163 HD
ATOM     11  O   UNL d   1      -0.401  -3.283  -1.017  0.00  0.00    -0.267 OA
BRANCH   9  12
ATOM     12  C   UNL d   1       1.786  -4.515   0.236  0.00  0.00     0.166 C 
BRANCH  12  13
ATOM     13  C   UNL d   1       3.151  -4.901   0.760  0.00  0.00     0.020 A 
ATOM     14  C   UNL d   1       3.829  -5.944   0.111  0.00  0.00     0.126 A 
ATOM     15  F   UNL d   1       3.287  -6.516  -0.973  0.00  0.00    -0.205 F 
ATOM     16  C   UNL d   1       5.054  -6.433   0.562  0.00  0.00     0.043 A 
ATOM     17  C   UNL d   1       5.640  -5.891   1.698  0.00  0.00     0.005 A 
ATOM     18  C   UNL d   1       4.988  -4.862   2.374  0.00  0.00     0.024 A 
ATOM     19  C   UNL d   1       3.750  -4.378   1.919  0.00  0.00     0.044 A 
ATOM     20 CL   UNL d   1       3.010  -3.137   2.869  0.00  0.00    -0.084 Cl
ENDBRANCH  12  13
ENDBRANCH   9  12
ENDBRANCH   2   8
BRANCH   1  21
ATOM     21  C   UNL d   1      -2.577  -1.201   0.280  0.00  0.00     0.037 A 
ATOM     22  C   UNL d   1      -2.935  -2.316   1.062  0.00  0.00     0.048 A 
ATOM     23 CL   UNL d   1      -1.827  -3.116   2.130  0.00  0.00    -0.083 Cl
ATOM     24  C   UNL d   1      -4.251  -2.808   1.057  0.00  0.00     0.025 A 
ATOM     25  C   UNL d   1      -5.239  -2.178   0.306  0.00  0.00     0.003 A 
ATOM     26  C   UNL d   1      -4.910  -1.069  -0.465  0.00  0.00     0.025 A 
ATOM     27  C   UNL d   1      -3.591  -0.592  -0.491  0.00  0.00     0.048 A 
ATOM     28 CL   UNL d   1      -3.300   0.763  -1.537  0.00  0.00    -0.083 Cl
ENDBRANCH   1  21
TORSDOF 4
