REMARK  9 active torsions:
REMARK  status: ('A' for Active; 'I' for Inactive)
REMARK    1  A    between atoms: N_4  and  C_1 
REMARK    2  A    between atoms: N_9  and  C_1 
REMARK    3  A    between atoms: N_2  and  N_9 
REMARK    4  A    between atoms: C_5  and  N_4 
REMARK    5  A    between atoms: C_6  and  C_10 
REMARK    6  A    between atoms: C_13  and  C_20 
REMARK    7  A    between atoms: O_21  and  C_13 
REMARK    8  A    between atoms: O_17  and  C_14 
REMARK    9  A    between atoms: C_20  and  O_17 
ROOT
ATOM      1  N   UNL d   1      -1.115  -0.887   0.780  0.00  0.00    -0.302 N 
ATOM      2  HN  UNL d   1      -0.114  -1.069   0.701  1.00  0.00     0.186 HD
ATOM      3  C   UNL d   1      -1.795  -1.281   1.823  0.00  0.00     0.035 C 
ATOM      4  C   UNL d   1      -3.311  -1.100   1.915  0.00  0.00     0.070 C 
ENDROOT
BRANCH   1   5
ATOM      5  N   UNL d   1      -1.800  -0.215  -0.209  0.00  0.00    -0.276 N 
ATOM      6  H   UNL d   1      -2.721   0.148  -0.002  0.00  0.00     0.189 HD
BRANCH   5   7
ATOM      7  C   UNL d   1      -1.511  -0.365  -1.564  0.00  0.00     0.186 C 
ATOM      8  S   UNL d   1      -0.277  -1.314  -2.172  0.00  0.00    -0.040 SA
BRANCH   7   9
ATOM      9  N   UNL d   1      -2.434   0.349  -2.328  0.00  0.00    -0.361 N 
ATOM     10  H   UNL d   1      -2.745   1.210  -1.901  0.00  0.00     0.162 HD
BRANCH   9  11
ATOM     11  C   UNL d   1      -2.574   0.293  -3.786  0.00  0.00     0.092 C 
ATOM     12  C   UNL d   1      -3.170  -1.037  -4.339  0.00  0.00     0.031 C 
ATOM     13  C   UNL d   1      -4.561  -1.263  -3.777  0.00  0.00    -0.024 C 
ATOM     14  C   UNL d   1      -3.567  -0.588  -5.752  0.00  0.00     0.019 C 
ATOM     15  C   UNL d   1      -5.370  -0.346  -4.330  0.00  0.00    -0.026 C 
ATOM     16  C   UNL d   1      -4.518   0.499  -5.245  0.00  0.00     0.010 C 
ATOM     17  C   UNL d   1      -3.578   1.350  -4.358  0.00  0.00     0.034 C 
ENDBRANCH   9  11
ENDBRANCH   7   9
ENDBRANCH   5   7
ENDBRANCH   1   5
BRANCH   3  18
ATOM     18  C   UNL d   1      -1.115  -1.980   2.976  0.00  0.00     0.021 A 
ATOM     19  C   UNL d   1       0.197  -1.686   3.402  0.00  0.00     0.081 A 
ATOM     20  C   UNL d   1       0.669  -2.270   4.595  0.00  0.00     0.038 A 
ATOM     21  C   UNL d   1      -0.102  -3.183   5.314  0.00  0.00     0.003 A 
ATOM     22  C   UNL d   1      -1.354  -3.543   4.845  0.00  0.00     0.001 A 
ATOM     23  C   UNL d   1      -1.851  -2.953   3.683  0.00  0.00     0.016 A 
BRANCH  19  24
ATOM     24  O   UNL d   1       0.972  -0.819   2.664  0.00  0.00    -0.340 OA
BRANCH  24  25
ATOM     25  C   UNL d   1       2.384  -0.933   2.880  0.00  0.00     0.285 C 
BRANCH  25  26
ATOM     26  C   UNL d   1       3.198  -0.227   1.810  0.00  0.00     0.164 C 
ATOM     27  O   UNL d   1       4.412  -0.101   1.865  0.00  0.00    -0.648 OA
BRANCH  26  28
ATOM     28  O   UNL d   1       2.456   0.252   0.788  0.00  0.00    -0.775 OA
ATOM     29  H   UNL d   1       1.507   0.008   0.886  0.00  0.00     0.167 HD
ENDBRANCH  26  28
ENDBRANCH  25  26
ENDBRANCH  24  25
ENDBRANCH  19  24
ENDBRANCH   3  18
TORSDOF 9
