REMARK  8 active torsions:
REMARK  status: ('A' for Active; 'I' for Inactive)
REMARK    1  A    between atoms: C_9  and  C_1 
REMARK    2  A    between atoms: C_10  and  C_2 
REMARK    3  A    between atoms: S_3  and  C_18 
REMARK    4  A    between atoms: N_7  and  S_3 
REMARK    5  A    between atoms: C_20  and  N_4 
REMARK    6  A    between atoms: C_8  and  N_7 
REMARK       I    between atoms: N_17  and  C_10 
REMARK    7  A    between atoms: N_11  and  C_21 
REMARK    8  A    between atoms: C_36  and  N_17 
ROOT
ATOM      1  C   UNL d   1      -0.622  -2.394   0.111  0.00  0.00     0.259 C 
ATOM      2  N   UNL d   1       0.241  -3.466   0.071  0.00  0.00    -0.323 N 
ATOM      3  O   UNL d   1      -0.286  -1.245   0.388  0.00  0.00    -0.267 OA
ATOM      4  H   UNL d   1      -0.095  -4.343  -0.297  0.00  0.00     0.169 HD
ENDROOT
BRANCH   1   5
ATOM      5  C   UNL d   1      -2.025  -2.637  -0.235  0.00  0.00     0.082 A 
ATOM      6  C   UNL d   1      -2.795  -3.782  -0.460  0.00  0.00     0.157 A 
ATOM      7  N   UNL d   1      -4.063  -3.336  -0.830  0.00  0.00    -0.251 N 
ATOM      8  N   UNL d   1      -4.146  -1.986  -0.784  0.00  0.00    -0.303 N 
ATOM      9  C   UNL d   1      -2.946  -1.580  -0.394  0.00  0.00     0.127 A 
ATOM     10  HN  UNL d   1      -4.956  -1.406  -1.003  1.00  0.00     0.186 HD
BRANCH   6  11
ATOM     11  C   UNL d   1      -2.460  -5.211  -0.437  0.00  0.00     0.435 C 
ATOM     12  F   UNL d   1      -1.124  -5.440  -0.359  0.00  0.00    -0.165 F 
ATOM     13  F   UNL d   1      -3.002  -5.841   0.633  0.00  0.00    -0.165 F 
ATOM     14  F   UNL d   1      -2.861  -5.866  -1.553  0.00  0.00    -0.165 F 
ENDBRANCH   6  11
BRANCH   7  15
ATOM     15  C   UNL d   1      -5.187  -4.049  -1.359  0.00  0.00     0.057 C 
ATOM     16  C   UNL d   1      -5.467  -5.378  -1.024  0.00  0.00     0.034 C 
ATOM     17  C   UNL d   1      -6.417  -6.105  -1.746  0.00  0.00     0.038 C 
ATOM     18  C   UNL d   1      -7.125  -5.486  -2.781  0.00  0.00     0.103 C 
ATOM     19  C   UNL d   1      -6.947  -4.124  -3.043  0.00  0.00     0.038 C 
ATOM     20  C   UNL d   1      -5.989  -3.405  -2.321  0.00  0.00     0.034 C 
BRANCH  18  21
ATOM     21  N   UNL d   1      -8.033  -6.283  -3.613  0.00  0.00    -0.116 N 
ATOM     22  O   UNL d   1      -8.680  -5.694  -4.490  0.00  0.00    -0.532 OA
ATOM     23  O   UNL d   1      -8.084  -7.504  -3.401  0.00  0.00    -0.532 OA
ENDBRANCH  18  21
ENDBRANCH   7  15
ENDBRANCH   1   5
BRANCH   2  24
ATOM     24  C   UNL d   1       1.556  -3.518   0.595  0.00  0.00     0.035 A 
ATOM     25  C   UNL d   1       2.160  -2.449   1.263  0.00  0.00     0.031 A 
ATOM     26  C   UNL d   1       3.379  -2.620   1.916  0.00  0.00     0.027 A 
ATOM     27  C   UNL d   1       3.998  -3.868   1.903  0.00  0.00     0.075 A 
ATOM     28  C   UNL d   1       3.466  -4.919   1.157  0.00  0.00     0.027 A 
ATOM     29  C   UNL d   1       2.240  -4.741   0.507  0.00  0.00     0.031 A 
BRANCH  27  30
ATOM     30  S   UNL d   1       5.439  -4.113   2.897  0.00  0.00     0.247 S 
ATOM     31  O   UNL d   1       6.190  -5.215   2.333  0.00  0.00    -0.205 OA
ATOM     32  O   UNL d   1       6.075  -2.838   3.148  0.00  0.00    -0.205 OA
BRANCH  30  33
ATOM     33  N   UNL d   1       4.771  -4.710   4.331  0.00  0.00    -0.165 NA
ATOM     34  H   UNL d   1       5.322  -5.514   4.622  0.00  0.00     0.147 HD
BRANCH  33  35
ATOM     35  C   UNL d   1       4.422  -3.799   5.318  0.00  0.00     0.117 A 
ATOM     36  N   UNL d   1       3.204  -3.256   5.394  0.00  0.00    -0.249 N 
ATOM     37  O   UNL d   1       3.218  -2.471   6.536  0.00  0.00    -0.241 OA
ATOM     38  HN  UNL d   1       2.428  -3.392   4.747  1.00  0.00     0.196 HD
ATOM     39  C   UNL d   1       4.442  -2.552   7.124  0.00  0.00     0.075 A 
ATOM     40  C   UNL d   1       5.240  -3.397   6.391  0.00  0.00     0.079 A 
ATOM     41  C   UNL d   1       4.639  -1.761   8.351  0.00  0.00     0.079 C 
ENDBRANCH  33  35
ENDBRANCH  30  33
ENDBRANCH  27  30
ENDBRANCH   2  24
TORSDOF 8
