REMARK  4 active torsions:
REMARK  status: ('A' for Active; 'I' for Inactive)
REMARK    1  A    between atoms: C_9  and  C_1 
REMARK    2  A    between atoms: N_4  and  C_5 
REMARK    3  A    between atoms: O_15  and  C_9 
REMARK    4  A    between atoms: C_18  and  O_15 
ROOT
ATOM      1  C   UNL d   1      -2.369  -0.260   0.022  0.00  0.00     0.105 A 
ATOM      2  C   UNL d   1      -1.362   0.834   0.050  0.00  0.00     0.202 A 
ATOM      3  C   UNL d   1       0.443  -0.913   0.040  0.00  0.00     0.079 A 
ATOM      4  C   UNL d   1       1.817  -1.227   0.029  0.00  0.00     0.130 A 
ATOM      5  C   UNL d   1       0.082   0.451   0.026  0.00  0.00     0.044 A 
ATOM      6  N   UNL d   1      -0.583  -1.870   0.104  0.00  0.00    -0.362 N 
ATOM      7  C   UNL d   1      -1.903  -1.519   0.053  0.00  0.00     0.110 A 
ATOM      8  O   UNL d   1      -1.668   2.019   0.106  0.00  0.00    -0.286 OA
ATOM      9  C   UNL d   1       2.790  -0.210  -0.003  0.00  0.00     0.038 A 
ATOM     10  C   UNL d   1       1.054   1.462  -0.007  0.00  0.00     0.018 A 
ATOM     11  C   UNL d   1       2.405   1.131  -0.021  0.00  0.00     0.004 A 
ATOM     12  H   UNL d   1      -0.334  -2.861   0.036  0.00  0.00     0.165 HD
ENDROOT
BRANCH   1  13
ATOM     13  C   UNL d   1      -3.826  -0.086  -0.121  0.00  0.00     0.298 C 
ATOM     14  O   UNL d   1      -4.639  -0.974   0.106  0.00  0.00    -0.259 OA
BRANCH  13  15
ATOM     15  O   UNL d   1      -4.108   1.112  -0.680  0.00  0.00    -0.318 OA
BRANCH  15  16
ATOM     16  C   UNL d   1      -5.409   1.243  -1.265  0.00  0.00     0.174 C 
ATOM     17  C   UNL d   1      -5.313   0.799  -2.714  0.00  0.00     0.034 C 
ENDBRANCH  15  16
ENDBRANCH  13  15
ENDBRANCH   1  13
BRANCH   4  18
ATOM     18  N   UNL d   1       2.280  -2.625   0.043  0.00  0.00    -0.113 N 
ATOM     19  O   UNL d   1       1.431  -3.527   0.019  0.00  0.00    -0.532 OA
ATOM     20  O   UNL d   1       3.504  -2.826   0.070  0.00  0.00    -0.532 OA
ENDBRANCH   4  18
TORSDOF 4
