REMARK  5 active torsions:
REMARK  status: ('A' for Active; 'I' for Inactive)
REMARK    1  A    between atoms: C_9  and  C_1 
REMARK    2  A    between atoms: N_6  and  C_2 
REMARK    3  A    between atoms: C_8  and  C_16 
REMARK    4  A    between atoms: O_20  and  C_9 
REMARK    5  A    between atoms: N_10  and  O_20 
ROOT
ATOM      1  C   UNL d   1       2.749  -1.570  -0.008  0.00  0.00     0.320 C 
ATOM      2  O   UNL d   1       2.857  -2.659  -0.556  0.00  0.00    -0.257 OA
ENDROOT
BRANCH   1   3
ATOM      3  C   UNL d   1       1.503  -0.823   0.018  0.00  0.00     0.104 A 
ATOM      4  C   UNL d   1       0.185  -1.281  -0.028  0.00  0.00     0.145 A 
ATOM      5  N   UNL d   1      -0.614  -0.164  -0.106  0.00  0.00    -0.280 N 
ATOM      6  C   UNL d   1      -2.052  -0.021  -0.063  0.00  0.00     0.179 C 
ATOM      7  N   UNL d   1       0.097   0.985  -0.087  0.00  0.00    -0.307 N 
ATOM      8  C   UNL d   1       1.365   0.584  -0.016  0.00  0.00     0.129 A 
ATOM      9  HN  UNL d   1      -0.256   1.942  -0.120  1.00  0.00     0.186 HD
BRANCH   4  10
ATOM     10  N   UNL d   1      -0.272  -2.602   0.024  0.00  0.00    -0.317 N 
ATOM     11  C   UNL d   1      -1.421  -3.115  -0.549  0.00  0.00     0.098 A 
ATOM     12  C   UNL d   1      -1.510  -4.463  -0.286  0.00  0.00     0.019 A 
ATOM     13  C   UNL d   1      -0.384  -4.809   0.482  0.00  0.00     0.019 A 
ATOM     14  C   UNL d   1       0.345  -3.656   0.671  0.00  0.00     0.098 A 
ENDBRANCH   4  10
ENDBRANCH   1   3
BRANCH   1  15
ATOM     15  O   UNL d   1       3.767  -0.896   0.646  0.00  0.00    -0.195 OA
BRANCH  15  16
ATOM     16  N   UNL d   1       4.946  -1.671   0.622  0.00  0.00    -0.268 N 
ATOM     17  C   UNL d   1       5.887  -1.095   1.298  0.00  0.00     0.130 C 
ATOM     18  HN  UNL d   1       5.042  -2.564   0.139  1.00  0.00     0.194 HD
BRANCH  17  19
ATOM     19  C   UNL d   1       7.215  -1.724   1.447  0.00  0.00     0.042 A 
ATOM     20  C   UNL d   1       7.698  -2.579   0.451  0.00  0.00     0.129 A 
ATOM     21  F   UNL d   1       7.020  -2.770  -0.690  0.00  0.00    -0.205 F 
ATOM     22  C   UNL d   1       8.921  -3.234   0.590  0.00  0.00     0.043 A 
ATOM     23  C   UNL d   1       9.686  -3.038   1.736  0.00  0.00     0.005 A 
ATOM     24  C   UNL d   1       9.230  -2.170   2.728  0.00  0.00     0.025 A 
ATOM     25  C   UNL d   1       8.002  -1.507   2.584  0.00  0.00     0.048 A 
ATOM     26 CL   UNL d   1       7.511  -0.466   3.873  0.00  0.00    -0.083 Cl
ENDBRANCH  17  19
ENDBRANCH  15  16
ENDBRANCH   1  15
TORSDOF 5
