REMARK  1 active torsions:
REMARK  status: ('A' for Active; 'I' for Inactive)
REMARK    1  A    between atoms: C_9  and  C_4 
ROOT
ATOM      1  N   UNL d   1       0.917   0.496  -0.058  0.00  0.00    -0.322 N 
ATOM      2  C   UNL d   1       1.730  -0.612  -0.136  0.00  0.00     0.044 A 
ATOM      3  N   UNL d   1      -0.319  -2.034  -0.052  0.00  0.00    -0.374 N 
ATOM      4  C   UNL d   1       1.107  -1.954  -0.347  0.00  0.00     0.165 C 
ATOM      5  C   UNL d   1      -0.495   0.419  -0.060  0.00  0.00     0.065 A 
ATOM      6  C   UNL d   1      -1.069  -0.861   0.017  0.00  0.00     0.056 A 
ATOM      7  C   UNL d   1       1.719   1.612   0.045  0.00  0.00     0.097 A 
ATOM      8  C   UNL d   1       3.046  -0.197  -0.066  0.00  0.00     0.029 A 
ATOM      9  C   UNL d   1       3.037   1.209   0.059  0.00  0.00     0.020 A 
ATOM     10  C   UNL d   1      -1.293   1.570  -0.083  0.00  0.00     0.032 A 
ATOM     11  C   UNL d   1      -2.464  -0.957   0.084  0.00  0.00     0.031 A 
ATOM     12  C   UNL d   1      -2.681   1.447  -0.031  0.00  0.00     0.002 A 
ATOM     13  C   UNL d   1      -3.266   0.186   0.060  0.00  0.00     0.002 A 
ATOM     14  H   UNL d   1      -0.592  -2.751   0.613  0.00  0.00     0.160 HD
ENDROOT
BRANCH   4  15
ATOM     15  C   UNL d   1       1.826  -3.084   0.383  0.00  0.00    -0.029 A 
ATOM     16  C   UNL d   1       2.020  -3.050   1.776  0.00  0.00     0.012 A 
ATOM     17  C   UNL d   1       2.676  -4.098   2.426  0.00  0.00     0.043 A 
ATOM     18  C   UNL d   1       3.130  -5.186   1.690  0.00  0.00     0.116 A 
ATOM     19  C   UNL d   1       2.941  -5.248   0.315  0.00  0.00     0.043 A 
ATOM     20  F   UNL d   1       3.757  -6.190   2.315  0.00  0.00    -0.206 F 
ATOM     21  C   UNL d   1       2.288  -4.202  -0.338  0.00  0.00     0.012 A 
ENDBRANCH   4  15
TORSDOF 1
