REMARK  4 active torsions:
REMARK  status: ('A' for Active; 'I' for Inactive)
REMARK    1  A    between atoms: C_11  and  C_3 
REMARK    2  A    between atoms: N_4  and  C_9 
REMARK    3  A    between atoms: C_13  and  C_5 
REMARK    4  A    between atoms: C_7  and  C_10 
ROOT
ATOM      1  N   UNL d   1       1.415  -0.584  -0.038  0.00  0.00    -0.349 N 
ATOM      2  HN  UNL d   1       2.300  -1.090  -0.058  1.00  0.00     0.166 HD
ATOM      3  C   UNL d   1       0.224  -1.154   0.006  0.00  0.00     0.084 A 
ATOM      4  C   UNL d   1       1.295   0.800  -0.051  0.00  0.00     0.050 A 
ATOM      5  S   UNL d   1      -1.099  -0.044  -0.000  0.00  0.00    -0.081 SA
ATOM      6  C   UNL d   1      -0.004   1.265  -0.010  0.00  0.00     0.082 A 
ENDROOT
BRANCH   3   7
ATOM      7  C   UNL d   1      -0.016  -2.610   0.019  0.00  0.00    -0.002 A 
ATOM      8  C   UNL d   1      -1.163  -3.175   0.598  0.00  0.00     0.015 A 
ATOM      9  C   UNL d   1      -1.375  -4.558   0.585  0.00  0.00     0.017 A 
ATOM     10  C   UNL d   1      -0.440  -5.417  -0.004  0.00  0.00     0.048 A 
ATOM     11  C   UNL d   1       0.717  -4.862  -0.572  0.00  0.00     0.017 A 
ATOM     12  C   UNL d   1       0.927  -3.477  -0.556  0.00  0.00     0.015 A 
BRANCH  10  13
ATOM     13  C   UNL d   1      -0.664  -6.909  -0.029  0.00  0.00     0.417 C 
ATOM     14  F   UNL d   1      -1.831  -7.293   0.564  0.00  0.00    -0.166 F 
ATOM     15  F   UNL d   1      -0.711  -7.409  -1.295  0.00  0.00    -0.166 F 
ATOM     16  F   UNL d   1       0.320  -7.598   0.611  0.00  0.00    -0.166 F 
ENDBRANCH  10  13
ENDBRANCH   3   7
BRANCH   4  17
ATOM     17  C   UNL d   1       2.466   1.672  -0.091  0.00  0.00    -0.009 A 
ATOM     18  C   UNL d   1       2.401   2.958  -0.653  0.00  0.00     0.016 A 
ATOM     19  C   UNL d   1       3.530   3.783  -0.692  0.00  0.00     0.037 A 
ATOM     20  C   UNL d   1       4.741   3.320  -0.166  0.00  0.00     0.102 A 
ATOM     21  C   UNL d   1       4.826   2.040   0.398  0.00  0.00     0.037 A 
ATOM     22  C   UNL d   1       3.689   1.223   0.429  0.00  0.00     0.016 A 
BRANCH  20  23
ATOM     23  N   UNL d   1       5.929   4.181  -0.216  0.00  0.00    -0.116 N 
ATOM     24  O   UNL d   1       6.983   3.737   0.260  0.00  0.00    -0.532 OA
ATOM     25  O   UNL d   1       5.807   5.302  -0.731  0.00  0.00    -0.532 OA
ENDBRANCH  20  23
ENDBRANCH   4  17
TORSDOF 4
