REMARK  9 active torsions:
REMARK  status: ('A' for Active; 'I' for Inactive)
REMARK    1  A    between atoms: S_2  and  C_1 
REMARK    2  A    between atoms: N_9  and  S_2 
REMARK    3  A    between atoms: C_7  and  C_3 
REMARK    4  A    between atoms: C_12  and  N_4 
REMARK    5  A    between atoms: C_14  and  C_5 
REMARK    6  A    between atoms: O_23  and  C_7 
REMARK    7  A    between atoms: C_8  and  C_13 
REMARK    8  A    between atoms: C_19  and  N_9 
REMARK    9  A    between atoms: C_30  and  O_23 
ROOT
ATOM      1  C   UNL d   1      -0.372  -1.203   0.017  0.00  0.00     0.121 A 
ATOM      2  C   UNL d   1       0.973  -0.732  -0.064  0.00  0.00     0.087 A 
ATOM      3  N   UNL d   1      -0.426   1.050   0.020  0.00  0.00    -0.312 N 
ATOM      4  C   UNL d   1      -1.241  -0.099   0.050  0.00  0.00     0.074 A 
ATOM      5  C   UNL d   1       0.909   0.657   0.004  0.00  0.00     0.031 A 
ATOM      6  C   UNL d   1       2.065   1.606   0.109  0.00  0.00     0.070 C 
ENDROOT
BRANCH   1   7
ATOM      7  S   UNL d   1      -0.852  -2.878  -0.035  0.00  0.00     0.249 S 
ATOM      8  O   UNL d   1      -1.923  -2.937  -1.001  0.00  0.00    -0.205 OA
ATOM      9  O   UNL d   1       0.339  -3.667  -0.250  0.00  0.00    -0.205 OA
BRANCH   7  10
ATOM     10  N   UNL d   1      -1.508  -3.338   1.464  0.00  0.00    -0.181 NA
ATOM     11  H   UNL d   1      -1.806  -4.311   1.370  0.00  0.00     0.146 HD
BRANCH  10  12
ATOM     12  C   UNL d   1      -0.745  -3.087   2.644  0.00  0.00     0.022 A 
ATOM     13  C   UNL d   1      -0.854  -1.851   3.286  0.00  0.00     0.025 A 
ATOM     14  C   UNL d   1      -0.175  -1.606   4.479  0.00  0.00     0.018 A 
ATOM     15  C   UNL d   1       0.641  -2.593   5.043  0.00  0.00     0.048 A 
ATOM     16  C   UNL d   1       0.769  -3.825   4.376  0.00  0.00     0.018 A 
ATOM     17  C   UNL d   1       0.085  -4.069   3.179  0.00  0.00     0.025 A 
BRANCH  15  18
ATOM     18  C   UNL d   1       1.363  -2.346   6.345  0.00  0.00     0.417 C 
ATOM     19  F   UNL d   1       1.145  -1.103   6.860  0.00  0.00    -0.166 F 
ATOM     20  F   UNL d   1       0.991  -3.222   7.320  0.00  0.00    -0.166 F 
ATOM     21  F   UNL d   1       2.713  -2.468   6.224  0.00  0.00    -0.166 F 
ENDBRANCH  15  18
ENDBRANCH  10  12
ENDBRANCH   7  10
ENDBRANCH   1   7
BRANCH   2  22
ATOM     22  C   UNL d   1       2.230  -1.455  -0.261  0.00  0.00     0.296 C 
ATOM     23  O   UNL d   1       3.032  -1.121  -1.126  0.00  0.00    -0.259 OA
BRANCH  22  24
ATOM     24  O   UNL d   1       2.434  -2.466   0.628  0.00  0.00    -0.318 OA
BRANCH  24  25
ATOM     25  C   UNL d   1       3.459  -3.406   0.260  0.00  0.00     0.174 C 
ATOM     26  C   UNL d   1       4.410  -3.612   1.419  0.00  0.00     0.034 C 
ENDBRANCH  24  25
ENDBRANCH  22  24
ENDBRANCH   2  22
BRANCH   4  27
ATOM     27  C   UNL d   1      -2.728  -0.069  -0.048  0.00  0.00    -0.007 A 
ATOM     28  C   UNL d   1      -3.374   0.721  -1.011  0.00  0.00     0.014 A 
ATOM     29  C   UNL d   1      -4.771   0.813  -1.059  0.00  0.00     0.001 A 
ATOM     30  C   UNL d   1      -5.552   0.070  -0.180  0.00  0.00     0.000 A 
ATOM     31  C   UNL d   1      -4.936  -0.760   0.747  0.00  0.00     0.001 A 
ATOM     32  C   UNL d   1      -3.540  -0.815   0.817  0.00  0.00     0.014 A 
ENDBRANCH   4  27
BRANCH   3  33
ATOM     33  C   UNL d   1      -0.871   2.412  -0.012  0.00  0.00     0.040 A 
ATOM     34  C   UNL d   1      -1.909   2.844   0.817  0.00  0.00     0.030 A 
ATOM     35  C   UNL d   1      -2.383   4.157   0.717  0.00  0.00     0.002 A 
ATOM     36  C   UNL d   1      -1.812   5.041  -0.198  0.00  0.00     0.000 A 
ATOM     37  C   UNL d   1      -0.765   4.619  -1.016  0.00  0.00     0.002 A 
ATOM     38  C   UNL d   1      -0.296   3.307  -0.927  0.00  0.00     0.030 A 
ENDBRANCH   3  33
TORSDOF 9
