REMARK  4 active torsions:
REMARK  status: ('A' for Active; 'I' for Inactive)
REMARK    1  A    between atoms: C_2  and  C_1 
REMARK       I    between atoms: N_8  and  C_2 
REMARK    2  A    between atoms: C_14  and  C_5 
REMARK    3  A    between atoms: C_7  and  C_10 
REMARK    4  A    between atoms: C_11  and  N_9 
ROOT
ATOM      1  C   UNL d   1       0.067  -2.665   0.131  0.00  0.00     0.256 C 
ATOM      2  N   UNL d   1      -0.971  -3.580  -0.023  0.00  0.00    -0.345 N 
ATOM      3  N   UNL d   1      -3.394  -5.036   0.013  0.00  0.00    -0.364 N 
ATOM      4  O   UNL d   1       0.895  -2.769   1.030  0.00  0.00    -0.267 OA
ATOM      5  C   UNL d   1      -1.765  -3.787  -1.245  0.00  0.00     0.146 C 
ATOM      6  C   UNL d   1      -1.166  -4.638   0.989  0.00  0.00     0.146 C 
ATOM      7  C   UNL d   1      -3.248  -3.882  -0.879  0.00  0.00     0.144 C 
ATOM      8  C   UNL d   1      -2.671  -4.905   1.287  0.00  0.00     0.144 C 
ENDROOT
BRANCH   1   9
ATOM      9  C   UNL d   1       0.117  -1.540  -0.800  0.00  0.00     0.064 C 
ATOM     10  C   UNL d   1      -0.961  -0.796  -1.367  0.00  0.00     0.057 C 
ATOM     11  C   UNL d   1      -0.429   0.097  -2.267  0.00  0.00     0.087 C 
ATOM     12  O   UNL d   1       0.932   0.052  -2.185  0.00  0.00    -0.314 OA
ATOM     13  C   UNL d   1       1.258  -0.907  -1.266  0.00  0.00     0.065 C 
ATOM     14  C   UNL d   1       2.703  -1.058  -0.992  0.00  0.00     0.077 C 
BRANCH  11  15
ATOM     15  C   UNL d   1      -1.021   1.035  -3.216  0.00  0.00    -0.002 A 
ATOM     16  C   UNL d   1      -2.409   1.021  -3.442  0.00  0.00     0.016 A 
ATOM     17  C   UNL d   1      -3.010   1.938  -4.308  0.00  0.00     0.024 A 
ATOM     18  C   UNL d   1      -2.224   2.877  -4.970  0.00  0.00     0.034 A 
ATOM     19  C   UNL d   1      -0.844   2.890  -4.785  0.00  0.00     0.024 A 
ATOM     20 CL   UNL d   1      -2.966   4.031  -6.005  0.00  0.00    -0.084 Cl
ATOM     21  C   UNL d   1      -0.244   1.970  -3.916  0.00  0.00     0.016 A 
ENDBRANCH  11  15
ENDBRANCH   1   9
BRANCH   3  22
ATOM     22  C   UNL d   1      -4.523  -5.822  -0.079  0.00  0.00     0.103 A 
ATOM     23  N   UNL d   1      -5.173  -6.211   1.036  0.00  0.00    -0.352 N 
ATOM     24  C   UNL d   1      -6.256  -7.019   0.903  0.00  0.00     0.106 A 
ATOM     25  HN  UNL d   1      -4.858  -5.905   1.957  1.00  0.00     0.166 HD
ATOM     26  C   UNL d   1      -6.730  -7.496  -0.307  0.00  0.00     0.063 A 
ATOM     27  C   UNL d   1      -6.043  -7.111  -1.452  0.00  0.00     0.021 A 
ATOM     28  C   UNL d   1      -4.940  -6.274  -1.333  0.00  0.00     0.049 A 
BRANCH  26  29
ATOM     29  C   UNL d   1      -7.914  -8.406  -0.391  0.00  0.00     0.418 C 
ATOM     30  F   UNL d   1      -8.509  -8.646   0.808  0.00  0.00    -0.166 F 
ATOM     31  F   UNL d   1      -8.890  -7.912  -1.202  0.00  0.00    -0.166 F 
ATOM     32  F   UNL d   1      -7.592  -9.626  -0.901  0.00  0.00    -0.166 F 
ENDBRANCH  26  29
ENDBRANCH   3  22
TORSDOF 4
