REMARK  5 active torsions:
REMARK  status: ('A' for Active; 'I' for Inactive)
REMARK    1  A    between atoms: C_6  and  C_1 
REMARK    2  A    between atoms: C_8  and  C_2 
REMARK    3  A    between atoms: C_12  and  N_3 
REMARK       I    between atoms: N_10  and  C_8 
REMARK       I    between atoms: C_9  and  N_11 
REMARK    4  A    between atoms: C_13  and  C_9 
REMARK    5  A    between atoms: N_11  and  N_10 
ROOT
ATOM      1  C   UNL d   1       1.149  -0.741  -0.282  0.00  0.00     0.157 A 
ATOM      2  C   UNL d   1      -0.131  -1.259  -0.058  0.00  0.00     0.084 A 
ATOM      3  N   UNL d   1       1.060   0.639  -0.115  0.00  0.00    -0.251 N 
ATOM      4  N   UNL d   1      -0.191   0.996   0.274  0.00  0.00    -0.303 N 
ATOM      5  HN  UNL d   1      -0.517   1.929   0.527  1.00  0.00     0.186 HD
ATOM      6  C   UNL d   1      -0.900  -0.123   0.257  0.00  0.00     0.127 A 
ENDROOT
BRANCH   2   7
ATOM      7  C   UNL d   1      -0.682  -2.611  -0.047  0.00  0.00     0.273 C 
ATOM      8  N   UNL d   1       0.118  -3.648  -0.465  0.00  0.00    -0.263 N 
ATOM      9  H   UNL d   1       1.110  -3.569  -0.682  0.00  0.00     0.190 HD
ATOM     10  O   UNL d   1      -1.837  -2.822   0.330  0.00  0.00    -0.266 OA
BRANCH   8  11
ATOM     11  N   UNL d   1      -0.349  -4.960  -0.309  0.00  0.00    -0.263 N 
ATOM     12  C   UNL d   1       0.543  -5.994  -0.522  0.00  0.00     0.270 C 
ATOM     13  O   UNL d   1       1.713  -5.799  -0.840  0.00  0.00    -0.266 OA
ATOM     14  H   UNL d   1      -1.249  -5.067   0.155  0.00  0.00     0.190 HD
BRANCH  12  15
ATOM     15  C   UNL d   1       0.019  -7.376  -0.346  0.00  0.00     0.033 A 
ATOM     16  C   UNL d   1      -1.347  -7.671  -0.452  0.00  0.00     0.019 A 
ATOM     17  C   UNL d   1      -1.789  -8.992  -0.346  0.00  0.00     0.025 A 
ATOM     18  C   UNL d   1      -0.870 -10.021  -0.141  0.00  0.00     0.034 A 
ATOM     19  C   UNL d   1       0.491  -9.738  -0.029  0.00  0.00     0.025 A 
ATOM     20 CL   UNL d   1      -1.418 -11.648  -0.046  0.00  0.00    -0.084 Cl
ATOM     21  C   UNL d   1       0.934  -8.418  -0.135  0.00  0.00     0.019 A 
ENDBRANCH  12  15
ENDBRANCH   8  11
ENDBRANCH   2   7
BRANCH   1  22
ATOM     22  C   UNL d   1       2.430  -1.405  -0.549  0.00  0.00     0.435 C 
ATOM     23  F   UNL d   1       2.392  -2.726  -0.248  0.00  0.00    -0.165 F 
ATOM     24  F   UNL d   1       2.764  -1.335  -1.860  0.00  0.00    -0.165 F 
ATOM     25  F   UNL d   1       3.456  -0.896   0.171  0.00  0.00    -0.165 F 
ENDBRANCH   1  22
BRANCH   3  26
ATOM     26  C   UNL d   1       2.021   1.695  -0.266  0.00  0.00     0.057 A 
ATOM     27  C   UNL d   1       3.158   1.594  -1.075  0.00  0.00     0.033 A 
ATOM     28  C   UNL d   1       4.049   2.671  -1.186  0.00  0.00     0.026 A 
ATOM     29  C   UNL d   1       3.808   3.857  -0.499  0.00  0.00     0.034 A 
ATOM     30  C   UNL d   1       2.678   3.981   0.300  0.00  0.00     0.026 A 
ATOM     31 CL   UNL d   1       4.898   5.177  -0.658  0.00  0.00    -0.084 Cl
ATOM     32  C   UNL d   1       1.785   2.910   0.409  0.00  0.00     0.033 A 
ENDBRANCH   3  26
TORSDOF 5
