REMARK  6 active torsions:
REMARK  status: ('A' for Active; 'I' for Inactive)
REMARK    1  A    between atoms: C_2  and  C_1 
REMARK       I    between atoms: N_9  and  C_2 
REMARK    2  A    between atoms: C_8  and  C_3 
REMARK    3  A    between atoms: O_16  and  C_8 
REMARK    4  A    between atoms: C_13  and  N_9 
REMARK    5  A    between atoms: O_12  and  C_14 
REMARK    6  A    between atoms: C_15  and  O_12 
ROOT
ATOM      1  C   UNL d   1       0.636   2.091  -1.406  0.00  0.00     0.227 C 
ATOM      2  N   UNL d   1      -0.486   2.496  -2.127  0.00  0.00    -0.327 N 
ATOM      3  O   UNL d   1       1.806   2.288  -1.727  0.00  0.00    -0.273 OA
ATOM      4  H   UNL d   1      -1.395   2.223  -1.770  0.00  0.00     0.169 HD
ENDROOT
BRANCH   2   5
ATOM      5  C   UNL d   1      -0.493   3.430  -3.194  0.00  0.00     0.034 C 
ATOM      6  C   UNL d   1       0.672   3.962  -3.750  0.00  0.00     0.032 C 
ATOM      7  C   UNL d   1       0.619   5.016  -4.663  0.00  0.00     0.039 C 
ATOM      8  C   UNL d   1      -0.606   5.589  -4.999  0.00  0.00     0.076 C 
ATOM      9  C   UNL d   1      -1.782   4.980  -4.566  0.00  0.00     0.039 C 
ATOM     10  C   UNL d   1      -1.727   3.902  -3.667  0.00  0.00     0.032 C 
BRANCH   8  11
ATOM     11  O   UNL d   1      -0.712   6.737  -5.755  0.00  0.00    -0.311 OA
BRANCH  11  12
ATOM     12  C   UNL d   1       0.159   7.782  -5.497  0.00  0.00     0.076 A 
ATOM     13  C   UNL d   1       0.432   8.639  -6.567  0.00  0.00     0.039 A 
ATOM     14  C   UNL d   1       1.338   9.695  -6.411  0.00  0.00     0.026 A 
ATOM     15  C   UNL d   1       1.969   9.893  -5.184  0.00  0.00     0.034 A 
ATOM     16  C   UNL d   1       1.667   9.074  -4.099  0.00  0.00     0.026 A 
ATOM     17 CL   UNL d   1       3.127  11.153  -5.006  0.00  0.00    -0.084 Cl
ATOM     18  C   UNL d   1       0.741   8.038  -4.248  0.00  0.00     0.039 A 
ENDBRANCH  11  12
ENDBRANCH   8  11
ENDBRANCH   2   5
BRANCH   1  19
ATOM     19  C   UNL d   1       0.313   1.363  -0.097  0.00  0.00     0.096 C 
ATOM     20  C   UNL d   1       1.400   1.692   0.953  0.00  0.00     0.101 C 
ATOM     21  C   UNL d   1       2.471   0.629   1.213  0.00  0.00     0.050 C 
ATOM     22  C   UNL d   1       2.167  -0.789   0.818  0.00  0.00    -0.081 C 
ATOM     23  C   UNL d   1       1.073  -1.127   0.110  0.00  0.00    -0.081 C 
ATOM     24  C   UNL d   1       3.227  -1.773   1.258  0.00  0.00     0.043 C 
ATOM     25  C   UNL d   1       0.060  -0.123  -0.381  0.00  0.00     0.049 C 
ATOM     26  C   UNL d   1       0.766  -2.554  -0.275  0.00  0.00     0.043 C 
BRANCH  20  27
ATOM     27  C   UNL d   1       0.777   2.110   2.270  0.00  0.00     0.144 C 
ATOM     28  O   UNL d   1      -0.316   1.759   2.674  0.00  0.00    -0.650 OA
BRANCH  27  29
ATOM     29  O   UNL d   1       1.570   2.957   2.983  0.00  0.00    -0.776 OA
ATOM     30  H   UNL d   1       2.423   3.175   2.556  0.00  0.00     0.167 HD
ENDBRANCH  27  29
ENDBRANCH  20  27
ENDBRANCH   1  19
TORSDOF 6
