REMARK  8 active torsions:
REMARK  status: ('A' for Active; 'I' for Inactive)
REMARK    1  A    between atoms: C_4  and  C_1 
REMARK    2  A    between atoms: C_2  and  C_3 
REMARK    3  A    between atoms: N_7  and  C_6 
REMARK       I    between atoms: C_8  and  N_7 
REMARK    4  A    between atoms: C_22  and  C_8 
REMARK    5  A    between atoms: C_11  and  C_23 
REMARK    6  A    between atoms: O_21  and  C_11 
REMARK    7  A    between atoms: O_20  and  C_22 
REMARK    8  A    between atoms: C_23  and  O_20 
ROOT
ATOM      1  C   UNL d   1      -0.780  -2.719   1.757  0.00  0.00     0.050 A 
ATOM      2  C   UNL d   1       0.457  -1.103   0.415  0.00  0.00     0.050 A 
ATOM      3  C   UNL d   1      -0.532  -1.395   1.365  0.00  0.00     0.032 A 
ATOM      4  C   UNL d   1       0.986  -3.481   0.250  0.00  0.00     0.036 A 
ATOM      5  C   UNL d   1      -0.025  -3.756   1.179  0.00  0.00     0.045 A 
ATOM      6  C   UNL d   1       1.205  -2.157  -0.135  0.00  0.00     0.045 A 
ENDROOT
BRANCH   4   7
ATOM      7  N   UNL d   1       1.740  -4.565  -0.247  0.00  0.00    -0.325 N 
ATOM      8  C   UNL d   1       2.928  -4.483  -0.956  0.00  0.00     0.245 C 
ATOM      9  O   UNL d   1       3.536  -3.453  -1.238  0.00  0.00    -0.271 OA
ATOM     10  H   UNL d   1       1.430  -5.495   0.005  0.00  0.00     0.169 HD
BRANCH   8  11
ATOM     11  C   UNL d   1       3.513  -5.849  -1.315  0.00  0.00     0.271 C 
BRANCH  11  12
ATOM     12  O   UNL d   1       2.592  -6.655  -2.054  0.00  0.00    -0.372 OA
BRANCH  12  13
ATOM     13  C   UNL d   1       3.262  -7.761  -2.675  0.00  0.00     0.277 C 
BRANCH  13  14
ATOM     14  C   UNL d   1       3.402  -8.909  -1.690  0.00  0.00     0.164 C 
ATOM     15  O   UNL d   1       4.382  -9.630  -1.589  0.00  0.00    -0.648 OA
BRANCH  14  16
ATOM     16  O   UNL d   1       2.292  -9.049  -0.920  0.00  0.00    -0.775 OA
ATOM     17  H   UNL d   1       1.631  -8.369  -1.168  0.00  0.00     0.167 HD
ENDBRANCH  14  16
ENDBRANCH  13  14
ENDBRANCH  12  13
ENDBRANCH  11  12
ENDBRANCH   8  11
ENDBRANCH   4   7
BRANCH   2  18
ATOM     18  C   UNL d   1       0.737   0.312  -0.032  0.00  0.00     0.417 C 
ATOM     19  F   UNL d   1       0.009   1.243   0.645  0.00  0.00    -0.166 F 
ATOM     20  F   UNL d   1       0.455   0.505  -1.349  0.00  0.00    -0.166 F 
ATOM     21  F   UNL d   1       2.040   0.666   0.133  0.00  0.00    -0.166 F 
ENDBRANCH   2  18
BRANCH   1  22
ATOM     22  C   UNL d   1      -1.828  -3.041   2.797  0.00  0.00     0.417 C 
ATOM     23  F   UNL d   1      -2.430  -1.940   3.324  0.00  0.00    -0.166 F 
ATOM     24  F   UNL d   1      -2.829  -3.817   2.299  0.00  0.00    -0.166 F 
ATOM     25  F   UNL d   1      -1.312  -3.728   3.853  0.00  0.00    -0.166 F 
ENDBRANCH   1  22
TORSDOF 8
