REMARK  7 active torsions:
REMARK  status: ('A' for Active; 'I' for Inactive)
REMARK    1  A    between atoms: C_3  and  C_1 
REMARK    2  A    between atoms: C_8  and  C_1 
REMARK    3  A    between atoms: C_9  and  C_2 
REMARK    4  A    between atoms: N_4  and  C_3 
REMARK    5  A    between atoms: O_17  and  C_7 
REMARK    6  A    between atoms: O_20  and  C_11 
REMARK    7  A    between atoms: O_21  and  C_16 
ROOT
ATOM      1  C   UNL d   1       1.015  -0.097  -0.020  0.00  0.00     0.037 C 
ATOM      2  C   UNL d   1       0.373  -1.285  -0.003  0.00  0.00     0.034 C 
ENDROOT
BRANCH   1   3
ATOM      3  C   UNL d   1       2.535  -0.097  -0.020  0.00  0.00    -0.036 C 
BRANCH   3   4
ATOM      4  N   UNL d   1       3.796  -0.097  -0.020  0.00  0.00    -0.365 N 
ATOM      5  HN2 UNL d   1       2.776  -0.097  -0.020  1.00  0.00     0.165 HD
ATOM      6  HN1 UNL d   1       4.816  -0.097  -0.020  1.00  0.00     0.165 HD
ENDBRANCH   3   4
ENDBRANCH   1   3
BRANCH   1   7
ATOM      7  C   UNL d   1       0.291   1.200  -0.030  0.00  0.00    -0.017 A 
ATOM      8  C   UNL d   1       0.853   2.334   0.575  0.00  0.00     0.015 A 
ATOM      9  C   UNL d   1       0.196   3.574   0.554  0.00  0.00     0.037 A 
ATOM     10  C   UNL d   1      -1.041   3.702  -0.072  0.00  0.00     0.068 A 
ATOM     11  C   UNL d   1      -1.607   2.584  -0.682  0.00  0.00     0.037 A 
ATOM     12  C   UNL d   1      -0.951   1.349  -0.669  0.00  0.00     0.015 A 
BRANCH  10  13
ATOM     13  O   UNL d   1      -1.787   4.846  -0.156  0.00  0.00    -0.356 OA
ATOM     14  C   UNL d   1      -1.238   6.017   0.433  0.00  0.00     0.210 C 
ENDBRANCH  10  13
ENDBRANCH   1   7
BRANCH   2  15
ATOM     15  C   UNL d   1       1.035  -2.599  -0.001  0.00  0.00    -0.032 A 
ATOM     16  C   UNL d   1       1.358  -3.231  -1.209  0.00  0.00     0.051 A 
ATOM     17  C   UNL d   1       1.927  -4.518  -1.227  0.00  0.00     0.102 A 
ATOM     18  C   UNL d   1       2.235  -5.147  -0.009  0.00  0.00     0.101 A 
ATOM     19  C   UNL d   1       1.923  -4.500   1.194  0.00  0.00     0.040 A 
ATOM     20  C   UNL d   1       1.326  -3.238   1.202  0.00  0.00     0.014 A 
BRANCH  17  21
ATOM     21  O   UNL d   1       2.194  -5.180  -2.397  0.00  0.00    -0.353 OA
ATOM     22  C   UNL d   1       1.321  -4.896  -3.487  0.00  0.00     0.210 C 
ENDBRANCH  17  21
BRANCH  18  23
ATOM     23  O   UNL d   1       2.760  -6.401   0.176  0.00  0.00    -0.353 OA
ATOM     24  C   UNL d   1       3.657  -6.880  -0.817  0.00  0.00     0.210 C 
ENDBRANCH  18  23
ENDBRANCH   2  15
TORSDOF 7
