REMARK  6 active torsions:
REMARK  status: ('A' for Active; 'I' for Inactive)
REMARK    1  A    between atoms: N_19  and  C_1 
REMARK    2  A    between atoms: N_18  and  C_8 
REMARK    3  A    between atoms: S_21  and  C_9 
REMARK    4  A    between atoms: C_11  and  C_10 
REMARK    5  A    between atoms: C_12  and  C_11 
REMARK    6  A    between atoms: C_13  and  N_18 
ROOT
ATOM      1  C   UNL d   1       1.787  -4.721   0.105  0.00  0.00     0.106 C 
ATOM      2  C   UNL d   1       1.034  -3.603   0.093  0.00  0.00     0.132 C 
ATOM      3  C   UNL d   1       1.164  -5.999   0.124  0.00  0.00     0.104 C 
ATOM      4  N   UNL d   1       0.666  -7.048   0.135  0.00  0.00    -0.191 NA
ENDROOT
BRANCH   1   5
ATOM      5  C   UNL d   1       3.278  -4.596   0.107  0.00  0.00     0.175 C 
ATOM      6  O   UNL d   1       3.846  -3.513  -0.014  0.00  0.00    -0.291 OA
BRANCH   5   7
ATOM      7  C   UNL d   1       4.082  -5.838   0.328  0.00  0.00     0.061 A 
ATOM      8  C   UNL d   1       4.923  -5.928   1.581  0.00  0.00     0.013 A 
ATOM      9  C   UNL d   1       5.592  -5.820   0.243  0.00  0.00     0.013 A 
ENDBRANCH   5   7
ENDBRANCH   1   5
BRANCH   2  10
ATOM     10  N   UNL d   1       1.442  -2.290   0.096  0.00  0.00    -0.200 N 
ATOM     11  H   UNL d   1       2.443  -2.098   0.085  0.00  0.00     0.183 HD
BRANCH  10  12
ATOM     12  C   UNL d   1       0.659  -1.138   0.074  0.00  0.00     0.698 A 
ATOM     13  N   UNL d   1      -0.665  -1.241   0.029  0.00  0.00    -0.022 N 
ATOM     14  C   UNL d   1      -1.370  -0.115  -0.007  0.00  0.00     0.696 A 
ATOM     15  HN  UNL d   1      -1.123  -2.152   0.022  1.00  0.00     0.203 HD
ATOM     16  N   UNL d   1      -0.797   1.080   0.023  0.00  0.00    -0.169 N 
ATOM     17  C   UNL d   1       0.530   1.091   0.071  0.00  0.00     0.174 A 
ATOM     18  HN  UNL d   1      -1.343   1.941   0.010  1.00  0.00     0.186 HD
ATOM     19  N   UNL d   1       1.305   0.015   0.095  0.00  0.00    -0.169 N 
ATOM     20  HN  UNL d   1       2.323   0.072   0.126  1.00  0.00     0.186 HD
BRANCH  14  21
ATOM     21  N   UNL d   1      -2.740  -0.198  -0.127  0.00  0.00    -0.226 N 
ATOM     22  C   UNL d   1      -3.401  -1.489  -0.070  0.00  0.00     0.168 C 
ATOM     23  C   UNL d   1      -3.570   0.984  -0.003  0.00  0.00     0.168 C 
ENDBRANCH  14  21
BRANCH  17  24
ATOM     24  S   UNL d   1       1.379   2.658   0.105  0.00  0.00    -0.097 SA
ATOM     25  C   UNL d   1      -0.019   3.807   0.055  0.00  0.00     0.099 C 
ENDBRANCH  17  24
ENDBRANCH  10  12
ENDBRANCH   2  10
TORSDOF 6
