REMARK  7 active torsions:
REMARK  status: ('A' for Active; 'I' for Inactive)
REMARK    1  A    between atoms: C_4  and  C_1 
REMARK    2  A    between atoms: O_10  and  C_4 
REMARK    3  A    between atoms: C_14  and  C_7 
REMARK    4  A    between atoms: N_8  and  O_10 
REMARK    5  A    between atoms: C_12  and  C_15 
REMARK    6  A    between atoms: N_13  and  C_14 
REMARK    7  A    between atoms: O_23  and  C_16 
ROOT
ATOM      1  N   UNL d   1       4.024  -2.658  -0.267  0.00  0.00    -0.261 N 
ATOM      2  HN  UNL d   1       4.493  -1.765  -0.113  1.00  0.00     0.194 HD
ATOM      3  C   UNL d   1       4.642  -3.792  -0.412  0.00  0.00     0.039 C 
ATOM      4  C   UNL d   1       3.929  -5.106  -0.634  0.00  0.00     0.071 C 
ENDROOT
BRANCH   3   5
ATOM      5  C   UNL d   1       6.126  -3.807  -0.309  0.00  0.00    -0.011 A 
ATOM      6  C   UNL d   1       6.721  -3.043   0.696  0.00  0.00     0.025 A 
ATOM      7  C   UNL d   1       8.117  -3.009   0.873  0.00  0.00     0.004 A 
ATOM      8  C   UNL d   1       8.919  -3.776   0.003  0.00  0.00     0.076 A 
ATOM      9  C   UNL d   1       8.311  -4.549  -1.001  0.00  0.00     0.038 A 
ATOM     10  C   UNL d   1       6.920  -4.566  -1.159  0.00  0.00     0.016 A 
BRANCH   7  11
ATOM     11  C   UNL d   1       8.680  -2.250   2.068  0.00  0.00     0.314 C 
BRANCH  11  12
ATOM     12  N   UNL d   1       8.768  -0.776   1.973  0.00  0.00     0.096 N 
ATOM     13  C   UNL d   1       9.318  -0.224   3.242  0.00  0.00     0.299 C 
ATOM     14  C   UNL d   1       8.320  -0.242   4.420  0.00  0.00     0.198 C 
ATOM     15  O   UNL d   1       7.106   0.444   4.093  0.00  0.00    -0.388 OA
ATOM     16  C   UNL d   1       6.510  -0.108   2.912  0.00  0.00     0.198 C 
ATOM     17  C   UNL d   1       7.491  -0.069   1.727  0.00  0.00     0.299 C 
ENDBRANCH  11  12
ENDBRANCH   7  11
BRANCH   8  18
ATOM     18  O   UNL d   1      10.269  -3.771   0.240  0.00  0.00    -0.355 OA
ATOM     19  C   UNL d   1      11.113  -4.278  -0.790  0.00  0.00     0.210 C 
ENDBRANCH   8  18
ENDBRANCH   3   5
BRANCH   1  20
ATOM     20  O   UNL d   1       2.627  -2.811  -0.347  0.00  0.00    -0.194 OA
BRANCH  20  21
ATOM     21  C   UNL d   1       2.002  -1.575  -0.407  0.00  0.00     0.323 C 
ATOM     22  O   UNL d   1       2.592  -0.504  -0.492  0.00  0.00    -0.257 OA
BRANCH  21  23
ATOM     23  C   UNL d   1       0.555  -1.731  -0.349  0.00  0.00     0.105 A 
ATOM     24  S   UNL d   1      -0.171  -3.235   0.032  0.00  0.00    -0.082 SA
ATOM     25  C   UNL d   1      -1.761  -2.590   0.004  0.00  0.00     0.018 A 
ATOM     26  C   UNL d   1      -2.960  -3.285   0.264  0.00  0.00     0.020 A 
ATOM     27  C   UNL d   1      -1.754  -1.231  -0.315  0.00  0.00     0.004 A 
ATOM     28  C   UNL d   1      -4.171  -2.591   0.217  0.00  0.00     0.001 A 
ATOM     29  C   UNL d   1      -4.195  -1.239  -0.085  0.00  0.00     0.001 A 
ATOM     30  C   UNL d   1      -3.005  -0.558  -0.357  0.00  0.00     0.014 A 
ATOM     31  C   UNL d   1      -0.409  -0.760  -0.547  0.00  0.00     0.069 A 
ATOM     32 CL   UNL d   1      -0.110   0.870  -1.010  0.00  0.00    -0.082 Cl
ENDBRANCH  21  23
ENDBRANCH  20  21
ENDBRANCH   1  20
TORSDOF 7
