REMARK  3 active torsions:
REMARK  status: ('A' for Active; 'I' for Inactive)
REMARK    1  A    between atoms: N_11  and  C_1 
REMARK    2  A    between atoms: N_2  and  C_13 
REMARK       I    between atoms: C_3  and  N_4 
REMARK    3  A    between atoms: C_8  and  C_3 
REMARK       I    between atoms: N_4  and  C_6 
REMARK       I    between atoms: C_6  and  N_11 
ROOT
ATOM      1  C   UNL d   1      -5.418  -3.760   0.360  0.00  0.00     0.261 C 
ATOM      2  N   UNL d   1      -5.232  -2.461  -0.076  0.00  0.00    -0.275 N 
ATOM      3  C   UNL d   1      -4.252  -1.604   0.363  0.00  0.00     0.327 C 
ATOM      4  N   UNL d   1      -3.063  -2.172   0.723  0.00  0.00    -0.303 N 
ATOM      5  O   UNL d   1      -4.516  -4.500   0.730  0.00  0.00    -0.267 OA
ATOM      6  O   UNL d   1      -4.524  -0.406   0.428  0.00  0.00    -0.247 OA
ATOM      7  H   UNL d   1      -6.056  -1.941  -0.344  0.00  0.00     0.173 HD
ATOM      8  H   UNL d   1      -2.912  -3.133   0.407  0.00  0.00     0.171 HD
ENDROOT
BRANCH   4   9
ATOM      9  C   UNL d   1      -1.981  -1.567   1.344  0.00  0.00     0.113 A 
ATOM     10  C   UNL d   1      -0.687  -2.317   1.276  0.00  0.00     0.315 A 
ATOM     11  O   UNL d   1       0.390  -1.807   1.995  0.00  0.00    -0.273 OA
ATOM     12  O   UNL d   1      -0.583  -3.339   0.603  0.00  0.00    -0.257 OA
ATOM     13  C   UNL d   1       0.308  -0.572   2.661  0.00  0.00     0.090 A 
ATOM     14  C   UNL d   1      -0.875   0.160   2.658  0.00  0.00     0.003 A 
ATOM     15  C   UNL d   1       1.459  -0.106   3.297  0.00  0.00     0.041 A 
ATOM     16  C   UNL d   1      -2.045  -0.397   1.997  0.00  0.00     0.050 A 
ATOM     17  C   UNL d   1      -0.909   1.405   3.294  0.00  0.00     0.050 A 
ATOM     18  C   UNL d   1       0.252   1.895   3.914  0.00  0.00     0.103 A 
ATOM     19  C   UNL d   1       1.434   1.138   3.928  0.00  0.00     0.039 A 
BRANCH  18  20
ATOM     20  N   UNL d   1       0.235   3.226   4.536  0.00  0.00    -0.116 N 
ATOM     21  O   UNL d   1      -0.841   3.839   4.554  0.00  0.00    -0.532 OA
ATOM     22  O   UNL d   1       1.299   3.658   5.000  0.00  0.00    -0.532 OA
ENDBRANCH  18  20
ENDBRANCH   4   9
BRANCH   1  23
ATOM     23  C   UNL d   1      -6.825  -4.236   0.294  0.00  0.00     0.054 A 
ATOM     24  C   UNL d   1      -7.175  -5.429  -0.350  0.00  0.00     0.049 A 
ATOM     25 CL   UNL d   1      -6.029  -6.420  -1.179  0.00  0.00    -0.083 Cl
ATOM     26  C   UNL d   1      -8.514  -5.833  -0.384  0.00  0.00     0.025 A 
ATOM     27  C   UNL d   1      -9.505  -5.056   0.222  0.00  0.00     0.002 A 
ATOM     28  C   UNL d   1      -9.158  -3.872   0.871  0.00  0.00     0.001 A 
ATOM     29  C   UNL d   1      -7.825  -3.464   0.914  0.00  0.00     0.019 A 
ENDBRANCH   1  23
TORSDOF 3
