REMARK  3 active torsions:
REMARK  status: ('A' for Active; 'I' for Inactive)
REMARK    1  A    between atoms: C_8  and  N_1 
REMARK    2  A    between atoms: C_9  and  C_8 
REMARK    3  A    between atoms: O_12  and  C_11 
ROOT
ATOM      1  N   UNL d   1       3.226  -0.949  -0.367  0.00  0.00    -0.246 N 
ATOM      2  C   UNL d   1       3.598   0.344  -0.666  0.00  0.00     0.210 A 
ATOM      3  N   UNL d   1       4.328  -1.761  -0.520  0.00  0.00    -0.223 N 
ATOM      4  HN  UNL d   1       4.356  -2.761  -0.318  1.00  0.00     0.210 HD
ATOM      5  N   UNL d   1       5.303  -1.072  -0.952  0.00  0.00    -0.226 N 
ATOM      6  HN  UNL d   1       6.232  -1.429  -1.176  1.00  0.00     0.210 HD
ATOM      7  N   UNL d   1       4.903   0.219  -1.065  0.00  0.00    -0.259 N 
ATOM      8  S   UNL d   1       2.748   1.758  -0.588  0.00  0.00    -0.038 SA
ATOM      9  H   UNL d   1       5.537   0.949  -1.367  0.00  0.00     0.191 HD
ENDROOT
BRANCH   1  10
ATOM     10  C   UNL d   1       1.980  -1.436   0.201  0.00  0.00     0.194 C 
BRANCH  10  11
ATOM     11  C   UNL d   1       1.730  -2.902  -0.047  0.00  0.00    -0.005 A 
ATOM     12  C   UNL d   1       1.081  -3.412  -1.183  0.00  0.00     0.076 A 
ATOM     13  C   UNL d   1       0.875  -4.793  -1.304  0.00  0.00     0.037 A 
ATOM     14  C   UNL d   1       1.319  -5.678  -0.319  0.00  0.00     0.003 A 
ATOM     15  C   UNL d   1       1.970  -5.185   0.804  0.00  0.00     0.001 A 
ATOM     16  C   UNL d   1       2.178  -3.812   0.934  0.00  0.00     0.012 A 
BRANCH  12  17
ATOM     17  O   UNL d   1       0.480  -2.667  -2.163  0.00  0.00    -0.355 OA
ATOM     18  C   UNL d   1       1.306  -1.717  -2.825  0.00  0.00     0.210 C 
ENDBRANCH  12  17
ENDBRANCH  10  11
ENDBRANCH   1  10
TORSDOF 3
