REMARK  4 active torsions:
REMARK  status: ('A' for Active; 'I' for Inactive)
REMARK    1  A    between atoms: C_4  and  C_1 
REMARK    2  A    between atoms: C_7  and  N_5 
REMARK    3  A    between atoms: C_8  and  C_7 
REMARK       I    between atoms: N_10  and  C_8 
REMARK    4  A    between atoms: C_12  and  N_10 
ROOT
ATOM      1  C   UNL d   1      -0.779  -0.743   0.077  0.00  0.00     0.133 A 
ATOM      2  N   UNL d   1       0.540  -0.453  -0.001  0.00  0.00    -0.294 N 
ATOM      3  HN  UNL d   1       1.321  -1.105  -0.068  1.00  0.00     0.187 HD
ATOM      4  N   UNL d   1       0.589   0.898   0.032  0.00  0.00    -0.294 N 
ATOM      5  C   UNL d   1      -1.557   0.445   0.094  0.00  0.00     0.054 A 
ATOM      6  C   UNL d   1      -0.653   1.474   0.054  0.00  0.00     0.113 A 
ENDROOT
BRANCH   4   7
ATOM      7  C   UNL d   1       1.834   1.651  -0.070  0.00  0.00     0.250 C 
BRANCH   7   8
ATOM      8  C   UNL d   1       3.128   0.945   0.268  0.00  0.00     0.238 C 
ATOM      9  N   UNL d   1       3.308  -0.314  -0.262  0.00  0.00    -0.352 N 
ATOM     10  H   UNL d   1       2.431  -0.819  -0.417  0.00  0.00     0.163 HD
ATOM     11  O   UNL d   1       4.013   1.551   0.878  0.00  0.00    -0.272 OA
BRANCH   9  12
ATOM     12  C   UNL d   1       4.520  -1.131  -0.084  0.00  0.00     0.022 C 
ATOM     13  C   UNL d   1       4.699  -1.524   1.390  0.00  0.00     0.037 C 
ATOM     14  C   UNL d   1       4.361  -2.411  -0.923  0.00  0.00     0.037 C 
ATOM     15  C   UNL d   1       5.778  -0.396  -0.586  0.00  0.00     0.037 C 
ENDBRANCH   9  12
ENDBRANCH   7   8
ENDBRANCH   4   7
BRANCH   1  16
ATOM     16  C   UNL d   1      -1.333  -2.144   0.122  0.00  0.00     0.433 C 
ATOM     17  F   UNL d   1      -0.377  -3.110   0.109  0.00  0.00    -0.165 F 
ATOM     18  F   UNL d   1      -2.082  -2.350   1.241  0.00  0.00    -0.165 F 
ATOM     19  F   UNL d   1      -2.154  -2.392  -0.935  0.00  0.00    -0.165 F 
ENDBRANCH   1  16
TORSDOF 4
