REMARK  6 active torsions:
REMARK  status: ('A' for Active; 'I' for Inactive)
REMARK    1  A    between atoms: N_5  and  S_1 
REMARK    2  A    between atoms: C_7  and  S_1 
REMARK    3  A    between atoms: S_2  and  C_3 
REMARK    4  A    between atoms: C_16  and  S_2 
REMARK    5  A    between atoms: C_4  and  N_5 
REMARK    6  A    between atoms: C_8  and  C_6 
ROOT
ATOM      1  N   UNL d   1       0.372  -1.431   0.948  0.00  0.00    -0.179 NA
ATOM      2  H   UNL d   1       0.916  -0.910   1.641  0.00  0.00     0.146 HD
ENDROOT
BRANCH   1   3
ATOM      3  C   UNL d   1       0.889  -2.699   0.593  0.00  0.00     0.051 A 
ATOM      4  C   UNL d   1       2.224  -3.068   0.194  0.00  0.00     0.093 A 
ATOM      5  C   UNL d   1       2.320  -4.430  -0.048  0.00  0.00     0.075 A 
ATOM      6  S   UNL d   1       0.859  -5.261   0.222  0.00  0.00    -0.110 SA
ATOM      7  C   UNL d   1       0.069  -3.812   0.644  0.00  0.00     0.075 A 
BRANCH   4   8
ATOM      8  S   UNL d   1       3.596  -2.040  -0.098  0.00  0.00     0.209 S 
ATOM      9  O   UNL d   1       4.601  -2.908  -0.683  0.00  0.00    -0.217 OA
ATOM     10  O   UNL d   1       3.082  -0.892  -0.804  0.00  0.00    -0.217 OA
BRANCH   8  11
ATOM     11  C   UNL d   1       4.225  -1.480   1.464  0.00  0.00     0.064 A 
ATOM     12  C   UNL d   1       5.147  -2.272   2.158  0.00  0.00     0.024 A 
ATOM     13  C   UNL d   1       5.812  -1.745   3.267  0.00  0.00     0.002 A 
ATOM     14  C   UNL d   1       5.564  -0.432   3.673  0.00  0.00     0.000 A 
ATOM     15  C   UNL d   1       4.644   0.355   2.979  0.00  0.00     0.002 A 
ATOM     16  C   UNL d   1       3.976  -0.163   1.869  0.00  0.00     0.024 A 
ENDBRANCH   8  11
ENDBRANCH   4   8
ENDBRANCH   1   3
BRANCH   1  17
ATOM     17  S   UNL d   1       0.030  -0.291  -0.284  0.00  0.00     0.246 S 
ATOM     18  O   UNL d   1       0.363  -0.859  -1.569  0.00  0.00    -0.206 OA
ATOM     19  O   UNL d   1       0.565   0.948   0.238  0.00  0.00    -0.206 OA
BRANCH  17  20
ATOM     20  C   UNL d   1      -1.740  -0.098  -0.315  0.00  0.00     0.089 A 
ATOM     21  C   UNL d   1      -2.325   0.766  -1.264  0.00  0.00     0.070 A 
ATOM     22  C   UNL d   1      -3.733   0.831  -1.322  0.00  0.00     0.018 A 
ATOM     23  C   UNL d   1      -4.529   0.068  -0.470  0.00  0.00     0.001 A 
ATOM     24  C   UNL d   1      -3.934  -0.777   0.462  0.00  0.00     0.002 A 
ATOM     25  C   UNL d   1      -2.543  -0.862   0.544  0.00  0.00     0.026 A 
BRANCH  21  26
ATOM     26  C   UNL d   1      -1.567   1.614  -2.267  0.00  0.00     0.418 C 
ATOM     27  F   UNL d   1      -0.228   1.704  -2.110  0.00  0.00    -0.166 F 
ATOM     28  F   UNL d   1      -1.769   1.184  -3.544  0.00  0.00    -0.166 F 
ATOM     29  F   UNL d   1      -2.013   2.906  -2.250  0.00  0.00    -0.166 F 
ENDBRANCH  21  26
ENDBRANCH  17  20
ENDBRANCH   1  17
TORSDOF 6
