REMARK  2 active torsions:
REMARK  status: ('A' for Active; 'I' for Inactive)
REMARK    1  A    between atoms: N_8  and  C_1 
REMARK    2  A    between atoms: C_5  and  C_4 
REMARK       I    between atoms: N_12  and  C_5 
ROOT
ATOM      1  C   UNL d   1       0.015   0.983  -0.009  0.00  0.00     0.107 A 
ATOM      2  C   UNL d   1      -1.163   0.208  -0.014  0.00  0.00     0.146 A 
ATOM      3  C   UNL d   1       1.212   0.237   0.010  0.00  0.00     0.146 A 
ATOM      4  C   UNL d   1       0.053  -1.881   0.001  0.00  0.00     0.037 A 
ATOM      5  C   UNL d   1      -1.156  -1.189   0.004  0.00  0.00     0.061 A 
ATOM      6  C   UNL d   1       1.245  -1.162   0.009  0.00  0.00     0.061 A 
ATOM      7  F   UNL d   1       2.403   0.857   0.074  0.00  0.00    -0.204 F 
ATOM      8  F   UNL d   1      -2.368   0.798  -0.087  0.00  0.00    -0.204 F 
ENDROOT
BRANCH   4   9
ATOM      9  C   UNL d   1       0.016  -3.367   0.022  0.00  0.00     0.249 C 
ATOM     10  O   UNL d   1      -0.962  -3.973   0.429  0.00  0.00    -0.268 OA
ATOM     11  N   UNL d   1       1.104  -4.035  -0.464  0.00  0.00    -0.366 N 
ATOM     12  H   UNL d   1       1.826  -3.592  -1.012  0.00  0.00     0.159 HD
ATOM     13  H   UNL d   1       1.014  -5.044  -0.530  0.00  0.00     0.159 HD
ENDBRANCH   4   9
BRANCH   1  14
ATOM     14  N   UNL d   1      -0.009   2.374  -0.028  0.00  0.00    -0.385 N 
ATOM     15  C   UNL d   1      -1.089   3.132   0.595  0.00  0.00     0.149 C 
ATOM     16  C   UNL d   1       1.084   3.165  -0.579  0.00  0.00     0.149 C 
ENDBRANCH   1  14
TORSDOF 2
