REMARK  3 active torsions:
REMARK  status: ('A' for Active; 'I' for Inactive)
REMARK    1  A    between atoms: C_8  and  C_1 
REMARK       I    between atoms: C_6  and  N_11 
REMARK       I    between atoms: N_7  and  C_6 
REMARK    2  A    between atoms: C_9  and  N_7 
REMARK    3  A    between atoms: N_11  and  C_8 
ROOT
ATOM      1  C   UNL d   1       3.389  -3.991  -0.543  0.00  0.00     0.321 C 
ATOM      2  N   UNL d   1       4.711  -4.109  -0.879  0.00  0.00    -0.307 N 
ATOM      3  N   UNL d   1       2.980  -2.811  -0.003  0.00  0.00    -0.339 N 
ATOM      4  O   UNL d   1       2.612  -4.886  -0.871  0.00  0.00    -0.247 OA
ATOM      5  H   UNL d   1       4.808  -4.774  -1.637  0.00  0.00     0.170 HD
ATOM      6  H   UNL d   1       3.646  -2.306   0.559  0.00  0.00     0.164 HD
ENDROOT
BRANCH   3   7
ATOM      7  C   UNL d   1       1.589  -2.605   0.319  0.00  0.00     0.166 C 
BRANCH   7   8
ATOM      8  C   UNL d   1       1.309  -1.145   0.342  0.00  0.00     0.002 A 
ATOM      9  C   UNL d   1       0.861  -0.360  -0.711  0.00  0.00     0.058 A 
ATOM     10  O   UNL d   1       0.673   0.926  -0.307  0.00  0.00    -0.314 OA
ATOM     11  C   UNL d   1       0.533  -0.632  -2.127  0.00  0.00     0.077 C 
ATOM     12  C   UNL d   1       0.987   0.983   1.013  0.00  0.00     0.086 A 
ATOM     13  C   UNL d   1       1.400  -0.263   1.466  0.00  0.00     0.008 A 
ATOM     14  C   UNL d   1       0.898   2.121   1.812  0.00  0.00     0.038 A 
ATOM     15  C   UNL d   1       1.767  -0.390   2.820  0.00  0.00     0.015 A 
ATOM     16  C   UNL d   1       1.685   0.737   3.651  0.00  0.00     0.001 A 
ATOM     17  C   UNL d   1       1.254   1.970   3.155  0.00  0.00     0.003 A 
ENDBRANCH   7   8
ENDBRANCH   3   7
BRANCH   2  18
ATOM     18  C   UNL d   1       5.730  -3.151  -0.718  0.00  0.00     0.058 A 
ATOM     19  C   UNL d   1       6.123  -2.626   0.526  0.00  0.00     0.062 A 
ATOM     20  C   UNL d   1       7.131  -1.662   0.597  0.00  0.00     0.050 A 
ATOM     21 CL   UNL d   1       5.460  -3.195   2.018  0.00  0.00    -0.082 Cl
ATOM     22  C   UNL d   1       7.743  -1.219  -0.573  0.00  0.00     0.035 A 
ATOM     23  C   UNL d   1       7.388  -1.760  -1.807  0.00  0.00     0.026 A 
ATOM     24 CL   UNL d   1       8.953   0.001  -0.494  0.00  0.00    -0.084 Cl
ATOM     25  C   UNL d   1       6.401  -2.745  -1.877  0.00  0.00     0.033 A 
ENDBRANCH   2  18
TORSDOF 3
