REMARK  9 active torsions:
REMARK  status: ('A' for Active; 'I' for Inactive)
REMARK    1  A    between atoms: C_3  and  S_1 
REMARK    2  A    between atoms: N_5  and  S_1 
REMARK    3  A    between atoms: C_2  and  C_8 
REMARK       I    between atoms: N_4  and  C_2 
REMARK    4  A    between atoms: C_9  and  N_4 
REMARK    5  A    between atoms: C_18  and  N_5 
REMARK    6  A    between atoms: C_19  and  N_5 
REMARK    7  A    between atoms: S_17  and  C_16 
REMARK    8  A    between atoms: C_25  and  C_18 
REMARK    9  A    between atoms: C_24  and  C_19 
ROOT
ATOM      1  C   UNL d   1       0.598  -1.285   1.135  0.00  0.00     0.079 A 
ATOM      2  C   UNL d   1       0.038  -3.348   2.956  0.00  0.00     0.032 A 
ATOM      3  C   UNL d   1       0.368  -2.579   0.665  0.00  0.00     0.026 A 
ATOM      4  C   UNL d   1       0.613  -1.041   2.516  0.00  0.00     0.026 A 
ATOM      5  C   UNL d   1       0.314  -2.059   3.423  0.00  0.00     0.018 A 
ATOM      6  C   UNL d   1       0.096  -3.609   1.578  0.00  0.00     0.018 A 
ENDROOT
BRANCH   2   7
ATOM      7  C   UNL d   1      -0.266  -4.465   3.900  0.00  0.00     0.256 C 
ATOM      8  N   UNL d   1      -0.959  -4.093   5.042  0.00  0.00    -0.323 N 
ATOM      9  H   UNL d   1      -1.282  -3.136   5.096  0.00  0.00     0.169 HD
ATOM     10  O   UNL d   1       0.074  -5.598   3.583  0.00  0.00    -0.267 OA
BRANCH   8  11
ATOM     11  C   UNL d   1      -1.399  -4.931   6.091  0.00  0.00     0.036 A 
ATOM     12  C   UNL d   1      -1.078  -6.289   6.186  0.00  0.00     0.048 A 
ATOM     13  C   UNL d   1      -1.597  -7.087   7.214  0.00  0.00     0.002 A 
ATOM     14  C   UNL d   1      -2.428  -6.493   8.173  0.00  0.00     0.018 A 
ATOM     15  C   UNL d   1      -2.728  -5.133   8.110  0.00  0.00     0.004 A 
ATOM     16  C   UNL d   1      -2.214  -4.356   7.072  0.00  0.00     0.029 A 
BRANCH  13  17
ATOM     17  S   UNL d   1      -1.285  -8.842   7.392  0.00  0.00    -0.134 SA
ATOM     18  C   UNL d   1      -0.305  -9.242   5.918  0.00  0.00     0.095 C 
ENDBRANCH  13  17
ENDBRANCH   8  11
ENDBRANCH   2   7
BRANCH   1  19
ATOM     19  S   UNL d   1       1.093   0.025   0.019  0.00  0.00     0.260 S 
ATOM     20  O   UNL d   1       1.269  -0.566  -1.295  0.00  0.00    -0.200 OA
ATOM     21  O   UNL d   1       2.198   0.703   0.659  0.00  0.00    -0.200 OA
BRANCH  19  22
ATOM     22  N   UNL d   1      -0.255   1.100  -0.058  0.00  0.00    -0.307 N 
BRANCH  22  23
ATOM     23  C   UNL d   1      -1.295   0.712  -1.066  0.00  0.00     0.135 C 
BRANCH  23  24
ATOM     24  C   UNL d   1      -2.362   1.792  -1.284  0.00  0.00     0.016 C 
ATOM     25  C   UNL d   1      -3.236   1.511  -2.497  0.00  0.00     0.006 C 
ENDBRANCH  23  24
ENDBRANCH  22  23
BRANCH  22  26
ATOM     26  C   UNL d   1      -0.773   1.696   1.206  0.00  0.00     0.135 C 
BRANCH  26  27
ATOM     27  C   UNL d   1       0.226   2.541   1.996  0.00  0.00     0.016 C 
ATOM     28  C   UNL d   1       0.727   3.755   1.232  0.00  0.00     0.006 C 
ENDBRANCH  26  27
ENDBRANCH  22  26
ENDBRANCH  19  22
ENDBRANCH   1  19
TORSDOF 9
