REMARK  1 active torsions:
REMARK  status: ('A' for Active; 'I' for Inactive)
REMARK    1  A    between atoms: N_8  and  N_4 
REMARK       I    between atoms: N_12  and  C_10 
REMARK       I    between atoms: N_13  and  C_10 
ROOT
ATOM      1  C   UNL d   1      -1.222   0.904  -0.079  0.00  0.00     0.129 A 
ATOM      2  C   UNL d   1       0.284   0.668  -0.271  0.00  0.00     0.275 A 
ATOM      3  N   UNL d   1       0.414  -0.674  -0.566  0.00  0.00    -0.321 N 
ATOM      4  N   UNL d   1      -1.699   2.079   0.190  0.00  0.00    -0.293 N 
ATOM      5  HN  UNL d   1      -1.114   2.909   0.292  1.00  0.00     0.187 HD
ATOM      6  C   UNL d   1      -1.857  -0.406  -0.275  0.00  0.00     0.024 A 
ATOM      7  C   UNL d   1      -0.828  -1.301  -0.570  0.00  0.00     0.047 A 
ATOM      8  O   UNL d   1       1.162   1.497  -0.177  0.00  0.00    -0.266 OA
ATOM      9  C   UNL d   1      -3.174  -0.824  -0.217  0.00  0.00     0.016 A 
ATOM     10  C   UNL d   1      -1.074  -2.636  -0.823  0.00  0.00     0.030 A 
ATOM     11  C   UNL d   1      -3.443  -2.172  -0.470  0.00  0.00     0.001 A 
ATOM     12  C   UNL d   1      -2.402  -3.069  -0.773  0.00  0.00     0.002 A 
ATOM     13  H   UNL d   1       1.304  -1.113  -0.742  0.00  0.00     0.169 HD
ENDROOT
BRANCH   4  14
ATOM     14  N   UNL d   1      -3.089   2.105   0.328  0.00  0.00    -0.280 N 
ATOM     15  C   UNL d   1      -3.552   3.297   0.521  0.00  0.00     0.141 C 
ATOM     16  N   UNL d   1      -2.828   4.441   0.567  0.00  0.00    -0.278 NA
ATOM     17  N   UNL d   1      -4.869   3.548   0.702  0.00  0.00    -0.278 NA
ATOM     18  H   UNL d   1      -1.842   4.178   0.567  0.00  0.00     0.126 HD
ATOM     19  H   UNL d   1      -3.046   4.995   1.385  0.00  0.00     0.126 HD
ATOM     20  H   UNL d   1      -5.430   2.747   0.434  0.00  0.00     0.126 HD
ATOM     21  H   UNL d   1      -5.165   4.388   0.221  0.00  0.00     0.126 HD
ATOM     22  HN  UNL d   1      -3.676   1.272   0.280  1.00  0.00     0.189 HD
ENDBRANCH   4  14
TORSDOF 1
