REMARK  7 active torsions:
REMARK  status: ('A' for Active; 'I' for Inactive)
REMARK    1  A    between atoms: C_9  and  C_3 
REMARK    2  A    between atoms: O_18  and  C_4 
REMARK    3  A    between atoms: S_12  and  C_5 
REMARK    4  A    between atoms: C_8  and  C_9 
REMARK    5  A    between atoms: C_11  and  C_16 
REMARK    6  A    between atoms: C_13  and  C_11 
REMARK    7  A    between atoms: C_16  and  S_12 
ROOT
ATOM      1  N   UNL d   1      -0.682   1.291  -0.037  0.00  0.00    -0.317 N 
ATOM      2  HN  UNL d   1      -1.160   2.192  -0.020  1.00  0.00     0.170 HD
ATOM      3  C   UNL d   1      -0.766  -1.135   0.018  0.00  0.00     0.019 A 
ATOM      4  C   UNL d   1      -1.345   0.127   0.049  0.00  0.00     0.150 A 
ATOM      5  C   UNL d   1       0.646   1.190  -0.146  0.00  0.00     0.146 A 
ATOM      6  N   UNL d   1       1.320   0.028  -0.133  0.00  0.00    -0.340 N 
ATOM      7  HN  UNL d   1       2.339   0.015  -0.185  1.00  0.00     0.167 HD
ATOM      8  C   UNL d   1       0.619  -1.121  -0.049  0.00  0.00     0.018 A 
ATOM      9  C   UNL d   1       1.442  -2.376  -0.043  0.00  0.00     0.069 C 
ENDROOT
BRANCH   3  10
ATOM     10  C   UNL d   1      -1.575  -2.405   0.015  0.00  0.00     0.087 C 
BRANCH  10  11
ATOM     11  C   UNL d   1      -1.739  -3.237   1.282  0.00  0.00    -0.010 A 
ATOM     12  C   UNL d   1      -1.492  -2.806   2.601  0.00  0.00     0.042 A 
ATOM     13 CL   UNL d   1      -1.060  -1.194   3.043  0.00  0.00    -0.084 Cl
ATOM     14  C   UNL d   1      -1.625  -3.682   3.692  0.00  0.00     0.024 A 
ATOM     15  C   UNL d   1      -2.048  -4.992   3.511  0.00  0.00     0.003 A 
ATOM     16  C   UNL d   1      -2.364  -5.429   2.234  0.00  0.00     0.024 A 
ATOM     17  C   UNL d   1      -2.218  -4.567   1.139  0.00  0.00     0.042 A 
ATOM     18 CL   UNL d   1      -2.686  -5.218  -0.400  0.00  0.00    -0.084 Cl
ENDBRANCH  10  11
ENDBRANCH   3  10
BRANCH   4  19
ATOM     19  O   UNL d   1      -2.694   0.271   0.216  0.00  0.00    -0.346 OA
ATOM     20  H   UNL d   1      -2.947  -0.320   0.939  0.00  0.00     0.219 HD
ENDBRANCH   4  19
BRANCH   5  21
ATOM     21  S   UNL d   1       1.653   2.627  -0.420  0.00  0.00    -0.086 SA
BRANCH  21  22
ATOM     22  C   UNL d   1       0.581   3.975   0.146  0.00  0.00     0.161 C 
BRANCH  22  23
ATOM     23  C   UNL d   1       1.121   5.303  -0.378  0.00  0.00     0.144 C 
ATOM     24  O   UNL d   1       0.705   5.735  -1.461  0.00  0.00    -0.296 OA
BRANCH  23  25
ATOM     25  C   UNL d   1       2.235   6.073   0.383  0.00  0.00     0.010 C 
ATOM     26  C   UNL d   1       3.615   5.616  -0.112  0.00  0.00     0.022 C 
ATOM     27  C   UNL d   1       2.079   7.576   0.061  0.00  0.00     0.022 C 
ATOM     28  C   UNL d   1       2.159   5.914   1.905  0.00  0.00     0.022 C 
ENDBRANCH  23  25
ENDBRANCH  22  23
ENDBRANCH  21  22
ENDBRANCH   5  21
TORSDOF 7
