REMARK  8 active torsions:
REMARK  status: ('A' for Active; 'I' for Inactive)
REMARK    1  A    between atoms: C_6  and  C_1 
REMARK    2  A    between atoms: C_3  and  N_15 
REMARK    3  A    between atoms: C_9  and  C_4 
REMARK    4  A    between atoms: N_15  and  C_27 
REMARK    5  A    between atoms: C_26  and  C_19 
REMARK    6  A    between atoms: S_23  and  C_26 
REMARK    7  A    between atoms: C_29  and  S_23 
REMARK    8  A    between atoms: C_27  and  C_29 
ROOT
ATOM      1  N   UNL d   1      -3.486   0.045   7.536  0.00  0.00    -0.392 N 
ATOM      2  H   UNL d   1      -3.938   0.916   7.810  0.00  0.00     0.159 HD
ENDROOT
BRANCH   1   3
ATOM      3  C   UNL d   1      -3.673  -1.046   8.363  0.00  0.00     0.009 C 
ATOM      4  C   UNL d   1      -2.927  -2.162   8.300  0.00  0.00     0.074 C 
ATOM      5  C   UNL d   1      -3.242  -3.349   9.126  0.00  0.00     0.151 C 
ATOM      6  O   UNL d   1      -2.547  -4.359   9.017  0.00  0.00    -0.293 OA
ATOM      7  C   UNL d   1      -4.486  -3.317   9.976  0.00  0.00     0.092 C 
ATOM      8  C   UNL d   1      -4.732  -1.915  10.546  0.00  0.00     0.031 C 
ATOM      9  C   UNL d   1      -4.809  -0.918   9.368  0.00  0.00     0.066 C 
BRANCH   8  10
ATOM     10  C   UNL d   1      -3.768  -1.555  11.681  0.00  0.00    -0.053 A 
ATOM     11  C   UNL d   1      -2.991  -0.386  11.685  0.00  0.00     0.009 A 
ATOM     12  C   UNL d   1      -2.164  -0.070  12.769  0.00  0.00     0.024 A 
ATOM     13  C   UNL d   1      -2.094  -0.926  13.861  0.00  0.00     0.034 A 
ATOM     14  C   UNL d   1      -2.851  -2.092  13.884  0.00  0.00     0.024 A 
ATOM     15 CL   UNL d   1      -1.077  -0.537  15.193  0.00  0.00    -0.084 Cl
ATOM     16  C   UNL d   1      -3.689  -2.397  12.807  0.00  0.00     0.009 A 
ENDBRANCH   8  10
ENDBRANCH   1   3
BRANCH   1  17
ATOM     17  C   UNL d   1      -2.710   0.092   6.302  0.00  0.00     0.130 C 
BRANCH  17  18
ATOM     18  C   UNL d   1      -2.989   1.382   5.521  0.00  0.00     0.093 C 
BRANCH  18  19
ATOM     19  S   UNL d   1      -2.373   2.828   6.446  0.00  0.00    -0.163 SA
BRANCH  19  20
ATOM     20  C   UNL d   1      -2.857   4.147   5.292  0.00  0.00     0.112 C 
BRANCH  20  21
ATOM     21  C   UNL d   1      -2.430   5.488   5.837  0.00  0.00    -0.048 A 
ATOM     22  C   UNL d   1      -1.157   6.003   5.545  0.00  0.00     0.024 A 
ATOM     23  C   UNL d   1      -0.723   7.216   6.103  0.00  0.00     0.048 A 
ATOM     24  C   UNL d   1      -1.585   7.916   6.960  0.00  0.00     0.016 A 
ATOM     25  C   UNL d   1      -2.850   7.411   7.259  0.00  0.00     0.001 A 
ATOM     26  C   UNL d   1      -3.269   6.202   6.704  0.00  0.00     0.008 A 
BRANCH  23  27
ATOM     27  C   UNL d   1       0.652   7.762   5.809  0.00  0.00     0.417 C 
ATOM     28  F   UNL d   1       1.393   6.967   4.987  0.00  0.00    -0.166 F 
ATOM     29  F   UNL d   1       1.400   7.932   6.935  0.00  0.00    -0.166 F 
ATOM     30  F   UNL d   1       0.608   8.982   5.204  0.00  0.00    -0.166 F 
ENDBRANCH  23  27
ENDBRANCH  20  21
ENDBRANCH  19  20
ENDBRANCH  18  19
ENDBRANCH  17  18
ENDBRANCH   1  17
TORSDOF 8
