REMARK  3 active torsions:
REMARK  status: ('A' for Active; 'I' for Inactive)
REMARK    1  A    between atoms: C_7  and  N_2 
REMARK    2  A    between atoms: N_10  and  C_7 
REMARK    3  A    between atoms: C_12  and  N_10 
ROOT
ATOM      1  N   UNL d   1       1.186   0.531  -1.293  0.00  0.00    -0.018 NA
ATOM      2  N   UNL d   1       1.454   1.142  -0.120  0.00  0.00    -0.256 N 
ATOM      3  N   UNL d   1       0.784  -0.702  -1.023  0.00  0.00    -0.282 N 
ATOM      4  HN  UNL d   1       0.509  -1.406  -1.708  1.00  0.00     0.184 HD
ATOM      5  C   UNL d   1       0.801  -0.868   0.335  0.00  0.00     0.075 A 
ATOM      6  C   UNL d   1       1.228   0.308   0.946  0.00  0.00     0.078 A 
ATOM      7  C   UNL d   1       0.477  -1.986   1.113  0.00  0.00     0.056 A 
ATOM      8  C   UNL d   1       1.351   0.440   2.334  0.00  0.00     0.035 A 
ATOM      9  C   UNL d   1       0.601  -1.875   2.499  0.00  0.00     0.036 A 
ATOM     10  C   UNL d   1       1.028  -0.689   3.101  0.00  0.00     0.026 A 
ATOM     11 CL   UNL d   1       0.223  -3.236   3.488  0.00  0.00    -0.084 Cl
ENDROOT
BRANCH   2  12
ATOM     12  C   UNL d   1       1.948   2.519  -0.113  0.00  0.00     0.268 C 
BRANCH  12  13
ATOM     13  N   UNL d   1       0.897   3.534  -0.028  0.00  0.00    -0.372 N 
ATOM     14  H   UNL d   1       0.181   3.300   0.656  0.00  0.00     0.161 HD
BRANCH  13  15
ATOM     15  C   UNL d   1       1.223   4.891  -0.036  0.00  0.00     0.029 A 
ATOM     16  C   UNL d   1       2.369   5.412  -0.649  0.00  0.00     0.030 A 
ATOM     17  C   UNL d   1       2.615   6.792  -0.677  0.00  0.00     0.020 A 
ATOM     18  C   UNL d   1       1.698   7.672  -0.110  0.00  0.00     0.006 A 
ATOM     19  C   UNL d   1       0.527   7.184   0.456  0.00  0.00     0.020 A 
ATOM     20  I   UNL d   1       2.071   9.715  -0.124  0.00  0.00    -0.045 I 
ATOM     21  C   UNL d   1       0.289   5.805   0.475  0.00  0.00     0.030 A 
ENDBRANCH  13  15
ENDBRANCH  12  13
ENDBRANCH   2  12
TORSDOF 3
