REMARK  5 active torsions:
REMARK  status: ('A' for Active; 'I' for Inactive)
REMARK    1  A    between atoms: C_4  and  C_1 
REMARK    2  A    between atoms: C_7  and  C_1 
REMARK    3  A    between atoms: N_5  and  N_2 
REMARK    4  A    between atoms: O_11  and  C_4 
REMARK       I    between atoms: C_6  and  N_5 
REMARK    5  A    between atoms: C_10  and  C_6 
ROOT
ATOM      1  C   UNL d   1       1.067  -0.094  -0.126  0.00  0.00     0.132 C 
ATOM      2  N   UNL d   1       0.395  -1.206  -0.231  0.00  0.00    -0.291 N 
ATOM      3  HN  UNL d   1      -0.625  -1.171  -0.248  1.00  0.00     0.187 HD
ENDROOT
BRANCH   2   4
ATOM      4  N   UNL d   1       1.021  -2.414  -0.319  0.00  0.00    -0.265 N 
ATOM      5  C   UNL d   1       0.237  -3.537  -0.564  0.00  0.00     0.270 C 
ATOM      6  O   UNL d   1      -0.979  -3.538  -0.717  0.00  0.00    -0.266 OA
ATOM      7  H   UNL d   1       2.027  -2.471  -0.458  0.00  0.00     0.190 HD
BRANCH   5   8
ATOM      8  C   UNL d   1       0.980  -4.815  -0.665  0.00  0.00     0.033 A 
ATOM      9  C   UNL d   1       1.995  -5.133   0.246  0.00  0.00     0.017 A 
ATOM     10  C   UNL d   1       2.645  -6.364   0.152  0.00  0.00     0.001 A 
ATOM     11  C   UNL d   1       2.287  -7.270  -0.847  0.00  0.00     0.000 A 
ATOM     12  C   UNL d   1       1.272  -6.954  -1.752  0.00  0.00     0.001 A 
ATOM     13  C   UNL d   1       0.611  -5.730  -1.657  0.00  0.00     0.017 A 
ENDBRANCH   5   8
ENDBRANCH   2   4
BRANCH   1  14
ATOM     14  C   UNL d   1       2.583  -0.073   0.013  0.00  0.00     0.195 C 
ATOM     15  O   UNL d   1       3.314   0.575  -0.704  0.00  0.00    -0.645 OA
BRANCH  14  16
ATOM     16  O   UNL d   1       2.982  -0.896   1.002  0.00  0.00    -0.772 OA
ATOM     17  H   UNL d   1       2.204  -1.291   1.453  0.00  0.00     0.167 HD
ENDBRANCH  14  16
ENDBRANCH   1  14
BRANCH   1  18
ATOM     18  C   UNL d   1       0.333   1.199  -0.090  0.00  0.00    -0.001 A 
ATOM     19  C   UNL d   1       0.888   2.350   0.482  0.00  0.00     0.014 A 
ATOM     20  C   UNL d   1       0.156   3.541   0.498  0.00  0.00     0.001 A 
ATOM     21  C   UNL d   1      -1.123   3.589  -0.058  0.00  0.00     0.000 A 
ATOM     22  C   UNL d   1      -1.683   2.443  -0.619  0.00  0.00     0.001 A 
ATOM     23  C   UNL d   1      -0.962   1.249  -0.628  0.00  0.00     0.014 A 
ENDBRANCH   1  18
TORSDOF 5
