REMARK  6 active torsions:
REMARK  status: ('A' for Active; 'I' for Inactive)
REMARK    1  A    between atoms: C_8  and  C_1 
REMARK    2  A    between atoms: N_3  and  C_6 
REMARK    3  A    between atoms: C_17  and  C_4 
REMARK    4  A    between atoms: O_22  and  C_8 
REMARK    5  A    between atoms: N_20  and  N_11 
REMARK    6  A    between atoms: C_14  and  N_20 
ROOT
ATOM      1  N   UNL d   1      -3.802  -1.089  -0.118  0.00  0.00    -0.309 N 
ATOM      2  HN  UNL d   1      -3.961  -0.082  -0.146  1.00  0.00     0.186 HD
ATOM      3  C   UNL d   1      -2.615  -1.603  -0.073  0.00  0.00     0.120 C 
ENDROOT
BRANCH   1   4
ATOM      4  N   UNL d   1      -4.824  -1.990  -0.126  0.00  0.00    -0.286 N 
ATOM      5  H   UNL d   1      -4.807  -2.789   0.507  0.00  0.00     0.188 HD
BRANCH   4   6
ATOM      6  C   UNL d   1      -6.135  -1.480  -0.165  0.00  0.00     0.119 A 
ATOM      7  N   UNL d   1      -7.102  -2.213   0.434  0.00  0.00    -0.349 N 
ATOM      8  C   UNL d   1      -8.372  -1.731   0.403  0.00  0.00     0.125 A 
ATOM      9  HN  UNL d   1      -6.885  -3.098   0.893  1.00  0.00     0.167 HD
ATOM     10  C   UNL d   1      -8.720  -0.541  -0.217  0.00  0.00     0.118 A 
ATOM     11  C   UNL d   1      -7.728   0.202  -0.850  0.00  0.00     0.041 A 
ATOM     12  C   UNL d   1      -6.420  -0.282  -0.825  0.00  0.00     0.052 A 
BRANCH  10  13
ATOM     13  N   UNL d   1     -10.101  -0.083  -0.197  0.00  0.00    -0.114 N 
ATOM     14  O   UNL d   1     -10.934  -0.790   0.388  0.00  0.00    -0.532 OA
ATOM     15  O   UNL d   1     -10.362   0.987  -0.764  0.00  0.00    -0.532 OA
ENDBRANCH  10  13
ENDBRANCH   4   6
ENDBRANCH   1   4
BRANCH   3  16
ATOM     16  C   UNL d   1      -1.482  -0.703  -0.049  0.00  0.00    -0.001 A 
ATOM     17  C   UNL d   1      -1.485   0.716  -0.041  0.00  0.00     0.050 A 
ATOM     18  C   UNL d   1      -0.175   1.186  -0.025  0.00  0.00     0.111 A 
ATOM     19  N   UNL d   1       0.626   0.059  -0.025  0.00  0.00    -0.355 N 
ATOM     20  C   UNL d   1      -0.157  -1.077  -0.032  0.00  0.00     0.104 A 
ATOM     21  C   UNL d   1       2.072  -0.015  -0.031  0.00  0.00     0.156 C 
BRANCH  18  22
ATOM     22  C   UNL d   1       0.261   2.572  -0.013  0.00  0.00     0.309 C 
ATOM     23  O   UNL d   1       1.417   2.971  -0.003  0.00  0.00    -0.258 OA
BRANCH  22  24
ATOM     24  O   UNL d   1      -0.832   3.390  -0.015  0.00  0.00    -0.321 OA
ATOM     25  C   UNL d   1      -0.539   4.786  -0.002  0.00  0.00     0.213 C 
ENDBRANCH  22  24
ENDBRANCH  18  22
ENDBRANCH   3  16
TORSDOF 6
