REMARK  3 active torsions:
REMARK  status: ('A' for Active; 'I' for Inactive)
REMARK    1  A    between atoms: C_14  and  C_2 
REMARK    2  A    between atoms: O_19  and  C_2 
REMARK    3  A    between atoms: C_6  and  C_4 
ROOT
ATOM      1  N   UNL d   1      -0.192  -0.658   0.014  0.00  0.00    -0.243 N 
ATOM      2  C   UNL d   1      -0.161   0.740   0.027  0.00  0.00     0.129 A 
ATOM      3  C   UNL d   1       2.180  -0.767  -0.052  0.00  0.00     0.027 A 
ATOM      4  C   UNL d   1       0.995  -1.419  -0.010  0.00  0.00     0.046 A 
ATOM      5  N   UNL d   1      -1.475  -1.116   0.029  0.00  0.00    -0.297 N 
ATOM      6  HN  UNL d   1      -1.785  -2.088   0.041  1.00  0.00     0.187 HD
ATOM      7  N   UNL d   1       1.006   1.446   0.030  0.00  0.00    -0.350 N 
ATOM      8  HN  UNL d   1       1.028   2.465   0.062  1.00  0.00     0.166 HD
ATOM      9  C   UNL d   1      -1.472   1.157   0.030  0.00  0.00     0.076 A 
ATOM     10  C   UNL d   1       2.086   0.728  -0.011  0.00  0.00     0.105 A 
ATOM     11  C   UNL d   1      -2.239  -0.021   0.024  0.00  0.00     0.026 A 
ATOM     12  C   UNL d   1       0.801  -2.912   0.025  0.00  0.00     0.071 C 
ATOM     13  C   UNL d   1      -3.718  -0.132   0.011  0.00  0.00     0.070 C 
ENDROOT
BRANCH   3  14
ATOM     14  C   UNL d   1       3.503  -1.438  -0.082  0.00  0.00     0.038 C 
ATOM     15  N   UNL d   1       3.765  -2.561  -0.671  0.00  0.00    -0.321 N 
ATOM     16  N   UNL d   1       5.073  -2.826  -0.430  0.00  0.00    -0.198 NA
ATOM     17  HN  UNL d   1       3.116  -3.134  -1.211  1.00  0.00     0.180 HD
ATOM     18  C   UNL d   1       5.620  -2.017   0.668  0.00  0.00     0.233 C 
ATOM     19  H   UNL d   1       5.235  -3.821  -0.260  0.00  0.00     0.150 HD
ATOM     20  C   UNL d   1       4.702  -0.800   0.575  0.00  0.00     0.125 C 
BRANCH  18  21
ATOM     21  C   UNL d   1       7.132  -1.645   0.520  0.00  0.00     0.434 C 
ATOM     22  F   UNL d   1       7.692  -2.118  -0.615  0.00  0.00    -0.166 F 
ATOM     23  F   UNL d   1       7.336  -0.308   0.556  0.00  0.00    -0.166 F 
ATOM     24  F   UNL d   1       7.835  -2.170   1.560  0.00  0.00    -0.166 F 
ENDBRANCH  18  21
BRANCH  18  25
ATOM     25  O   UNL d   1       5.331  -2.675   1.915  0.00  0.00    -0.366 OA
ATOM     26  H   UNL d   1       6.016  -2.406   2.556  0.00  0.00     0.212 HD
ENDBRANCH  18  25
ENDBRANCH   3  14
TORSDOF 3
