REMARK  7 active torsions:
REMARK  status: ('A' for Active; 'I' for Inactive)
REMARK    1  A    between atoms: C_4  and  C_1 
REMARK    2  A    between atoms: N_2  and  C_3 
REMARK       I    between atoms: N_5  and  C_4 
REMARK    3  A    between atoms: C_8  and  N_5 
REMARK    4  A    between atoms: O_16  and  C_12 
REMARK    5  A    between atoms: C_20  and  O_16 
REMARK    6  A    between atoms: O_17  and  C_21 
REMARK    7  A    between atoms: C_21  and  C_20 
ROOT
ATOM      1  C   UNL d   1       4.052  -0.532   1.477  0.00  0.00     0.258 C 
ATOM      2  N   UNL d   1       4.569  -1.166   0.355  0.00  0.00    -0.320 N 
ATOM      3  O   UNL d   1       3.046  -0.897   2.069  0.00  0.00    -0.267 OA
ATOM      4  H   UNL d   1       5.496  -0.945   0.024  0.00  0.00     0.169 HD
ENDROOT
BRANCH   2   5
ATOM      5  C   UNL d   1       4.085  -2.425  -0.044  0.00  0.00     0.068 A 
ATOM      6  C   UNL d   1       3.144  -2.589  -1.073  0.00  0.00     0.095 A 
ATOM      7  C   UNL d   1       2.657  -3.877  -1.333  0.00  0.00     0.039 A 
ATOM      8  C   UNL d   1       3.127  -4.983  -0.619  0.00  0.00     0.003 A 
ATOM      9  C   UNL d   1       4.092  -4.814   0.369  0.00  0.00     0.002 A 
ATOM     10  C   UNL d   1       4.572  -3.540   0.656  0.00  0.00     0.032 A 
BRANCH   6  11
ATOM     11  O   UNL d   1       2.566  -1.614  -1.844  0.00  0.00    -0.347 OA
BRANCH  11  12
ATOM     12  C   UNL d   1       3.405  -0.539  -2.260  0.00  0.00     0.201 C 
BRANCH  12  13
ATOM     13  C   UNL d   1       2.666   0.305  -3.298  0.00  0.00     0.193 C 
BRANCH  13  14
ATOM     14  O   UNL d   1       3.480   1.430  -3.639  0.00  0.00    -0.394 OA
ATOM     15  C   UNL d   1       2.802   2.328  -4.509  0.00  0.00     0.201 C 
ENDBRANCH  13  14
ENDBRANCH  12  13
ENDBRANCH  11  12
ENDBRANCH   6  11
ENDBRANCH   2   5
BRANCH   1  16
ATOM     16  C   UNL d   1       4.770   0.695   1.934  0.00  0.00     0.065 A 
ATOM     17  C   UNL d   1       4.110   1.731   2.604  0.00  0.00     0.120 A 
ATOM     18  C   UNL d   1       4.737   2.952   2.900  0.00  0.00     0.060 A 
ATOM     19  C   UNL d   1       6.075   3.115   2.568  0.00  0.00     0.036 A 
ATOM     20  C   UNL d   1       6.787   2.068   1.986  0.00  0.00     0.025 A 
ATOM     21 CL   UNL d   1       6.865   4.605   2.893  0.00  0.00    -0.084 Cl
ATOM     22  C   UNL d   1       6.141   0.864   1.672  0.00  0.00     0.021 A 
BRANCH  17  23
ATOM     23  N   UNL d   1       2.754   1.582   3.092  0.00  0.00    -0.115 N 
ATOM     24  O   UNL d   1       2.624   1.067   4.209  0.00  0.00    -0.532 OA
ATOM     25  O   UNL d   1       1.864   2.122   2.422  0.00  0.00    -0.532 OA
ENDBRANCH  17  23
ENDBRANCH   1  16
TORSDOF 7
