REMARK  2 active torsions:
REMARK  status: ('A' for Active; 'I' for Inactive)
REMARK    1  A    between atoms: O_12  and  C_3 
REMARK    2  A    between atoms: O_13  and  C_9 
ROOT
ATOM      1  C   UNL d   1      -0.039  -0.686   0.099  0.00  0.00     0.126 A 
ATOM      2  C   UNL d   1      -0.058   0.711   0.024  0.00  0.00     0.007 A 
ATOM      3  C   UNL d   1      -1.214  -1.438   0.113  0.00  0.00     0.134 A 
ATOM      4  C   UNL d   1       1.228   1.429   0.036  0.00  0.00    -0.043 A 
ATOM      5  O   UNL d   1       1.167  -1.412   0.147  0.00  0.00    -0.272 OA
ATOM      6  C   UNL d   1       2.385  -0.764   0.081  0.00  0.00     0.288 A 
ATOM      7  C   UNL d   1       2.356   0.705   0.058  0.00  0.00     0.090 A 
ATOM      8  C   UNL d   1      -1.313   1.337  -0.056  0.00  0.00     0.018 A 
ATOM      9  C   UNL d   1      -2.439  -0.794   0.037  0.00  0.00     0.101 A 
ATOM     10  O   UNL d   1       3.448  -1.374   0.061  0.00  0.00    -0.260 OA
ATOM     11  C   UNL d   1      -2.499   0.588  -0.050  0.00  0.00     0.040 A 
ATOM     12  C   UNL d   1       1.317   2.928   0.040  0.00  0.00     0.049 C 
ENDROOT
BRANCH   3  13
ATOM     13  O   UNL d   1      -1.200  -2.804   0.200  0.00  0.00    -0.356 OA
ATOM     14  H   UNL d   1      -0.261  -3.067   0.266  0.00  0.00     0.218 HD
ENDBRANCH   3  13
BRANCH   9  15
ATOM     15  O   UNL d   1      -3.596  -1.516   0.040  0.00  0.00    -0.358 OA
ATOM     16  H   UNL d   1      -3.309  -2.450   0.097  0.00  0.00     0.217 HD
ENDBRANCH   9  15
TORSDOF 2
