REMARK  7 active torsions:
REMARK  status: ('A' for Active; 'I' for Inactive)
REMARK    1  A    between atoms: N_4  and  S_1 
REMARK    2  A    between atoms: C_5  and  S_1 
REMARK    3  A    between atoms: S_2  and  C_3 
REMARK    4  A    between atoms: C_6  and  S_2 
REMARK    5  A    between atoms: C_3  and  C_7 
REMARK    6  A    between atoms: C_7  and  N_4 
REMARK    7  A    between atoms: C_23  and  N_4 
ROOT
ATOM      1  N   UNL d   1       0.184   1.435   0.243  0.00  0.00    -0.206 NA
ENDROOT
BRANCH   1   2
ATOM      2  S   UNL d   1       1.022  -0.059  -0.096  0.00  0.00     0.243 S 
ATOM      3  O   UNL d   1       2.437   0.252  -0.188  0.00  0.00    -0.206 OA
ATOM      4  O   UNL d   1       0.362  -0.765  -1.167  0.00  0.00    -0.206 OA
BRANCH   2   5
ATOM      5  C   UNL d   1       0.787  -0.992   1.408  0.00  0.00     0.074 A 
ATOM      6  C   UNL d   1      -0.340  -1.799   1.575  0.00  0.00     0.025 A 
ATOM      7  C   UNL d   1      -0.540  -2.438   2.803  0.00  0.00     0.008 A 
ATOM      8  C   UNL d   1       0.384  -2.288   3.849  0.00  0.00    -0.062 A 
ATOM      9  C   UNL d   1       1.529  -1.510   3.648  0.00  0.00     0.008 A 
ATOM     10  C   UNL d   1       0.134  -2.940   5.178  0.00  0.00     0.048 C 
ATOM     11  C   UNL d   1       1.741  -0.879   2.424  0.00  0.00     0.025 A 
ENDBRANCH   2   5
ENDBRANCH   1   2
BRANCH   1  12
ATOM     12  C   UNL d   1      -1.320   1.424   0.226  0.00  0.00     0.122 C 
BRANCH  12  13
ATOM     13  C   UNL d   1      -1.930   0.945  -1.080  0.00  0.00     0.161 C 
BRANCH  13  14
ATOM     14  S   UNL d   1      -3.701   0.989  -0.988  0.00  0.00     0.176 S 
ATOM     15  O   UNL d   1      -4.122   0.046   0.032  0.00  0.00    -0.223 OA
ATOM     16  O   UNL d   1      -4.130   2.373  -0.940  0.00  0.00    -0.223 OA
BRANCH  14  17
ATOM     17  C   UNL d   1      -4.195   0.322  -2.564  0.00  0.00     0.059 A 
ATOM     18  C   UNL d   1      -4.352  -1.061  -2.710  0.00  0.00     0.025 A 
ATOM     19  C   UNL d   1      -4.765  -1.578  -3.940  0.00  0.00     0.025 A 
ATOM     20  C   UNL d   1      -5.024  -0.714  -5.005  0.00  0.00     0.034 A 
ATOM     21  C   UNL d   1      -4.864   0.665  -4.856  0.00  0.00     0.025 A 
ATOM     22 CL   UNL d   1      -5.558  -1.352  -6.511  0.00  0.00    -0.084 Cl
ATOM     23  C   UNL d   1      -4.451   1.189  -3.630  0.00  0.00     0.025 A 
ENDBRANCH  14  17
ENDBRANCH  13  14
ENDBRANCH  12  13
ENDBRANCH   1  12
BRANCH   1  24
ATOM     24  C   UNL d   1       0.771   2.127   1.450  0.00  0.00     0.103 C 
ATOM     25  C   UNL d   1       0.218   3.509   1.744  0.00  0.00     0.021 C 
ENDBRANCH   1  24
TORSDOF 7
