REMARK  7 active torsions:
REMARK  status: ('A' for Active; 'I' for Inactive)
REMARK    1  A    between atoms: N_4  and  C_1 
REMARK    2  A    between atoms: C_8  and  C_2 
REMARK    3  A    between atoms: C_3  and  C_5 
REMARK       I    between atoms: C_5  and  N_4 
REMARK    4  A    between atoms: O_16  and  C_8 
REMARK    5  A    between atoms: C_15  and  C_9 
REMARK    6  A    between atoms: C_24  and  O_16 
REMARK    7  A    between atoms: O_22  and  C_17 
ROOT
ATOM      1  C   UNL d   1       3.624   0.425   1.562  0.00  0.00     0.113 C 
ATOM      2  C   UNL d   1       4.752  -0.037   2.143  0.00  0.00     0.039 C 
ATOM      3  C   UNL d   1       3.192   1.768   1.671  0.00  0.00     0.105 C 
ATOM      4  N   UNL d   1       2.824   2.870   1.710  0.00  0.00    -0.191 NA
ENDROOT
BRANCH   1   5
ATOM      5  C   UNL d   1       2.805  -0.597   0.823  0.00  0.00     0.267 C 
ATOM      6  N   UNL d   1       1.523  -0.205   0.458  0.00  0.00    -0.316 N 
ATOM      7  H   UNL d   1       1.261   0.781   0.476  0.00  0.00     0.170 HD
ATOM      8  O   UNL d   1       3.315  -1.690   0.576  0.00  0.00    -0.267 OA
BRANCH   6   9
ATOM      9  C   UNL d   1       0.632  -1.033  -0.225  0.00  0.00     0.093 C 
ATOM     10  C   UNL d   1      -0.452  -0.668  -1.015  0.00  0.00     0.079 C 
ATOM     11  C   UNL d   1      -0.879  -1.812  -1.809  0.00  0.00    -0.036 C 
ATOM     12  C   UNL d   1      -1.739  -1.783  -3.030  0.00  0.00     0.050 C 
ATOM     13  C   UNL d   1      -0.382  -2.989  -1.288  0.00  0.00     0.059 C 
ATOM     14  S   UNL d   1       0.723  -2.724  -0.032  0.00  0.00    -0.083 SA
BRANCH  10  15
ATOM     15  C   UNL d   1      -0.979   0.699  -1.060  0.00  0.00     0.296 C 
ATOM     16  O   UNL d   1      -0.467   1.628  -0.444  0.00  0.00    -0.259 OA
BRANCH  15  17
ATOM     17  O   UNL d   1      -2.140   0.788  -1.768  0.00  0.00    -0.318 OA
BRANCH  17  18
ATOM     18  C   UNL d   1      -2.913   1.992  -1.642  0.00  0.00     0.174 C 
ATOM     19  C   UNL d   1      -2.367   3.111  -2.506  0.00  0.00     0.034 C 
ENDBRANCH  17  18
ENDBRANCH  15  17
ENDBRANCH  10  15
ENDBRANCH   6   9
ENDBRANCH   1   5
BRANCH   2  20
ATOM     20  C   UNL d   1       5.608   0.709   3.067  0.00  0.00    -0.034 A 
ATOM     21  C   UNL d   1       5.657   0.264   4.394  0.00  0.00     0.014 A 
ATOM     22  C   UNL d   1       6.423   0.942   5.338  0.00  0.00     0.037 A 
ATOM     23  C   UNL d   1       7.149   2.060   4.952  0.00  0.00     0.065 A 
ATOM     24  C   UNL d   1       7.135   2.501   3.631  0.00  0.00     0.037 A 
ATOM     25  C   UNL d   1       6.364   1.821   2.682  0.00  0.00     0.014 A 
BRANCH  23  26
ATOM     26  O   UNL d   1       7.871   2.702   5.913  0.00  0.00    -0.361 OA
ATOM     27  H   UNL d   1       8.291   3.483   5.518  0.00  0.00     0.217 HD
ENDBRANCH  23  26
ENDBRANCH   2  20
TORSDOF 7
