REMARK  3 active torsions:
REMARK  status: ('A' for Active; 'I' for Inactive)
REMARK    1  A    between atoms: C_7  and  N_1 
REMARK    2  A    between atoms: C_12  and  C_7 
REMARK    3  A    between atoms: C_14  and  C_12 
ROOT
ATOM      1  N   UNL d   1       2.258  -0.107   0.103  0.00  0.00    -0.280 N 
ATOM      2  C   UNL d   1       1.557  -1.313   0.052  0.00  0.00     0.261 A 
ATOM      3  C   UNL d   1       1.667   1.153   0.002  0.00  0.00     0.261 A 
ATOM      4  C   UNL d   1       0.078  -1.232   0.034  0.00  0.00     0.044 A 
ATOM      5  C   UNL d   1       0.188   1.206  -0.018  0.00  0.00     0.044 A 
ATOM      6  C   UNL d   1      -0.550   0.018   0.008  0.00  0.00     0.005 A 
ATOM      7  O   UNL d   1       2.089  -2.419   0.012  0.00  0.00    -0.267 OA
ATOM      8  O   UNL d   1       2.307   2.200  -0.067  0.00  0.00    -0.267 OA
ATOM      9  C   UNL d   1      -1.964   0.083   0.002  0.00  0.00    -0.024 A 
ATOM     10  C   UNL d   1      -0.680  -2.411   0.048  0.00  0.00     0.018 A 
ATOM     11  C   UNL d   1      -0.457   2.449  -0.051  0.00  0.00     0.018 A 
ATOM     12  C   UNL d   1      -1.847   2.513  -0.055  0.00  0.00     0.002 A 
ATOM     13  C   UNL d   1      -2.071  -2.347   0.046  0.00  0.00     0.002 A 
ATOM     14  C   UNL d   1      -2.597   1.336  -0.027  0.00  0.00     0.012 A 
ATOM     15  C   UNL d   1      -2.709  -1.106   0.026  0.00  0.00     0.012 A 
ENDROOT
BRANCH   1  16
ATOM     16  C   UNL d   1       3.723  -0.156   0.182  0.00  0.00     0.141 C 
BRANCH  16  17
ATOM     17  C   UNL d   1       4.247   0.359   1.527  0.00  0.00     0.077 C 
BRANCH  17  18
ATOM     18  C   UNL d   1       5.748   0.270   1.607  0.00  0.00     0.010 A 
ATOM     19  N   UNL d   1       6.265  -0.859   2.148  0.00  0.00    -0.369 N 
ATOM     20  C   UNL d   1       7.611  -0.950   2.232  0.00  0.00     0.088 A 
ATOM     21  HN  UNL d   1       5.661  -1.611   2.480  1.00  0.00     0.165 HD
ATOM     22  C   UNL d   1       8.478   0.035   1.794  0.00  0.00     0.017 A 
ATOM     23  C   UNL d   1       7.934   1.183   1.232  0.00  0.00     0.003 A 
ATOM     24  C   UNL d   1       6.551   1.306   1.133  0.00  0.00     0.025 A 
ENDBRANCH  17  18
ENDBRANCH  16  17
ENDBRANCH   1  16
TORSDOF 3
