REMARK  6 active torsions:
REMARK  status: ('A' for Active; 'I' for Inactive)
REMARK    1  A    between atoms: C_5  and  C_1 
REMARK    2  A    between atoms: N_13  and  C_4 
REMARK    3  A    between atoms: N_8  and  C_18 
REMARK    4  A    between atoms: C_19  and  N_13 
REMARK    5  A    between atoms: C_17  and  C_15 
REMARK    6  A    between atoms: C_18  and  C_19 
ROOT
ATOM      1  N   UNL d   1      -0.527   1.058  -4.471  0.00  0.00    -0.263 NA
ATOM      2  H   UNL d   1      -1.129   1.633  -3.893  0.00  0.00     0.130 HD
ENDROOT
BRANCH   1   3
ATOM      3  C   UNL d   1      -0.013   0.075  -3.640  0.00  0.00     0.157 A 
ATOM      4  N   UNL d   1      -0.068   0.345  -2.331  0.00  0.00    -0.329 N 
ATOM      5  C   UNL d   1       0.466  -0.562  -1.470  0.00  0.00     0.120 A 
ATOM      6  HN  UNL d   1      -0.498   1.204  -1.989  1.00  0.00     0.168 HD
ATOM      7  C   UNL d   1       1.039  -1.738  -1.915  0.00  0.00     0.051 A 
ATOM      8  C   UNL d   1       1.031  -1.932  -3.272  0.00  0.00     0.093 A 
ATOM      9  N   UNL d   1       0.514  -1.048  -4.142  0.00  0.00    -0.343 N 
ATOM     10  HN  UNL d   1       0.523  -1.226  -5.146  1.00  0.00     0.167 HD
BRANCH   5  11
ATOM     11  C   UNL d   1       0.446  -0.277   0.021  0.00  0.00     0.432 C 
ATOM     12  F   UNL d   1      -0.142   0.902   0.365  0.00  0.00    -0.165 F 
ATOM     13  F   UNL d   1       1.701  -0.238   0.559  0.00  0.00    -0.165 F 
ATOM     14  F   UNL d   1      -0.218  -1.242   0.724  0.00  0.00    -0.165 F 
ENDBRANCH   5  11
ENDBRANCH   1   3
BRANCH   1  15
ATOM     15  C   UNL d   1      -1.118   0.571  -5.709  0.00  0.00     0.114 C 
BRANCH  15  16
ATOM     16  C   UNL d   1      -1.685   1.742  -6.530  0.00  0.00     0.133 C 
BRANCH  16  17
ATOM     17  N   UNL d   1      -2.236   1.214  -7.783  0.00  0.00    -0.397 N 
ATOM     18  C   UNL d   1      -2.699   2.107  -8.589  0.00  0.00     0.094 C 
ATOM     19  HN  UNL d   1      -2.253   0.218  -8.000  1.00  0.00     0.158 HD
BRANCH  18  20
ATOM     20  C   UNL d   1      -3.252   1.733  -9.908  0.00  0.00    -0.021 A 
ATOM     21  C   UNL d   1      -3.255   0.395 -10.314  0.00  0.00     0.013 A 
ATOM     22  C   UNL d   1      -3.762   0.049 -11.566  0.00  0.00     0.001 A 
ATOM     23  C   UNL d   1      -4.265   1.037 -12.411  0.00  0.00     0.000 A 
ATOM     24  C   UNL d   1      -4.264   2.373 -12.005  0.00  0.00     0.001 A 
ATOM     25  C   UNL d   1      -3.757   2.726 -10.751  0.00  0.00     0.013 A 
ENDBRANCH  18  20
ENDBRANCH  16  17
ENDBRANCH  15  16
ENDBRANCH   1  15
TORSDOF 6
