REMARK  1 active torsions:
REMARK  status: ('A' for Active; 'I' for Inactive)
REMARK    1  A    between atoms: C_6  and  C_1 
ROOT
ATOM      1  C   UNL d   1       2.072  -0.038  -0.074  0.00  0.00     0.169 A 
ATOM      2  C   UNL d   1       1.151   1.169  -0.079  0.00  0.00     0.176 A 
ATOM      3  C   UNL d   1       1.115  -1.215  -0.093  0.00  0.00     0.176 A 
ATOM      4  C   UNL d   1      -0.233   0.692  -0.114  0.00  0.00     0.025 A 
ATOM      5  C   UNL d   1      -0.253  -0.696  -0.122  0.00  0.00     0.025 A 
ATOM      6  O   UNL d   1       1.462   2.346  -0.080  0.00  0.00    -0.291 OA
ATOM      7  O   UNL d   1       1.390  -2.402  -0.106  0.00  0.00    -0.291 OA
ATOM      8  C   UNL d   1      -1.397   1.437  -0.082  0.00  0.00     0.016 A 
ATOM      9  C   UNL d   1      -1.440  -1.406  -0.096  0.00  0.00     0.016 A 
ATOM     10  C   UNL d   1      -2.608   0.738  -0.052  0.00  0.00     0.001 A 
ATOM     11  C   UNL d   1      -2.629  -0.670  -0.058  0.00  0.00     0.001 A 
ENDROOT
BRANCH   1  12
ATOM     12  C   UNL d   1       3.087  -0.057   1.052  0.00  0.00    -0.022 A 
ATOM     13  C   UNL d   1       2.779  -0.070   2.425  0.00  0.00     0.018 A 
ATOM     14 BR   UNL d   1       1.010  -0.063   3.119  0.00  0.00    -0.051 Br
ATOM     15  C   UNL d   1       3.801  -0.087   3.386  0.00  0.00     0.019 A 
ATOM     16  C   UNL d   1       5.138  -0.090   3.000  0.00  0.00     0.001 A 
ATOM     17  C   UNL d   1       5.463  -0.077   1.650  0.00  0.00     0.001 A 
ATOM     18  C   UNL d   1       4.450  -0.062   0.688  0.00  0.00     0.010 A 
ENDBRANCH   1  12
TORSDOF 1
