REMARK  5 active torsions:
REMARK  status: ('A' for Active; 'I' for Inactive)
REMARK    1  A    between atoms: C_5  and  C_1 
REMARK    2  A    between atoms: O_11  and  C_5 
REMARK    3  A    between atoms: N_8  and  O_11 
REMARK    4  A    between atoms: C_12  and  C_10 
REMARK    5  A    between atoms: N_16  and  C_10 
ROOT
ATOM      1  N   UNL d   1      -2.425   2.546  -0.232  0.00  0.00    -0.246 N 
ATOM      2  HN  UNL d   1      -1.599   3.081  -0.500  1.00  0.00     0.196 HD
ATOM      3  C   UNL d   1      -3.596   3.067  -0.008  0.00  0.00     0.109 C 
ENDROOT
BRANCH   1   4
ATOM      4  O   UNL d   1      -2.441   1.142  -0.057  0.00  0.00    -0.193 OA
BRANCH   4   5
ATOM      5  C   UNL d   1      -1.192   0.603  -0.285  0.00  0.00     0.319 C 
ATOM      6  O   UNL d   1      -0.201   1.229  -0.654  0.00  0.00    -0.257 OA
BRANCH   5   7
ATOM      7  C   UNL d   1      -1.154  -0.832  -0.056  0.00  0.00     0.096 A 
ATOM      8  C   UNL d   1      -2.169  -1.668   0.369  0.00  0.00     0.090 A 
ATOM      9  O   UNL d   1      -1.704  -2.943   0.449  0.00  0.00    -0.242 OA
ATOM     10  C   UNL d   1      -3.586  -1.494   0.742  0.00  0.00     0.080 C 
ATOM     11  N   UNL d   1      -0.378  -2.979   0.084  0.00  0.00    -0.265 N 
ATOM     12  C   UNL d   1      -0.046  -1.716  -0.213  0.00  0.00     0.047 A 
ATOM     13  HN  UNL d   1       0.228  -3.799   0.047  1.00  0.00     0.194 HD
ATOM     14  C   UNL d   1       1.339  -1.410  -0.646  0.00  0.00     0.071 C 
ENDBRANCH   5   7
ENDBRANCH   4   5
ENDBRANCH   1   4
BRANCH   3  15
ATOM     15  C   UNL d   1      -3.752   4.555  -0.130  0.00  0.00     0.004 A 
ATOM     16  C   UNL d   1      -2.883   5.290  -0.945  0.00  0.00     0.016 A 
ATOM     17  C   UNL d   1      -3.062   6.669  -1.098  0.00  0.00     0.024 A 
ATOM     18  C   UNL d   1      -4.101   7.314  -0.429  0.00  0.00     0.034 A 
ATOM     19  C   UNL d   1      -4.957   6.596   0.404  0.00  0.00     0.024 A 
ATOM     20 CL   UNL d   1      -4.331   9.008  -0.630  0.00  0.00    -0.084 Cl
ATOM     21  C   UNL d   1      -4.782   5.216   0.555  0.00  0.00     0.016 A 
ENDBRANCH   3  15
BRANCH   3  22
ATOM     22  N   UNL d   1      -4.710   2.321   0.310  0.00  0.00    -0.286 NA
ATOM     23  H   UNL d   1      -4.594   1.341   0.085  0.00  0.00     0.125 HD
ATOM     24  H   UNL d   1      -5.591   2.685  -0.037  0.00  0.00     0.125 HD
ENDBRANCH   3  22
TORSDOF 5
