REMARK  4 active torsions:
REMARK  status: ('A' for Active; 'I' for Inactive)
REMARK    1  A    between atoms: C_4  and  N_1 
REMARK    2  A    between atoms: C_5  and  C_7 
REMARK    3  A    between atoms: C_6  and  C_8 
REMARK    4  A    between atoms: C_23  and  C_14 
ROOT
ATOM      1  C   UNL d   1       1.389   2.220  -1.071  0.00  0.00     0.046 A 
ATOM      2  C   UNL d   1       3.069   2.779  -2.782  0.00  0.00     0.050 A 
ATOM      3  C   UNL d   1       1.467   4.465  -2.054  0.00  0.00     0.050 A 
ATOM      4  C   UNL d   1       2.501   1.881  -1.868  0.00  0.00     0.046 A 
ATOM      5  C   UNL d   1       0.891   3.526  -1.176  0.00  0.00     0.046 A 
ATOM      6  C   UNL d   1       2.549   4.077  -2.859  0.00  0.00     0.032 A 
ENDROOT
BRANCH   1   7
ATOM      7  N   UNL d   1       0.712   1.166  -0.369  0.00  0.00    -0.252 N 
ATOM      8  C   UNL d   1       1.426   0.044   0.026  0.00  0.00     0.232 C 
ATOM      9  C   UNL d   1       0.690  -1.262  -0.152  0.00  0.00     0.113 C 
ATOM     10  O   UNL d   1       2.593   0.050   0.422  0.00  0.00    -0.273 OA
ATOM     11  C   UNL d   1      -0.753  -1.229   0.357  0.00  0.00    -0.028 C 
ATOM     12  C   UNL d   1      -1.429   0.063  -0.121  0.00  0.00     0.113 C 
ATOM     13  C   UNL d   1      -0.773  -1.278   1.895  0.00  0.00     0.016 C 
ATOM     14  C   UNL d   1      -0.588   1.306   0.100  0.00  0.00     0.232 C 
ATOM     15  O   UNL d   1      -1.089   2.314   0.586  0.00  0.00    -0.273 OA
BRANCH  11  16
ATOM     16  C   UNL d   1      -1.547  -2.426  -0.241  0.00  0.00     0.005 C 
ATOM     17  C   UNL d   1      -0.989  -3.810   0.070  0.00  0.00     0.006 C 
ENDBRANCH  11  16
ENDBRANCH   1   7
BRANCH   2  18
ATOM     18  C   UNL d   1       4.165   2.326  -3.717  0.00  0.00     0.417 C 
ATOM     19  F   UNL d   1       4.513   1.019  -3.554  0.00  0.00    -0.166 F 
ATOM     20  F   UNL d   1       3.799   2.448  -5.023  0.00  0.00    -0.166 F 
ATOM     21  F   UNL d   1       5.310   3.044  -3.576  0.00  0.00    -0.166 F 
ENDBRANCH   2  18
BRANCH   3  22
ATOM     22  C   UNL d   1       0.904   5.862  -2.176  0.00  0.00     0.417 C 
ATOM     23  F   UNL d   1      -0.152   6.107  -1.356  0.00  0.00    -0.166 F 
ATOM     24  F   UNL d   1       1.831   6.819  -1.896  0.00  0.00    -0.166 F 
ATOM     25  F   UNL d   1       0.466   6.126  -3.439  0.00  0.00    -0.166 F 
ENDBRANCH   3  22
TORSDOF 4
