REMARK  9 active torsions:
REMARK  status: ('A' for Active; 'I' for Inactive)
REMARK    1  A    between atoms: C_6  and  C_1 
REMARK    2  A    between atoms: C_13  and  C_1 
REMARK    3  A    between atoms: C_10  and  N_2 
REMARK    4  A    between atoms: C_9  and  N_3 
REMARK    5  A    between atoms: N_7  and  C_6 
REMARK    6  A    between atoms: C_14  and  N_8 
REMARK    7  A    between atoms: C_26  and  C_13 
REMARK    8  A    between atoms: C_19  and  C_14 
REMARK    9  A    between atoms: C_27  and  C_26 
ROOT
ATOM      1  C   UNL d   1      -0.068  -1.032  -0.566  0.00  0.00     0.152 C 
ATOM      2  N   UNL d   1      -0.725   1.239  -0.428  0.00  0.00    -0.213 N 
ATOM      3  N   UNL d   1       0.628   1.213  -0.843  0.00  0.00    -0.213 N 
ATOM      4  C   UNL d   1      -1.236  -0.070  -0.407  0.00  0.00     0.263 C 
ATOM      5  C   UNL d   1       1.120  -0.097  -0.742  0.00  0.00     0.263 C 
ATOM      6  O   UNL d   1      -2.411  -0.402  -0.354  0.00  0.00    -0.270 OA
ATOM      7  O   UNL d   1       2.290  -0.457  -0.792  0.00  0.00    -0.270 OA
ENDROOT
BRANCH   1   8
ATOM      8  C   UNL d   1       0.227  -1.853   0.724  0.00  0.00     0.301 C 
BRANCH   8   9
ATOM      9  N   UNL d   1      -0.636  -2.993   1.149  0.00  0.00     0.093 N 
ATOM     10  C   UNL d   1      -1.925  -2.599   1.758  0.00  0.00     0.302 C 
ATOM     11  C   UNL d   1      -1.790  -1.745   3.040  0.00  0.00     0.303 C 
ATOM     12  N   UNL d   1      -0.934  -2.316   4.099  0.00  0.00     0.096 N 
ATOM     13  C   UNL d   1       0.248  -3.020   3.550  0.00  0.00     0.303 C 
ATOM     14  C   UNL d   1       0.054  -3.779   2.210  0.00  0.00     0.302 C 
BRANCH  12  15
ATOM     15  C   UNL d   1      -1.705  -3.138   5.042  0.00  0.00     0.311 C 
BRANCH  15  16
ATOM     16  C   UNL d   1      -0.947  -3.440   6.322  0.00  0.00    -0.030 A 
ATOM     17  C   UNL d   1      -0.351  -2.408   7.065  0.00  0.00     0.009 A 
ATOM     18  C   UNL d   1       0.358  -2.690   8.233  0.00  0.00     0.001 A 
ATOM     19  C   UNL d   1       0.473  -4.004   8.680  0.00  0.00     0.000 A 
ATOM     20  C   UNL d   1      -0.129  -5.036   7.962  0.00  0.00     0.001 A 
ATOM     21  C   UNL d   1      -0.839  -4.756   6.791  0.00  0.00     0.009 A 
ENDBRANCH  15  16
ENDBRANCH  12  15
ENDBRANCH   8   9
ENDBRANCH   1   8
BRANCH   1  22
ATOM     22  C   UNL d   1      -0.200  -1.899  -1.837  0.00  0.00     0.031 C 
BRANCH  22  23
ATOM     23  C   UNL d   1      -0.158  -1.082  -3.143  0.00  0.00     0.001 C 
BRANCH  23  24
ATOM     24  C   UNL d   1      -0.161  -1.962  -4.390  0.00  0.00    -0.005 C 
ATOM     25  C   UNL d   1      -0.044  -1.112  -5.648  0.00  0.00     0.005 C 
ENDBRANCH  23  24
ENDBRANCH  22  23
ENDBRANCH   1  22
BRANCH   2  26
ATOM     26  C   UNL d   1      -1.544   2.414  -0.325  0.00  0.00     0.060 A 
ATOM     27  C   UNL d   1      -2.762   2.374   0.374  0.00  0.00     0.031 A 
ATOM     28  C   UNL d   1      -3.521   3.531   0.594  0.00  0.00     0.002 A 
ATOM     29  C   UNL d   1      -3.078   4.759   0.118  0.00  0.00     0.000 A 
ATOM     30  C   UNL d   1      -1.902   4.819  -0.617  0.00  0.00     0.002 A 
ATOM     31  C   UNL d   1      -1.159   3.655  -0.853  0.00  0.00     0.031 A 
ENDBRANCH   2  26
BRANCH   3  32
ATOM     32  C   UNL d   1       1.546   2.260  -0.620  0.00  0.00     0.060 A 
ATOM     33  C   UNL d   1       2.257   2.755  -1.722  0.00  0.00     0.031 A 
ATOM     34  C   UNL d   1       3.096   3.857  -1.569  0.00  0.00     0.002 A 
ATOM     35  C   UNL d   1       3.254   4.439  -0.313  0.00  0.00     0.000 A 
ATOM     36  C   UNL d   1       2.571   3.927   0.793  0.00  0.00     0.002 A 
ATOM     37  C   UNL d   1       1.705   2.840   0.639  0.00  0.00     0.031 A 
ENDBRANCH   3  32
TORSDOF 9
