REMARK  3 active torsions:
REMARK  status: ('A' for Active; 'I' for Inactive)
REMARK    1  A    between atoms: C_9  and  N_6 
REMARK    2  A    between atoms: C_10  and  C_9 
REMARK    3  A    between atoms: C_11  and  C_10 
ROOT
ATOM      1  C   UNL d   1      -0.527  -1.202   0.068  0.00  0.00     0.709 A 
ATOM      2  N   UNL d   1       0.478  -0.630   0.753  0.00  0.00    -0.116 N 
ATOM      3  HN  UNL d   1       1.047  -1.012   1.509  1.00  0.00     0.207 HD
ATOM      4  N   UNL d   1      -1.111  -0.324  -0.808  0.00  0.00    -0.113 N 
ATOM      5  HN  UNL d   1      -1.910  -0.515  -1.412  1.00  0.00     0.203 HD
ATOM      6  N   UNL d   1       0.531   0.588   0.167  0.00  0.00    -0.196 N 
ATOM      7  N   UNL d   1      -0.447   0.818  -0.725  0.00  0.00     0.011 NA
ATOM      8  N   UNL d   1      -0.895  -2.508   0.123  0.00  0.00    -0.215 N 
ATOM      9  C   UNL d   1      -1.899  -3.013  -0.807  0.00  0.00     0.141 C 
ATOM     10  C   UNL d   1      -0.777  -3.230   1.387  0.00  0.00     0.141 C 
ATOM     11  C   UNL d   1      -0.494  -4.710   1.119  0.00  0.00     0.020 C 
ATOM     12  C   UNL d   1      -1.614  -4.486  -1.119  0.00  0.00     0.020 C 
ATOM     13  C   UNL d   1      -1.513  -5.317   0.157  0.00  0.00     0.003 C 
ENDROOT
BRANCH   6  14
ATOM     14  C   UNL d   1       1.782   1.306   0.057  0.00  0.00     0.246 C 
BRANCH  14  15
ATOM     15  C   UNL d   1       1.985   2.396   1.074  0.00  0.00     0.155 C 
ATOM     16  O   UNL d   1       2.794   2.214   1.997  0.00  0.00    -0.295 OA
BRANCH  15  17
ATOM     17  C   UNL d   1       1.228   3.740   0.985  0.00  0.00     0.011 C 
ATOM     18  C   UNL d   1       0.083   3.695   2.004  0.00  0.00     0.022 C 
ATOM     19  C   UNL d   1       2.207   4.872   1.374  0.00  0.00     0.022 C 
ATOM     20  C   UNL d   1       0.682   4.084  -0.406  0.00  0.00     0.022 C 
ENDBRANCH  15  17
ENDBRANCH  14  15
ENDBRANCH   6  14
TORSDOF 3
