REMARK  7 active torsions:
REMARK  status: ('A' for Active; 'I' for Inactive)
REMARK       I    between atoms: N_6  and  C_1 
REMARK    1  A    between atoms: C_9  and  C_1 
REMARK    2  A    between atoms: C_2  and  C_10 
REMARK       I    between atoms: N_5  and  C_2 
REMARK    3  A    between atoms: N_8  and  N_5 
REMARK    4  A    between atoms: N_7  and  N_6 
REMARK    5  A    between atoms: C_12  and  C_9 
REMARK    6  A    between atoms: C_10  and  C_11 
REMARK    7  A    between atoms: C_11  and  C_12 
ROOT
ATOM      1  C   UNL d   1       4.604   0.864  -1.209  0.00  0.00     0.010 C 
ENDROOT
BRANCH   1   2
ATOM      2  C   UNL d   1       5.223   1.657  -2.360  0.00  0.00     0.104 C 
BRANCH   2   3
ATOM      3  C   UNL d   1       6.736   1.706  -2.291  0.00  0.00     0.231 C 
ATOM      4  O   UNL d   1       7.408   1.206  -1.393  0.00  0.00    -0.272 OA
ATOM      5  N   UNL d   1       7.293   2.392  -3.367  0.00  0.00    -0.294 N 
ATOM      6  H   UNL d   1       6.717   2.633  -4.172  0.00  0.00     0.183 HD
BRANCH   5   7
ATOM      7  N   UNL d   1       8.696   2.439  -3.503  0.00  0.00    -0.247 NA
ATOM      8  H   UNL d   1       9.084   1.772  -2.820  0.00  0.00     0.143 HD
ATOM      9  H   UNL d   1       9.012   3.349  -3.156  0.00  0.00     0.143 HD
ENDBRANCH   5   7
ENDBRANCH   2   3
ENDBRANCH   1   2
BRANCH   1  10
ATOM     10  C   UNL d   1       3.073   0.879  -1.225  0.00  0.00     0.010 C 
BRANCH  10  11
ATOM     11  C   UNL d   1       2.481   0.227  -2.474  0.00  0.00     0.104 C 
BRANCH  11  12
ATOM     12  C   UNL d   1       0.965   0.178  -2.448  0.00  0.00     0.231 C 
ATOM     13  O   UNL d   1       0.273   0.575  -1.516  0.00  0.00    -0.272 OA
ATOM     14  N   UNL d   1       0.435  -0.377  -3.610  0.00  0.00    -0.294 N 
ATOM     15  H   UNL d   1       1.029  -0.526  -4.423  0.00  0.00     0.183 HD
BRANCH  14  16
ATOM     16  N   UNL d   1      -0.965  -0.407  -3.783  0.00  0.00    -0.247 NA
ATOM     17  H   UNL d   1      -1.370   0.173  -3.033  0.00  0.00     0.143 HD
ATOM     18  H   UNL d   1      -1.287  -1.351  -3.557  0.00  0.00     0.143 HD
ENDBRANCH  14  16
ENDBRANCH  11  12
ENDBRANCH  10  11
ENDBRANCH   1  10
TORSDOF 7
