REMARK  4 active torsions:
REMARK  status: ('A' for Active; 'I' for Inactive)
REMARK    1  A    between atoms: N_6  and  C_1 
REMARK    2  A    between atoms: C_14  and  N_6 
REMARK    3  A    between atoms: C_15  and  N_8 
REMARK    4  A    between atoms: C_20  and  C_15 
ROOT
ATOM      1  N   UNL d   1      -4.524  -3.402   0.950  0.00  0.00     0.092 N 
ATOM      2  C   UNL d   1      -1.727  -3.935   0.056  0.00  0.00     0.065 C 
ATOM      3  C   UNL d   1      -2.950  -4.132  -0.852  0.00  0.00     0.050 C 
ATOM      4  C   UNL d   1      -2.156  -3.892   1.525  0.00  0.00     0.050 C 
ATOM      5  C   UNL d   1      -4.156  -3.271  -0.470  0.00  0.00     0.274 C 
ATOM      6  C   UNL d   1      -3.377  -3.010   1.787  0.00  0.00     0.274 C 
ENDROOT
BRANCH   2   7
ATOM      7  N   UNL d   1      -0.972  -2.733  -0.344  0.00  0.00    -0.273 NA
ATOM      8  H   UNL d   1      -1.135  -2.435  -1.302  0.00  0.00     0.129 HD
BRANCH   7   9
ATOM      9  C   UNL d   1       0.416  -2.767  -0.107  0.00  0.00     0.101 A 
ATOM     10  C   UNL d   1       1.344  -2.134  -0.954  0.00  0.00     0.070 A 
ATOM     11  S   UNL d   1       1.083  -1.258  -2.417  0.00  0.00    -0.096 SA
ATOM     12  C   UNL d   1       2.702  -2.177  -0.648  0.00  0.00     0.054 A 
ATOM     13  C   UNL d   1       2.752  -0.945  -2.620  0.00  0.00     0.053 A 
ATOM     14  C   UNL d   1       3.504  -1.486  -1.604  0.00  0.00     0.038 A 
ATOM     15  N   UNL d   1       3.183  -2.813   0.449  0.00  0.00    -0.351 N 
ATOM     16  C   UNL d   1       2.241  -3.392   1.191  0.00  0.00     0.182 A 
ATOM     17  HN  UNL d   1       4.175  -2.845   0.683  1.00  0.00     0.166 HD
ATOM     18  N   UNL d   1       0.916  -3.412   0.974  0.00  0.00    -0.342 N 
ATOM     19  HN  UNL d   1       0.294  -3.905   1.615  1.00  0.00     0.167 HD
ENDBRANCH   7   9
ENDBRANCH   2   7
BRANCH   1  20
ATOM     20  C   UNL d   1      -5.709  -2.552   1.217  0.00  0.00     0.311 C 
BRANCH  20  21
ATOM     21  C   UNL d   1      -6.226  -2.578   2.642  0.00  0.00    -0.030 A 
ATOM     22  C   UNL d   1      -6.219  -1.406   3.417  0.00  0.00     0.009 A 
ATOM     23  C   UNL d   1      -6.699  -1.414   4.728  0.00  0.00     0.001 A 
ATOM     24  C   UNL d   1      -7.198  -2.591   5.281  0.00  0.00     0.000 A 
ATOM     25  C   UNL d   1      -7.222  -3.759   4.520  0.00  0.00     0.001 A 
ATOM     26  C   UNL d   1      -6.740  -3.754   3.208  0.00  0.00     0.009 A 
ENDBRANCH  20  21
ENDBRANCH   1  20
TORSDOF 4
