REMARK  8 active torsions:
REMARK  status: ('A' for Active; 'I' for Inactive)
REMARK    1  A    between atoms: N_2  and  C_1 
REMARK    2  A    between atoms: C_3  and  C_1 
REMARK    3  A    between atoms: N_4  and  C_1 
REMARK    4  A    between atoms: C_6  and  C_1 
REMARK       I    between atoms: C_5  and  N_2 
REMARK    5  A    between atoms: C_7  and  N_4 
REMARK    6  A    between atoms: C_11  and  C_5 
REMARK    7  A    between atoms: O_17  and  C_6 
REMARK    8  A    between atoms: C_23  and  O_17 
ROOT
ATOM      1  C   UNL d   1       0.923   0.089   0.034  0.00  0.00     0.281 C 
ENDROOT
BRANCH   1   2
ATOM      2  N   UNL d   1       0.524   1.205  -0.836  0.00  0.00    -0.319 N 
ATOM      3  C   UNL d   1       0.971   2.486  -0.647  0.00  0.00     0.253 C 
ATOM      4  O   UNL d   1       1.797   2.785   0.214  0.00  0.00    -0.268 OA
ATOM      5  H   UNL d   1      -0.302   1.029  -1.392  0.00  0.00     0.165 HD
BRANCH   3   6
ATOM      6  C   UNL d   1       0.445   3.512  -1.575  0.00  0.00     0.032 A 
ATOM      7  C   UNL d   1      -0.891   3.522  -1.987  0.00  0.00     0.017 A 
ATOM      8  C   UNL d   1      -1.333   4.502  -2.880  0.00  0.00     0.001 A 
ATOM      9  C   UNL d   1      -0.445   5.471  -3.354  0.00  0.00     0.000 A 
ATOM     10  C   UNL d   1       0.885   5.465  -2.938  0.00  0.00     0.001 A 
ATOM     11  C   UNL d   1       1.331   4.490  -2.044  0.00  0.00     0.017 A 
ENDBRANCH   3   6
ENDBRANCH   1   2
BRANCH   1  12
ATOM     12  C   UNL d   1       0.535  -1.334  -0.536  0.00  0.00     0.436 C 
ATOM     13  F   UNL d   1      -0.195  -1.211  -1.683  0.00  0.00    -0.166 F 
ATOM     14  F   UNL d   1       1.600  -2.114  -0.856  0.00  0.00    -0.166 F 
ATOM     15  F   UNL d   1      -0.207  -2.083   0.318  0.00  0.00    -0.166 F 
ENDBRANCH   1  12
BRANCH   1  16
ATOM     16  N   UNL d   1       0.396   0.366   1.394  0.00  0.00    -0.236 NA
ATOM     17  H   UNL d   1       0.832   1.204   1.775  0.00  0.00     0.132 HD
BRANCH  16  18
ATOM     18  C   UNL d   1      -0.983   0.373   1.577  0.00  0.00     0.082 A 
ATOM     19  N   UNL d   1      -1.801   0.230   0.515  0.00  0.00    -0.351 N 
ATOM     20  C   UNL d   1      -3.139   0.192   0.734  0.00  0.00     0.006 A 
ATOM     21  HN  UNL d   1      -1.424   0.151  -0.430  1.00  0.00     0.167 HD
ATOM     22  C   UNL d   1      -4.026   0.057  -0.467  0.00  0.00     0.068 C 
ATOM     23  C   UNL d   1      -3.698   0.281   2.003  0.00  0.00     0.024 A 
ATOM     24  C   UNL d   1      -2.848   0.426   3.090  0.00  0.00     0.005 A 
ATOM     25  C   UNL d   1      -1.476   0.477   2.873  0.00  0.00     0.042 A 
ENDBRANCH  16  18
ENDBRANCH   1  16
BRANCH   1  26
ATOM     26  C   UNL d   1       2.474   0.023   0.027  0.00  0.00     0.312 C 
ATOM     27  O   UNL d   1       3.170   0.013  -0.989  0.00  0.00    -0.260 OA
BRANCH  26  28
ATOM     28  O   UNL d   1       2.971  -0.052   1.299  0.00  0.00    -0.319 OA
BRANCH  28  29
ATOM     29  C   UNL d   1       4.352  -0.408   1.419  0.00  0.00     0.174 C 
ATOM     30  C   UNL d   1       4.400  -1.900   1.682  0.00  0.00     0.034 C 
ENDBRANCH  28  29
ENDBRANCH  26  28
ENDBRANCH   1  26
TORSDOF 8
