REMARK  6 active torsions:
REMARK  status: ('A' for Active; 'I' for Inactive)
REMARK    1  A    between atoms: C_2  and  S_1 
REMARK    2  A    between atoms: N_7  and  S_1 
REMARK    3  A    between atoms: C_8  and  C_3 
REMARK    4  A    between atoms: C_13  and  N_7 
REMARK    5  A    between atoms: O_16  and  C_8 
REMARK    6  A    between atoms: C_19  and  C_12 
ROOT
ATOM      1  S   UNL d   1       0.922   0.110   0.213  0.00  0.00     0.266 S 
ATOM      2  O   UNL d   1       0.305  -0.891  -0.632  0.00  0.00    -0.200 OA
ATOM      3  O   UNL d   1       2.361   0.199   0.328  0.00  0.00    -0.200 OA
ENDROOT
BRANCH   1   4
ATOM      4  C   UNL d   1       0.353  -0.334   1.782  0.00  0.00     0.127 A 
ATOM      5  C   UNL d   1      -1.027  -0.507   2.152  0.00  0.00     0.094 A 
ATOM      6  C   UNL d   1      -0.999  -0.993   3.454  0.00  0.00     0.067 A 
ATOM      7  C   UNL d   1      -2.006  -1.395   4.463  0.00  0.00     0.078 C 
ATOM      8  O   UNL d   1       0.286  -1.130   3.876  0.00  0.00    -0.318 OA
ATOM      9  C   UNL d   1       1.109  -0.758   2.859  0.00  0.00     0.073 A 
ATOM     10  C   UNL d   1       2.546  -0.956   3.155  0.00  0.00     0.078 C 
BRANCH   5  11
ATOM     11  C   UNL d   1      -2.201  -0.251   1.342  0.00  0.00     0.297 C 
ATOM     12  O   UNL d   1      -2.222   0.549   0.419  0.00  0.00    -0.259 OA
BRANCH  11  13
ATOM     13  O   UNL d   1      -3.288  -0.981   1.747  0.00  0.00    -0.322 OA
ATOM     14  C   UNL d   1      -4.491  -0.745   1.016  0.00  0.00     0.213 C 
ENDBRANCH  11  13
ENDBRANCH   5  11
ENDBRANCH   1   4
BRANCH   1  15
ATOM     15  N   UNL d   1       0.329   1.585  -0.278  0.00  0.00    -0.281 N 
ATOM     16  H   UNL d   1      -0.561   1.541  -0.776  0.00  0.00     0.179 HD
BRANCH  15  17
ATOM     17  C   UNL d   1       0.716   2.819   0.300  0.00  0.00     0.042 A 
ATOM     18  C   UNL d   1       1.867   3.465  -0.145  0.00  0.00     0.030 A 
ATOM     19  C   UNL d   1       2.108   4.799   0.214  0.00  0.00     0.010 A 
ATOM     20  C   UNL d   1       1.208   5.499   1.033  0.00  0.00    -0.055 A 
ATOM     21  C   UNL d   1       0.093   4.806   1.534  0.00  0.00     0.010 A 
ATOM     22  C   UNL d   1      -0.153   3.477   1.167  0.00  0.00     0.030 A 
BRANCH  20  23
ATOM     23  C   UNL d   1       1.379   6.981   1.335  0.00  0.00     0.010 C 
ATOM     24  C   UNL d   1       2.685   7.279   2.074  0.00  0.00     0.015 C 
ATOM     25  C   UNL d   1       1.282   7.832   0.062  0.00  0.00     0.015 C 
ENDBRANCH  20  23
ENDBRANCH  15  17
ENDBRANCH   1  15
TORSDOF 6
