REMARK  2 active torsions:
REMARK  status: ('A' for Active; 'I' for Inactive)
REMARK    1  A    between atoms: C_2  and  C_1 
REMARK    2  A    between atoms: O_6  and  C_2 
ROOT
ATOM      1  C   UNL d   1       0.002   0.999   0.005  0.00  0.00     0.114 A 
ATOM      2  C   UNL d   1      -1.190   0.270  -0.006  0.00  0.00     0.136 A 
ATOM      3  C   UNL d   1       1.200   0.284   0.009  0.00  0.00     0.136 A 
ATOM      4  F   UNL d   1       2.377   0.929   0.019  0.00  0.00    -0.205 F 
ATOM      5  F   UNL d   1      -2.384   0.878  -0.011  0.00  0.00    -0.205 F 
ATOM      6  C   UNL d   1       0.024  -1.822  -0.007  0.00  0.00     0.006 A 
ATOM      7  C   UNL d   1       1.221  -1.112   0.004  0.00  0.00     0.043 A 
ATOM      8  C   UNL d   1      -1.184  -1.127  -0.012  0.00  0.00     0.043 A 
ENDROOT
BRANCH   1   9
ATOM      9  C   UNL d   1      -0.043   2.482   0.012  0.00  0.00     0.182 C 
ATOM     10  O   UNL d   1      -1.083   3.119   0.010  0.00  0.00    -0.646 OA
BRANCH   9  11
ATOM     11  O   UNL d   1       1.157   3.105   0.022  0.00  0.00    -0.772 OA
ATOM     12  H   UNL d   1       1.948   2.531   0.024  0.00  0.00     0.167 HD
ENDBRANCH   9  11
ENDBRANCH   1   9
TORSDOF 2
