REMARK  5 active torsions:
REMARK  status: ('A' for Active; 'I' for Inactive)
REMARK    1  A    between atoms: C_6  and  C_1 
REMARK    2  A    between atoms: C_5  and  C_2 
REMARK    3  A    between atoms: O_10  and  C_5 
REMARK    4  A    between atoms: C_12  and  C_7 
REMARK    5  A    between atoms: C_11  and  O_10 
ROOT
ATOM      1  C   UNL d   1      -1.600  -0.667   0.255  0.00  0.00     0.087 A 
ATOM      2  C   UNL d   1      -0.279  -1.191   0.120  0.00  0.00     0.100 A 
ATOM      3  N   UNL d   1      -1.542   0.640   0.570  0.00  0.00    -0.259 N 
ATOM      4  HN  UNL d   1      -2.331   1.247   0.791  1.00  0.00     0.195 HD
ATOM      5  O   UNL d   1      -0.219   1.002   0.535  0.00  0.00    -0.241 OA
ATOM      6  C   UNL d   1       0.539  -0.086   0.264  0.00  0.00     0.091 A 
ATOM      7  C   UNL d   1       1.990   0.158   0.142  0.00  0.00     0.080 C 
ENDROOT
BRANCH   2   8
ATOM      8  C   UNL d   1       0.245  -2.513  -0.131  0.00  0.00     0.303 C 
ATOM      9  O   UNL d   1       1.316  -2.879   0.350  0.00  0.00    -0.259 OA
BRANCH   8  10
ATOM     10  O   UNL d   1      -0.507  -3.268  -1.026  0.00  0.00    -0.274 OA
BRANCH  10  11
ATOM     11  C   UNL d   1       0.343  -4.222  -1.608  0.00  0.00     0.093 A 
ATOM     12  C   UNL d   1       1.325  -3.848  -2.554  0.00  0.00     0.044 A 
ATOM     13  C   UNL d   1       2.265  -4.805  -2.954  0.00  0.00     0.037 A 
ATOM     14  C   UNL d   1       2.203  -6.101  -2.436  0.00  0.00     0.012 A 
ATOM     15  C   UNL d   1       1.191  -6.477  -1.552  0.00  0.00     0.022 A 
ATOM     16 BR   UNL d   1       3.526  -7.362  -2.929  0.00  0.00    -0.051 Br
ATOM     17  C   UNL d   1       0.248  -5.536  -1.140  0.00  0.00     0.040 A 
BRANCH  12  18
ATOM     18  C   UNL d   1       1.345  -2.452  -3.093  0.00  0.00     0.158 C 
ATOM     19  O   UNL d   1       0.313  -1.788  -3.087  0.00  0.00    -0.293 OA
ATOM     20  C   UNL d   1       2.632  -1.832  -3.578  0.00  0.00     0.097 C 
ENDBRANCH  12  18
ENDBRANCH  10  11
ENDBRANCH   8  10
ENDBRANCH   2   8
BRANCH   1  21
ATOM     21  C   UNL d   1      -2.915  -1.311   0.171  0.00  0.00     0.037 A 
ATOM     22  C   UNL d   1      -3.247  -2.429   0.959  0.00  0.00     0.048 A 
ATOM     23 CL   UNL d   1      -2.138  -3.172   2.063  0.00  0.00    -0.083 Cl
ATOM     24  C   UNL d   1      -4.537  -2.981   0.924  0.00  0.00     0.025 A 
ATOM     25  C   UNL d   1      -5.529  -2.413   0.129  0.00  0.00     0.003 A 
ATOM     26  C   UNL d   1      -5.227  -1.304  -0.651  0.00  0.00     0.025 A 
ATOM     27  C   UNL d   1      -3.933  -0.763  -0.644  0.00  0.00     0.048 A 
ATOM     28 CL   UNL d   1      -3.679   0.586  -1.706  0.00  0.00    -0.083 Cl
ENDBRANCH   1  21
TORSDOF 5
