REMARK  5 active torsions:
REMARK  status: ('A' for Active; 'I' for Inactive)
REMARK    1  A    between atoms: C_5  and  C_2 
REMARK    2  A    between atoms: C_6  and  C_3 
REMARK    3  A    between atoms: O_13  and  C_5 
REMARK    4  A    between atoms: O_12  and  C_6 
REMARK    5  A    between atoms: N_14  and  C_8 
ROOT
ATOM      1  C   UNL d   1       0.382   0.933   0.068  0.00  0.00     0.010 A 
ATOM      2  C   UNL d   1      -0.682   1.885   0.203  0.00  0.00     0.050 C 
ATOM      3  C   UNL d   1       1.788   1.216  -0.025  0.00  0.00     0.050 A 
ATOM      4  C   UNL d   1      -0.001  -0.444  -0.007  0.00  0.00    -0.003 A 
ATOM      5  C   UNL d   1      -2.027   1.507   0.099  0.00  0.00     0.021 C 
ATOM      6  C   UNL d   1      -1.379  -0.815  -0.010  0.00  0.00     0.017 C 
ATOM      7  C   UNL d   1      -2.366   0.172  -0.043  0.00  0.00     0.025 C 
ATOM      8  C   UNL d   1       2.757   0.201  -0.110  0.00  0.00     0.019 A 
ATOM      9  C   UNL d   1       1.011  -1.432  -0.090  0.00  0.00     0.014 A 
ATOM     10  C   UNL d   1       2.367  -1.123  -0.120  0.00  0.00     0.002 A 
ENDROOT
BRANCH   2  11
ATOM     11  C   UNL d   1      -0.497   3.317   0.534  0.00  0.00     0.177 C 
ATOM     12  O   UNL d   1      -1.163   4.245   0.121  0.00  0.00    -0.646 OA
BRANCH  11  13
ATOM     13  O   UNL d   1       0.398   3.473   1.528  0.00  0.00    -0.773 OA
ATOM     14  H   UNL d   1       0.440   4.449   1.631  0.00  0.00     0.167 HD
ENDBRANCH  11  13
ENDBRANCH   2  11
BRANCH   3  15
ATOM     15  C   UNL d   1       2.319   2.587  -0.222  0.00  0.00     0.177 C 
ATOM     16  O   UNL d   1       1.917   3.343  -1.088  0.00  0.00    -0.646 OA
BRANCH  15  17
ATOM     17  O   UNL d   1       3.320   2.890   0.635  0.00  0.00    -0.773 OA
ATOM     18  H   UNL d   1       3.441   2.237   1.350  0.00  0.00     0.167 HD
ENDBRANCH  15  17
ENDBRANCH   3  15
BRANCH   6  19
ATOM     19  N   UNL d   1      -1.802  -2.150  -0.199  0.00  0.00    -0.302 NA
ATOM     20  H   UNL d   1      -1.207  -2.840   0.244  0.00  0.00     0.124 HD
ATOM     21  H   UNL d   1      -2.778  -2.306   0.039  0.00  0.00     0.124 HD
ENDBRANCH   6  19
TORSDOF 5
