REMARK  7 active torsions:
REMARK  status: ('A' for Active; 'I' for Inactive)
REMARK    1  A    between atoms: N_7  and  C_1 
REMARK    2  A    between atoms: C_5  and  C_2 
REMARK       I    between atoms: C_9  and  N_8 
REMARK    3  A    between atoms: C_12  and  C_9 
REMARK    4  A    between atoms: C_13  and  C_12 
REMARK    5  A    between atoms: C_21  and  C_13 
REMARK    6  A    between atoms: C_14  and  C_21 
REMARK    7  A    between atoms: O_25  and  C_14 
ROOT
ATOM      1  N   UNL d   1      -0.988  -2.774   0.244  0.00  0.00    -0.377 N 
ATOM      2  N   UNL d   1      -0.488  -5.586   0.413  0.00  0.00    -0.349 N 
ATOM      3  C   UNL d   1      -0.588  -6.870   0.899  0.00  0.00     0.220 C 
ATOM      4  C   UNL d   1      -0.630  -3.407   1.535  0.00  0.00     0.143 C 
ATOM      5  C   UNL d   1      -1.809  -3.686  -0.592  0.00  0.00     0.143 C 
ATOM      6  C   UNL d   1      -1.039  -5.017  -0.837  0.00  0.00     0.145 C 
ATOM      7  C   UNL d   1       0.267  -4.611   1.214  0.00  0.00     0.145 C 
ATOM      8  O   UNL d   1      -0.081  -7.165   1.992  0.00  0.00    -0.273 OA
ENDROOT
BRANCH   1   9
ATOM      9  C   UNL d   1      -1.039  -1.382   0.144  0.00  0.00     0.045 A 
ATOM     10  C   UNL d   1      -2.108  -0.753  -0.506  0.00  0.00     0.064 A 
ATOM     11  C   UNL d   1      -2.183   0.638  -0.571  0.00  0.00     0.119 A 
ATOM     12  N   UNL d   1      -1.268   1.436   0.035  0.00  0.00    -0.352 N 
ATOM     13  C   UNL d   1      -0.220   0.867   0.641  0.00  0.00     0.045 A 
ATOM     14  HN  UNL d   1      -1.378   2.450   0.029  1.00  0.00     0.166 HD
ATOM     15  C   UNL d   1      -0.011  -0.530   0.669  0.00  0.00     0.017 A 
ATOM     16  C   UNL d   1       0.698   1.714   1.253  0.00  0.00     0.030 C 
ATOM     17  C   UNL d   1       1.232  -0.977   1.195  0.00  0.00     0.016 C 
ATOM     18  C   UNL d   1       2.133  -0.118   1.824  0.00  0.00     0.001 C 
ATOM     19  C   UNL d   1       1.851   1.233   1.875  0.00  0.00     0.002 C 
BRANCH  11  20
ATOM     20  C   UNL d   1      -3.321   1.275  -1.356  0.00  0.00     0.432 C 
ATOM     21  F   UNL d   1      -3.336   2.638  -1.329  0.00  0.00    -0.165 F 
ATOM     22  F   UNL d   1      -3.295   0.933  -2.679  0.00  0.00    -0.165 F 
ATOM     23  F   UNL d   1      -4.550   0.883  -0.906  0.00  0.00    -0.165 F 
ENDBRANCH  11  20
ENDBRANCH   1   9
BRANCH   3  24
ATOM     24  C   UNL d   1      -1.293  -7.958   0.113  0.00  0.00     0.112 C 
BRANCH  24  25
ATOM     25  C   UNL d   1      -2.482  -8.646   0.850  0.00  0.00    -0.030 C 
ATOM     26  C   UNL d   1      -2.986  -9.801  -0.044  0.00  0.00     0.016 C 
ATOM     27  C   UNL d   1      -2.042  -9.295   2.185  0.00  0.00     0.016 C 
BRANCH  25  28
ATOM     28  C   UNL d   1      -3.626  -7.660   1.197  0.00  0.00     0.119 C 
BRANCH  28  29
ATOM     29  C   UNL d   1      -4.246  -6.887   0.052  0.00  0.00     0.140 C 
ATOM     30  O   UNL d   1      -3.967  -7.003  -1.128  0.00  0.00    -0.650 OA
BRANCH  29  31
ATOM     31  O   UNL d   1      -5.165  -5.991   0.486  0.00  0.00    -0.776 OA
ATOM     32  H   UNL d   1      -5.312  -6.008   1.449  0.00  0.00     0.167 HD
ENDBRANCH  29  31
ENDBRANCH  28  29
ENDBRANCH  25  28
ENDBRANCH  24  25
ENDBRANCH   3  24
TORSDOF 7
