REMARK  5 active torsions:
REMARK  status: ('A' for Active; 'I' for Inactive)
REMARK    1  A    between atoms: C_4  and  C_1 
REMARK    2  A    between atoms: C_3  and  O_9 
REMARK    3  A    between atoms: O_10  and  C_4 
REMARK    4  A    between atoms: C_5  and  O_11 
REMARK    5  A    between atoms: C_6  and  O_12 
ROOT
ATOM      1  C   UNL d   1      -0.341  -1.435   0.011  0.00  0.00     0.017 C 
ATOM      2  C   UNL d   1      -1.300  -0.494  -0.036  0.00  0.00     0.021 C 
ATOM      3  C   UNL d   1       0.415   1.375   0.326  0.00  0.00     0.179 C 
ATOM      4  C   UNL d   1      -1.043   0.980  -0.004  0.00  0.00     0.173 C 
ATOM      5  C   UNL d   1       1.438   0.376  -0.235  0.00  0.00     0.154 C 
ATOM      6  C   UNL d   1       1.119  -1.091   0.113  0.00  0.00     0.079 C 
ENDROOT
BRANCH   1   7
ATOM      7  C   UNL d   1      -0.783  -2.846  -0.156  0.00  0.00     0.171 C 
ATOM      8  O   UNL d   1      -1.814  -3.168  -0.720  0.00  0.00    -0.646 OA
BRANCH   7   9
ATOM      9  O   UNL d   1       0.071  -3.754   0.353  0.00  0.00    -0.773 OA
ATOM     10  H   UNL d   1       0.824  -3.408   0.863  0.00  0.00     0.167 HD
ENDBRANCH   7   9
ENDBRANCH   1   7
BRANCH   4  11
ATOM     11  O   UNL d   1      -1.937   1.541   0.954  0.00  0.00    -0.389 OA
ATOM     12  H   UNL d   1      -1.378   1.953   1.643  0.00  0.00     0.210 HD
ENDBRANCH   4  11
BRANCH   5  13
ATOM     13  O   UNL d   1       1.574   0.522  -1.651  0.00  0.00    -0.393 OA
ATOM     14  H   UNL d   1       0.781   0.167  -2.090  0.00  0.00     0.210 HD
ENDBRANCH   5  13
BRANCH   3  15
ATOM     15  O   UNL d   1       0.564   1.532   1.749  0.00  0.00    -0.390 OA
ATOM     16  H   UNL d   1       0.562   0.652   2.166  0.00  0.00     0.210 HD
ENDBRANCH   3  15
TORSDOF 5
