REMARK  8 active torsions:
REMARK  status: ('A' for Active; 'I' for Inactive)
REMARK    1  A    between atoms: C_21  and  C_8 
REMARK    2  A    between atoms: C_10  and  O_16 
REMARK    3  A    between atoms: C_20  and  C_10 
REMARK    4  A    between atoms: C_19  and  O_16 
REMARK    5  A    between atoms: C_21  and  C_26 
REMARK    6  A    between atoms: C_25  and  C_26 
REMARK    7  A    between atoms: C_30  and  C_25 
REMARK    8  A    between atoms: C_31  and  C_30 
ROOT
ATOM      1  C   UNL d   1      -0.964  -0.246   2.016  0.00  0.00    -0.070 C 
ATOM      2  C   UNL d   1       1.590  -0.233   1.632  0.00  0.00    -0.033 C 
ATOM      3  C   UNL d   1      -2.100  -2.558   1.431  0.00  0.00    -0.013 C 
ATOM      4  C   UNL d   1       0.338   0.542   2.149  0.00  0.00     0.023 C 
ATOM      5  C   UNL d   1      -0.807  -1.706   1.632  0.00  0.00     0.027 C 
ATOM      6  C   UNL d   1      -3.255  -1.641   1.015  0.00  0.00    -0.069 C 
ATOM      7  C   UNL d   1      -2.179   0.327   2.004  0.00  0.00     0.004 C 
ATOM      8  C   UNL d   1       2.747   0.671   2.153  0.00  0.00    -0.002 C 
ATOM      9  C   UNL d   1      -3.305  -0.348   1.389  0.00  0.00     0.004 C 
ATOM     10  C   UNL d   1       1.615  -1.672   2.238  0.00  0.00     0.011 C 
ATOM     11  C   UNL d   1       0.254  -2.310   2.534  0.00  0.00     0.011 C 
ATOM     12  C   UNL d   1       0.757   1.011   3.557  0.00  0.00     0.010 C 
ATOM     13  C   UNL d   1      -1.803  -3.578   0.281  0.00  0.00     0.017 C 
ATOM     14  C   UNL d   1       2.306   1.011   3.583  0.00  0.00     0.006 C 
ATOM     15  C   UNL d   1      -4.227  -2.217   0.008  0.00  0.00     0.067 C 
ATOM     16  C   UNL d   1      -3.485  -2.591  -1.303  0.00  0.00     0.136 C 
ATOM     17  C   UNL d   1      -2.007  -2.930  -1.091  0.00  0.00     0.034 C 
ATOM     18  C   UNL d   1       1.667  -0.251   0.083  0.00  0.00     0.016 C 
ATOM     19  C   UNL d   1      -2.512  -3.351   2.685  0.00  0.00     0.021 C 
ENDROOT
BRANCH  16  20
ATOM     20  O   UNL d   1      -3.539  -1.502  -2.251  0.00  0.00    -0.312 OA
BRANCH  20  21
ATOM     21  C   UNL d   1      -4.546  -1.561  -3.157  0.00  0.00     0.293 C 
ATOM     22  O   UNL d   1      -5.412  -2.422  -3.197  0.00  0.00    -0.259 OA
BRANCH  21  23
ATOM     23  C   UNL d   1      -4.475  -0.449  -4.137  0.00  0.00     0.039 A 
ATOM     24  C   UNL d   1      -5.339  -0.498  -5.241  0.00  0.00     0.017 A 
ATOM     25  C   UNL d   1      -5.335   0.525  -6.191  0.00  0.00     0.001 A 
ATOM     26  C   UNL d   1      -4.468   1.605  -6.040  0.00  0.00     0.000 A 
ATOM     27  C   UNL d   1      -3.599   1.659  -4.949  0.00  0.00     0.001 A 
ATOM     28  C   UNL d   1      -3.600   0.633  -3.996  0.00  0.00     0.017 A 
ENDBRANCH  21  23
ENDBRANCH  20  21
ENDBRANCH  16  20
BRANCH   8  29
ATOM     29  C   UNL d   1       4.204   0.166   1.912  0.00  0.00    -0.014 C 
ATOM     30  C   UNL d   1       4.613  -1.102   2.670  0.00  0.00     0.010 C 
BRANCH  29  31
ATOM     31  C   UNL d   1       5.249   1.289   2.128  0.00  0.00     0.005 C 
BRANCH  31  32
ATOM     32  C   UNL d   1       6.589   0.923   1.474  0.00  0.00     0.001 C 
BRANCH  32  33
ATOM     33  C   UNL d   1       7.633   2.037   1.542  0.00  0.00     0.004 C 
BRANCH  33  34
ATOM     34  C   UNL d   1       9.025   1.538   1.092  0.00  0.00    -0.023 C 
ATOM     35  C   UNL d   1       9.047   1.089  -0.370  0.00  0.00     0.009 C 
ATOM     36  C   UNL d   1      10.071   2.629   1.320  0.00  0.00     0.009 C 
ENDBRANCH  33  34
ENDBRANCH  32  33
ENDBRANCH  31  32
ENDBRANCH  29  31
ENDBRANCH   8  29
TORSDOF 8
