REMARK  9 active torsions:
REMARK  status: ('A' for Active; 'I' for Inactive)
REMARK    1  A    between atoms: C_9  and  C_1 
REMARK    2  A    between atoms: N_2  and  C_8 
REMARK    3  A    between atoms: C_10  and  C_3 
REMARK    4  A    between atoms: C_4  and  N_6 
REMARK    5  A    between atoms: N_6  and  C_5 
REMARK    6  A    between atoms: O_21  and  C_9 
REMARK    7  A    between atoms: O_22  and  C_10 
REMARK    8  A    between atoms: C_25  and  O_21 
REMARK    9  A    between atoms: C_24  and  O_22 
ROOT
ATOM      1  C   UNL d   1       1.624  -0.055  -0.460  0.00  0.00     0.068 A 
ATOM      2  C   UNL d   1       0.679  -1.110  -0.427  0.00  0.00     0.049 A 
ATOM      3  C   UNL d   1       1.163   1.257  -0.182  0.00  0.00     0.056 A 
ATOM      4  C   UNL d   1      -0.167   1.519   0.168  0.00  0.00     0.104 A 
ATOM      5  C   UNL d   1      -0.662  -0.812  -0.056  0.00  0.00     0.033 A 
ATOM      6  C   UNL d   1      -1.085   0.486   0.245  0.00  0.00     0.038 A 
ENDROOT
BRANCH   2   7
ATOM      7  N   UNL d   1       0.924  -2.477  -0.687  0.00  0.00    -0.355 N 
ATOM      8  H   UNL d   1       0.073  -2.978  -0.964  0.00  0.00     0.166 HD
BRANCH   7   9
ATOM      9  C   UNL d   1       1.773  -3.393  -0.017  0.00  0.00     0.050 A 
ATOM     10  C   UNL d   1       1.929  -4.716  -0.500  0.00  0.00     0.066 A 
ATOM     11  C   UNL d   1       2.891  -5.562   0.078  0.00  0.00     0.022 A 
ATOM     12  C   UNL d   1       3.654  -5.129   1.164  0.00  0.00     0.025 A 
ATOM     13  C   UNL d   1       3.462  -3.851   1.673  0.00  0.00     0.036 A 
ATOM     14  C   UNL d   1       2.543  -2.986   1.084  0.00  0.00     0.054 A 
ATOM     15 CL   UNL d   1       4.362  -3.327   3.042  0.00  0.00    -0.084 Cl
BRANCH  10  16
ATOM     16  C   UNL d   1       1.102  -5.322  -1.590  0.00  0.00     0.295 C 
ATOM     17  O   UNL d   1       1.459  -6.273  -2.256  0.00  0.00    -0.259 OA
BRANCH  16  18
ATOM     18  O   UNL d   1      -0.136  -4.751  -1.620  0.00  0.00    -0.318 OA
BRANCH  18  19
ATOM     19  C   UNL d   1      -1.090  -5.357  -2.511  0.00  0.00     0.174 C 
ATOM     20  C   UNL d   1      -1.852  -6.453  -1.787  0.00  0.00     0.034 C 
ENDBRANCH  18  19
ENDBRANCH  16  18
ENDBRANCH  10  16
ENDBRANCH   7   9
ENDBRANCH   2   7
BRANCH   1  21
ATOM     21  C   UNL d   1       3.098  -0.086  -0.798  0.00  0.00     0.295 C 
ATOM     22  O   UNL d   1       3.756   0.951  -0.724  0.00  0.00    -0.259 OA
BRANCH  21  23
ATOM     23  O   UNL d   1       3.632  -1.259  -1.202  0.00  0.00    -0.318 OA
BRANCH  23  24
ATOM     24  C   UNL d   1       4.996  -1.165  -1.693  0.00  0.00     0.174 C 
ATOM     25  C   UNL d   1       6.055  -1.065  -0.599  0.00  0.00     0.034 C 
ENDBRANCH  23  24
ENDBRANCH  21  23
ENDBRANCH   1  21
BRANCH   4  26
ATOM     26  N   UNL d   1      -0.586   2.896   0.465  0.00  0.00    -0.116 N 
ATOM     27  O   UNL d   1       0.255   3.796   0.347  0.00  0.00    -0.532 OA
ATOM     28  O   UNL d   1      -1.762   3.074   0.817  0.00  0.00    -0.532 OA
ENDBRANCH   4  26
TORSDOF 9
