REMARK  7 active torsions:
REMARK  status: ('A' for Active; 'I' for Inactive)
REMARK    1  A    between atoms: N_3  and  C_1 
REMARK    2  A    between atoms: N_10  and  C_1 
REMARK    3  A    between atoms: C_2  and  N_11 
REMARK    4  A    between atoms: N_9  and  C_2 
REMARK    5  A    between atoms: C_4  and  N_3 
REMARK    6  A    between atoms: C_15  and  N_9 
REMARK    7  A    between atoms: N_11  and  N_10 
ROOT
ATOM      1  N   UNL d   1      -0.491   2.576   0.139  0.00  0.00    -0.274 N 
ATOM      2  H   UNL d   1      -0.291   2.900   1.086  0.00  0.00     0.189 HD
ENDROOT
BRANCH   1   3
ATOM      3  C   UNL d   1      -1.593   3.126  -0.501  0.00  0.00     0.191 C 
ATOM      4  S   UNL d   1      -2.489   4.308   0.249  0.00  0.00    -0.039 SA
BRANCH   3   5
ATOM      5  N   UNL d   1      -1.766   2.594  -1.768  0.00  0.00    -0.332 N 
ATOM      6  H   UNL d   1      -0.873   2.402  -2.212  0.00  0.00     0.168 HD
BRANCH   5   7
ATOM      7  C   UNL d   1      -2.910   2.528  -2.576  0.00  0.00     0.035 A 
ATOM      8  C   UNL d   1      -4.195   2.349  -2.064  0.00  0.00     0.054 A 
ATOM      9  C   UNL d   1      -5.278   2.147  -2.931  0.00  0.00     0.053 A 
ATOM     10 CL   UNL d   1      -6.825   1.843  -2.221  0.00  0.00    -0.083 Cl
ATOM     11  C   UNL d   1      -5.077   2.152  -4.316  0.00  0.00     0.032 A 
ATOM     12  C   UNL d   1      -3.792   2.346  -4.828  0.00  0.00     0.023 A 
ATOM     13 BR   UNL d   1      -6.480   1.871  -5.565  0.00  0.00    -0.049 Br
ATOM     14  C   UNL d   1      -2.712   2.509  -3.960  0.00  0.00     0.031 A 
ENDBRANCH   5   7
ENDBRANCH   3   5
ENDBRANCH   1   3
BRANCH   1  15
ATOM     15  N   UNL d   1      -0.260   1.196  -0.090  0.00  0.00    -0.274 N 
ATOM     16  H   UNL d   1      -1.083   0.708  -0.427  0.00  0.00     0.189 HD
BRANCH  15  17
ATOM     17  C   UNL d   1       0.631   0.483   0.673  0.00  0.00     0.186 C 
ATOM     18  S   UNL d   1       1.795   1.146   1.668  0.00  0.00    -0.040 SA
BRANCH  17  19
ATOM     19  N   UNL d   1       0.554  -0.878   0.565  0.00  0.00    -0.361 N 
ATOM     20  H   UNL d   1       1.290  -1.372   1.060  0.00  0.00     0.162 HD
BRANCH  19  21
ATOM     21  C   UNL d   1      -0.303  -1.662  -0.314  0.00  0.00     0.092 C 
ATOM     22  C   UNL d   1       0.123  -1.644  -1.808  0.00  0.00     0.031 C 
ATOM     23  C   UNL d   1       1.513  -2.227  -1.951  0.00  0.00    -0.024 C 
ATOM     24  C   UNL d   1      -0.686  -2.839  -2.326  0.00  0.00     0.019 C 
ATOM     25  C   UNL d   1       1.421  -3.541  -1.688  0.00  0.00    -0.026 C 
ATOM     26  C   UNL d   1      -0.025  -3.829  -1.362  0.00  0.00     0.010 C 
ATOM     27  C   UNL d   1      -0.326  -3.186   0.012  0.00  0.00     0.034 C 
ENDBRANCH  19  21
ENDBRANCH  17  19
ENDBRANCH  15  17
ENDBRANCH   1  15
TORSDOF 7
