REMARK  7 active torsions:
REMARK  status: ('A' for Active; 'I' for Inactive)
REMARK    1  A    between atoms: N_2  and  C_1 
REMARK    2  A    between atoms: C_3  and  C_1 
REMARK    3  A    between atoms: C_4  and  C_1 
REMARK    4  A    between atoms: N_5  and  C_1 
REMARK       I    between atoms: C_7  and  N_2 
REMARK    5  A    between atoms: C_6  and  N_5 
REMARK    6  A    between atoms: O_19  and  C_7 
REMARK    7  A    between atoms: C_23  and  O_19 
ROOT
ATOM      1  C   UNL d   1       0.873   0.010  -0.069  0.00  0.00     0.308 C 
ENDROOT
BRANCH   1   2
ATOM      2  N   UNL d   1       0.066  -1.194  -0.326  0.00  0.00    -0.295 N 
ATOM      3  C   UNL d   1      -0.113  -2.214   0.534  0.00  0.00     0.362 C 
ATOM      4  O   UNL d   1       0.427  -2.325   1.617  0.00  0.00    -0.238 OA
ATOM      5  H   UNL d   1      -0.438  -1.270  -1.204  0.00  0.00     0.168 HD
BRANCH   3   6
ATOM      6  O   UNL d   1      -0.998  -3.072  -0.021  0.00  0.00    -0.304 OA
BRANCH   6   7
ATOM      7  C   UNL d   1      -1.306  -4.247   0.746  0.00  0.00     0.176 C 
ATOM      8  C   UNL d   1      -0.355  -5.361   0.350  0.00  0.00     0.034 C 
ENDBRANCH   6   7
ENDBRANCH   3   6
ENDBRANCH   1   2
BRANCH   1   9
ATOM      9  C   UNL d   1       0.577   0.677   1.320  0.00  0.00     0.441 C 
ATOM     10  F   UNL d   1      -0.723   0.524   1.680  0.00  0.00    -0.166 F 
ATOM     11  F   UNL d   1       1.330   0.124   2.307  0.00  0.00    -0.166 F 
ATOM     12  F   UNL d   1       0.848   2.003   1.347  0.00  0.00    -0.166 F 
ENDBRANCH   1   9
BRANCH   1  13
ATOM     13  C   UNL d   1       0.491   1.139  -1.076  0.00  0.00     0.441 C 
ATOM     14  F   UNL d   1       0.031   0.600  -2.244  0.00  0.00    -0.166 F 
ATOM     15  F   UNL d   1      -0.519   1.930  -0.642  0.00  0.00    -0.166 F 
ATOM     16  F   UNL d   1       1.529   1.939  -1.400  0.00  0.00    -0.166 F 
ENDBRANCH   1  13
BRANCH   1  17
ATOM     17  N   UNL d   1       2.308  -0.441  -0.123  0.00  0.00    -0.348 N 
ATOM     18  H   UNL d   1       2.577  -0.849   0.776  0.00  0.00     0.162 HD
BRANCH  17  19
ATOM     19  C   UNL d   1       3.020  -0.974  -1.186  0.00  0.00     0.039 A 
ATOM     20  C   UNL d   1       2.468  -1.154  -2.459  0.00  0.00     0.072 A 
ATOM     21  C   UNL d   1       3.236  -1.592  -3.535  0.00  0.00     0.118 A 
ATOM     22  F   UNL d   1       2.651  -1.756  -4.729  0.00  0.00    -0.206 F 
ATOM     23  C   UNL d   1       4.585  -1.850  -3.395  0.00  0.00     0.043 A 
ATOM     24  C   UNL d   1       5.170  -1.679  -2.147  0.00  0.00     0.012 A 
ATOM     25  C   UNL d   1       4.403  -1.257  -1.039  0.00  0.00    -0.035 A 
ATOM     26  C   UNL d   1       5.147  -1.055   0.260  0.00  0.00     0.050 C 
ENDBRANCH  17  19
ENDBRANCH   1  17
TORSDOF 7
