REMARK  4 active torsions:
REMARK  status: ('A' for Active; 'I' for Inactive)
REMARK    1  A    between atoms: C_3  and  N_1 
REMARK    2  A    between atoms: N_5  and  C_3 
REMARK    3  A    between atoms: N_9  and  C_4 
REMARK    4  A    between atoms: C_7  and  N_5 
ROOT
ATOM      1  N   UNL d   1       0.747   1.093  -2.121  0.00  0.00    -0.333 N 
ATOM      2  H   UNL d   1       1.434   0.465  -2.525  0.00  0.00     0.168 HD
ENDROOT
BRANCH   1   3
ATOM      3  C   UNL d   1       0.274   0.615  -0.917  0.00  0.00     0.177 C 
ATOM      4  S   UNL d   1      -1.173   1.024  -0.156  0.00  0.00    -0.040 SA
BRANCH   3   5
ATOM      5  N   UNL d   1       1.071  -0.378  -0.408  0.00  0.00    -0.329 N 
ATOM      6  C   UNL d   1       2.188   0.010   0.111  0.00  0.00     0.179 C 
ATOM      7  HN  UNL d   1       0.799  -1.361  -0.437  1.00  0.00     0.169 HD
BRANCH   6   8
ATOM      8  N   UNL d   1       3.103  -0.795   0.751  0.00  0.00    -0.386 N 
ATOM      9  C   UNL d   1       4.352  -0.236   1.245  0.00  0.00     0.149 C 
ATOM     10  C   UNL d   1       2.629  -1.972   1.473  0.00  0.00     0.149 C 
ENDBRANCH   6   8
ENDBRANCH   3   5
ENDBRANCH   1   3
BRANCH   1  11
ATOM     11  C   UNL d   1       0.421   2.238  -2.875  0.00  0.00     0.037 A 
ATOM     12  C   UNL d   1      -0.242   3.355  -2.359  0.00  0.00     0.071 A 
ATOM     13  C   UNL d   1      -0.501   4.453  -3.176  0.00  0.00     0.118 A 
ATOM     14  F   UNL d   1      -1.134   5.517  -2.663  0.00  0.00    -0.206 F 
ATOM     15  C   UNL d   1      -0.102   4.474  -4.505  0.00  0.00     0.042 A 
ATOM     16  C   UNL d   1       0.585   3.382  -5.024  0.00  0.00     0.005 A 
ATOM     17  C   UNL d   1       0.853   2.276  -4.208  0.00  0.00     0.029 A 
ENDBRANCH   1  11
TORSDOF 4
