REMARK  4 active torsions:
REMARK  status: ('A' for Active; 'I' for Inactive)
REMARK    1  A    between atoms: C_4  and  S_1 
REMARK    2  A    between atoms: N_12  and  S_1 
REMARK    3  A    between atoms: C_2  and  C_5 
REMARK    4  A    between atoms: C_3  and  C_6 
ROOT
ATOM      1  C   UNL d   1       0.496  -0.567   1.497  0.00  0.00     0.075 A 
ATOM      2  C   UNL d   1       0.249  -2.389   3.079  0.00  0.00     0.050 A 
ATOM      3  C   UNL d   1       0.037  -0.060   3.824  0.00  0.00     0.050 A 
ATOM      4  C   UNL d   1       0.489  -1.938   1.774  0.00  0.00     0.041 A 
ATOM      5  C   UNL d   1       0.276   0.371   2.511  0.00  0.00     0.041 A 
ATOM      6  C   UNL d   1       0.017  -1.442   4.094  0.00  0.00     0.032 A 
ENDROOT
BRANCH   1   7
ATOM      7  S   UNL d   1       0.827  -0.004  -0.151  0.00  0.00     0.239 S 
ATOM      8  O   UNL d   1       0.933  -1.147  -1.029  0.00  0.00    -0.206 OA
ATOM      9  O   UNL d   1       1.829   1.030  -0.089  0.00  0.00    -0.206 OA
BRANCH   7  10
ATOM     10  N   UNL d   1      -0.616   0.748  -0.564  0.00  0.00    -0.225 NA
ATOM     11  H   UNL d   1      -1.090   0.212  -1.292  0.00  0.00     0.136 HD
ATOM     12  H   UNL d   1      -0.429   1.717  -0.834  0.00  0.00     0.136 HD
ENDBRANCH   7  10
ENDBRANCH   1   7
BRANCH   2  13
ATOM     13  C   UNL d   1       0.254  -3.866   3.408  0.00  0.00     0.417 C 
ATOM     14  F   UNL d   1       0.525  -4.661   2.337  0.00  0.00    -0.166 F 
ATOM     15  F   UNL d   1       1.181  -4.180   4.353  0.00  0.00    -0.166 F 
ATOM     16  F   UNL d   1      -0.942  -4.290   3.898  0.00  0.00    -0.166 F 
ENDBRANCH   2  13
BRANCH   3  17
ATOM     17  C   UNL d   1      -0.179   0.931   4.947  0.00  0.00     0.417 C 
ATOM     18  F   UNL d   1      -0.109   2.229   4.546  0.00  0.00    -0.166 F 
ATOM     19  F   UNL d   1      -1.395   0.785   5.540  0.00  0.00    -0.166 F 
ATOM     20  F   UNL d   1       0.743   0.793   5.938  0.00  0.00    -0.166 F 
ENDBRANCH   3  17
TORSDOF 4
