REMARK  10 active torsions:
REMARK  status: ('A' for Active; 'I' for Inactive)
REMARK    1  A    between atoms: C_1  and  O_7 
REMARK    2  A    between atoms: C_2  and  O_8 
REMARK    3  A    between atoms: C_3  and  O_9 
REMARK    4  A    between atoms: C_4  and  O_20 
REMARK    5  A    between atoms: C_6  and  C_14 
REMARK    6  A    between atoms: C_10  and  O_7 
REMARK    7  A    between atoms: C_11  and  O_8 
REMARK    8  A    between atoms: C_12  and  O_9 
REMARK    9  A    between atoms: C_13  and  O_15 
REMARK   10  A    between atoms: O_15  and  C_14 
ROOT
ATOM      1  C   UNL d   1       1.664   0.014   0.118  0.00  0.00     0.198 C 
ATOM      2  C   UNL d   1       0.915  -1.287  -0.215  0.00  0.00     0.219 C 
ATOM      3  C   UNL d   1       0.854   1.290  -0.166  0.00  0.00     0.195 C 
ATOM      4  C   UNL d   1      -0.567  -1.203   0.208  0.00  0.00     0.291 C 
ATOM      5  O   UNL d   1      -1.198   0.009  -0.204  0.00  0.00    -0.348 OA
ATOM      6  C   UNL d   1      -0.589   1.190   0.341  0.00  0.00     0.181 C 
ENDROOT
BRANCH   6   7
ATOM      7  C   UNL d   1      -1.397   2.408  -0.150  0.00  0.00     0.213 C 
BRANCH   7   8
ATOM      8  O   UNL d   1      -2.741   2.381   0.363  0.00  0.00    -0.319 OA
BRANCH   8   9
ATOM      9  C   UNL d   1      -2.882   2.836   1.635  0.00  0.00     0.254 C 
ATOM     10  O   UNL d   1      -1.982   3.279   2.329  0.00  0.00    -0.266 OA
ATOM     11  C   UNL d   1      -4.308   2.722   2.077  0.00  0.00     0.126 C 
ENDBRANCH   8   9
ENDBRANCH   7   8
ENDBRANCH   6   7
BRANCH   3  12
ATOM     12  O   UNL d   1       1.549   2.489   0.273  0.00  0.00    -0.311 OA
BRANCH  12  13
ATOM     13  C   UNL d   1       1.814   2.652   1.591  0.00  0.00     0.255 C 
ATOM     14  O   UNL d   1       1.480   1.877   2.478  0.00  0.00    -0.266 OA
ATOM     15  C   UNL d   1       2.609   3.894   1.838  0.00  0.00     0.126 C 
ENDBRANCH  12  13
ENDBRANCH   3  12
BRANCH   4  16
ATOM     16  O   UNL d   1      -1.320  -2.324  -0.285  0.00  0.00    -0.363 OA
ATOM     17  C   UNL d   1      -1.449  -2.364  -1.703  0.00  0.00     0.204 C 
ENDBRANCH   4  16
BRANCH   1  18
ATOM     18  O   UNL d   1       2.962   0.085  -0.540  0.00  0.00    -0.311 OA
BRANCH  18  19
ATOM     19  C   UNL d   1       2.989   0.087  -1.904  0.00  0.00     0.255 C 
ATOM     20  O   UNL d   1       2.006   0.091  -2.633  0.00  0.00    -0.266 OA
ATOM     21  C   UNL d   1       4.393   0.163  -2.404  0.00  0.00     0.126 C 
ENDBRANCH  18  19
ENDBRANCH   1  18
BRANCH   2  22
ATOM     22  O   UNL d   1       1.554  -2.398   0.479  0.00  0.00    -0.308 OA
BRANCH  22  23
ATOM     23  C   UNL d   1       2.582  -3.011  -0.168  0.00  0.00     0.255 C 
ATOM     24  O   UNL d   1       3.000  -2.720  -1.282  0.00  0.00    -0.266 OA
ATOM     25  C   UNL d   1       3.200  -4.072   0.687  0.00  0.00     0.126 C 
ENDBRANCH  22  23
ENDBRANCH   2  22
TORSDOF 10
