REMARK  5 active torsions:
REMARK  status: ('A' for Active; 'I' for Inactive)
REMARK    1  A    between atoms: C_13  and  C_5 
REMARK    2  A    between atoms: O_20  and  C_8 
REMARK    3  A    between atoms: O_21  and  C_9 
REMARK    4  A    between atoms: C_10  and  C_14 
REMARK    5  A    between atoms: O_22  and  C_12 
ROOT
ATOM      1  C   UNL d   1      -0.443  -0.921  -0.066  0.00  0.00     0.087 A 
ATOM      2  N   UNL d   1       0.569  -1.880  -0.162  0.00  0.00    -0.333 N 
ATOM      3  HN  UNL d   1       0.338  -2.867  -0.276  1.00  0.00     0.168 HD
ATOM      4  C   UNL d   1      -0.089   0.423   0.026  0.00  0.00     0.072 A 
ATOM      5  C   UNL d   1       1.798  -1.500  -0.104  0.00  0.00     0.162 A 
ATOM      6  C   UNL d   1       1.341   0.773   0.061  0.00  0.00     0.302 A 
ATOM      7  O   UNL d   1       2.240  -0.235   0.023  0.00  0.00    -0.257 OA
ATOM      8  C   UNL d   1      -1.812  -1.270  -0.089  0.00  0.00     0.132 A 
ATOM      9  C   UNL d   1      -2.788  -0.243  -0.017  0.00  0.00     0.137 A 
ATOM     10  C   UNL d   1      -1.049   1.439   0.075  0.00  0.00     0.059 A 
ATOM     11  C   UNL d   1      -2.401   1.114   0.046  0.00  0.00     0.105 A 
ATOM     12  O   UNL d   1       1.697   1.944   0.133  0.00  0.00    -0.259 OA
ENDROOT
BRANCH   5  13
ATOM     13  C   UNL d   1       2.924  -2.454  -0.216  0.00  0.00     0.016 A 
ATOM     14  C   UNL d   1       2.701  -3.671  -0.877  0.00  0.00     0.032 A 
ATOM     15  C   UNL d   1       3.729  -4.618  -1.006  0.00  0.00     0.048 A 
ATOM     16  C   UNL d   1       4.985  -4.329  -0.450  0.00  0.00     0.016 A 
ATOM     17  C   UNL d   1       5.208  -3.122   0.216  0.00  0.00     0.002 A 
ATOM     18  C   UNL d   1       4.181  -2.183   0.333  0.00  0.00     0.016 A 
BRANCH  15  19
ATOM     19  C   UNL d   1       3.499  -5.918  -1.736  0.00  0.00     0.417 C 
ATOM     20  F   UNL d   1       2.217  -6.079  -2.169  0.00  0.00    -0.166 F 
ATOM     21  F   UNL d   1       4.284  -6.038  -2.841  0.00  0.00    -0.166 F 
ATOM     22  F   UNL d   1       3.770  -7.005  -0.962  0.00  0.00    -0.166 F 
ENDBRANCH  15  19
ENDBRANCH   5  13
BRANCH   8  23
ATOM     23  O   UNL d   1      -2.310  -2.541  -0.234  0.00  0.00    -0.351 OA
ATOM     24  C   UNL d   1      -1.454  -3.668  -0.131  0.00  0.00     0.210 C 
ENDBRANCH   8  23
BRANCH   9  25
ATOM     25  O   UNL d   1      -4.151  -0.449  -0.085  0.00  0.00    -0.351 OA
ATOM     26  C   UNL d   1      -4.668  -1.580   0.604  0.00  0.00     0.210 C 
ENDBRANCH   9  25
BRANCH  11  27
ATOM     27  O   UNL d   1      -3.416   2.037   0.089  0.00  0.00    -0.353 OA
ATOM     28  C   UNL d   1      -3.061   3.414   0.074  0.00  0.00     0.210 C 
ENDBRANCH  11  27
TORSDOF 5
