REMARK  3 active torsions:
REMARK  status: ('A' for Active; 'I' for Inactive)
REMARK    1  A    between atoms: C_4  and  C_1 
REMARK    2  A    between atoms: O_9  and  C_3 
REMARK    3  A    between atoms: N_8  and  C_4 
ROOT
ATOM      1  C   UNL d   1       1.069  -1.008  -0.081  0.00  0.00     0.014 A 
ATOM      2  C   UNL d   1      -0.299  -0.588  -0.019  0.00  0.00    -0.015 A 
ATOM      3  C   UNL d   1       2.060  -0.029  -0.288  0.00  0.00     0.074 A 
ATOM      4  C   UNL d   1      -0.594   0.801  -0.029  0.00  0.00    -0.025 A 
ATOM      5  C   UNL d   1       1.760   1.326  -0.297  0.00  0.00     0.038 A 
ATOM      6  C   UNL d   1       0.442   1.738  -0.138  0.00  0.00     0.015 A 
ATOM      7  C   UNL d   1      -1.402  -1.477   0.037  0.00  0.00     0.013 A 
ATOM      8  C   UNL d   1      -1.922   1.246   0.058  0.00  0.00     0.012 A 
ATOM      9  C   UNL d   1      -2.722  -1.019   0.098  0.00  0.00     0.001 A 
ATOM     10  C   UNL d   1      -2.982   0.344   0.117  0.00  0.00     0.001 A 
ENDROOT
BRANCH   1  11
ATOM     11  C   UNL d   1       1.426  -2.485   0.030  0.00  0.00     0.313 C 
BRANCH  11  12
ATOM     12  N   UNL d   1       2.774  -2.776   0.589  0.00  0.00     0.084 N 
ATOM     13  C   UNL d   1       2.869  -2.350   1.999  0.00  0.00     0.309 C 
ATOM     14  C   UNL d   1       3.005  -4.229   0.534  0.00  0.00     0.309 C 
ENDBRANCH  11  12
ENDBRANCH   1  11
BRANCH   3  15
ATOM     15  O   UNL d   1       3.380  -0.349  -0.471  0.00  0.00    -0.360 OA
ATOM     16  H   UNL d   1       3.469  -1.307  -0.274  0.00  0.00     0.217 HD
ENDBRANCH   3  15
TORSDOF 3
