REMARK  0 active torsions:
REMARK  status: ('A' for Active; 'I' for Inactive)
ROOT
ATOM      1  C   UNL d   1       0.676   0.207  -0.203  0.00  0.00     0.164 C 
ATOM      2  O   UNL d   1       1.817   0.528  -0.993  0.00  0.00    -0.353 OA
ATOM      3  O   UNL d   1       1.104  -0.185   1.101  0.00  0.00    -0.353 OA
ATOM      4  C   UNL d   1      -2.202  -0.096   0.083  0.00  0.00     0.127 C 
ATOM      5  O   UNL d   1      -3.417  -0.130  -0.111  0.00  0.00    -0.298 OA
ATOM      6  C   UNL d   1      -0.231   1.433  -0.088  0.00  0.00     0.076 C 
ATOM      7  C   UNL d   1      -0.077  -0.949  -0.877  0.00  0.00     0.076 C 
ATOM      8  C   UNL d   1      -1.526   1.129   0.657  0.00  0.00     0.083 C 
ATOM      9  C   UNL d   1      -1.339  -1.320  -0.115  0.00  0.00     0.083 C 
ATOM     10  C   UNL d   1       2.431  -0.676   0.938  0.00  0.00     0.197 C 
ATOM     11  C   UNL d   1       2.934  -0.090  -0.360  0.00  0.00     0.197 C 
ENDROOT
TORSDOF 0
