REMARK  3 active torsions:
REMARK  status: ('A' for Active; 'I' for Inactive)
REMARK    1  A    between atoms: C_2  and  S_1 
REMARK    2  A    between atoms: N_5  and  S_1 
REMARK    3  A    between atoms: C_11  and  N_5 
ROOT
ATOM      1  S   UNL d   1       1.000  -0.038  -0.006  0.00  0.00     0.266 S 
ATOM      2  O   UNL d   1       0.340   0.916  -0.870  0.00  0.00    -0.200 OA
ATOM      3  O   UNL d   1       2.446  -0.055   0.104  0.00  0.00    -0.200 OA
ENDROOT
BRANCH   1   4
ATOM      4  C   UNL d   1       0.489  -1.645  -0.532  0.00  0.00     0.121 A 
ATOM      5  C   UNL d   1       1.440  -2.615  -0.863  0.00  0.00     0.072 A 
ATOM      6  C   UNL d   1       1.013  -3.829  -1.397  0.00  0.00     0.135 A 
ATOM      7  F   UNL d   1       1.936  -4.743  -1.728  0.00  0.00    -0.205 F 
ATOM      8  C   UNL d   1      -0.344  -4.082  -1.602  0.00  0.00     0.052 A 
ATOM      9  C   UNL d   1      -1.291  -3.119  -1.255  0.00  0.00     0.066 A 
ATOM     10 BR   UNL d   1      -0.914  -5.716  -2.365  0.00  0.00    -0.048 Br
ATOM     11  C   UNL d   1      -0.866  -1.901  -0.723  0.00  0.00     0.141 A 
ATOM     12  F   UNL d   1      -1.793  -0.995  -0.384  0.00  0.00    -0.204 F 
ENDBRANCH   1   4
BRANCH   1  13
ATOM     13  N   UNL d   1       0.352   0.159   1.527  0.00  0.00    -0.281 N 
ATOM     14  H   UNL d   1      -0.535   0.655   1.568  0.00  0.00     0.179 HD
BRANCH  13  15
ATOM     15  C   UNL d   1       0.732  -0.693   2.590  0.00  0.00     0.042 A 
ATOM     16  C   UNL d   1       1.890  -0.422   3.316  0.00  0.00     0.030 A 
ATOM     17  C   UNL d   1       2.269  -1.266   4.362  0.00  0.00     0.009 A 
ATOM     18  C   UNL d   1       1.501  -2.396   4.673  0.00  0.00    -0.062 A 
ATOM     19  C   UNL d   1       0.334  -2.650   3.942  0.00  0.00     0.009 A 
ATOM     20  C   UNL d   1       1.949  -3.333   5.757  0.00  0.00     0.048 C 
ATOM     21  C   UNL d   1      -0.056  -1.794   2.910  0.00  0.00     0.030 A 
ENDBRANCH  13  15
ENDBRANCH   1  13
TORSDOF 3
