REMARK  2 active torsions:
REMARK  status: ('A' for Active; 'I' for Inactive)
REMARK    1  A    between atoms: C_6  and  N_1 
REMARK    2  A    between atoms: N_7  and  C_4 
ROOT
ATOM      1  N   UNL d   1       0.039   0.882  -0.024  0.00  0.00    -0.250 N 
ATOM      2  C   UNL d   1      -1.117   0.144   0.071  0.00  0.00     0.265 C 
ATOM      3  C   UNL d   1       1.164   0.106  -0.131  0.00  0.00     0.233 C 
ATOM      4  C   UNL d   1      -0.746  -1.335  -0.010  0.00  0.00     0.323 C 
ATOM      5  C   UNL d   1       0.781  -1.338   0.007  0.00  0.00     0.149 C 
ATOM      6  O   UNL d   1      -2.260   0.564   0.169  0.00  0.00    -0.270 OA
ATOM      7  O   UNL d   1       2.325   0.476  -0.251  0.00  0.00    -0.273 OA
ENDROOT
BRANCH   1   8
ATOM      8  C   UNL d   1       0.048   2.293  -0.093  0.00  0.00     0.051 A 
ATOM      9  C   UNL d   1      -0.490   3.098   0.929  0.00  0.00    -0.034 A 
ATOM     10  C   UNL d   1      -0.501   4.496   0.759  0.00  0.00     0.015 A 
ATOM     11  C   UNL d   1      -0.997   2.564   2.242  0.00  0.00     0.050 C 
ATOM     12  C   UNL d   1       0.014   5.099  -0.394  0.00  0.00    -0.061 A 
ATOM     13  C   UNL d   1       0.562   4.291  -1.391  0.00  0.00     0.009 A 
ATOM     14  C   UNL d   1      -0.003   6.593  -0.530  0.00  0.00     0.048 C 
ATOM     15  C   UNL d   1       0.591   2.902  -1.236  0.00  0.00     0.031 A 
ENDBRANCH   1   8
BRANCH   4  16
ATOM     16  N   UNL d   1      -1.353  -2.067  -1.159  0.00  0.00     0.104 N 
ATOM     17  C   UNL d   1      -0.982  -1.528  -2.485  0.00  0.00     0.283 C 
ATOM     18  C   UNL d   1      -1.443  -2.409  -3.656  0.00  0.00     0.104 C 
ATOM     19  S   UNL d   1      -3.250  -2.551  -3.742  0.00  0.00    -0.166 SA
ATOM     20  C   UNL d   1      -3.517  -3.078  -2.023  0.00  0.00     0.104 C 
ATOM     21  C   UNL d   1      -2.829  -2.142  -1.020  0.00  0.00     0.283 C 
ENDBRANCH   4  16
TORSDOF 2
