REMARK  3 active torsions:
REMARK  status: ('A' for Active; 'I' for Inactive)
REMARK       I    between atoms: N_5  and  C_1 
REMARK    1  A    between atoms: C_6  and  C_1 
REMARK    2  A    between atoms: N_3  and  C_6 
REMARK    3  A    between atoms: C_8  and  N_5 
ROOT
ATOM      1  N   UNL d   1       6.232  -2.409  -2.844  0.00  0.00    -0.191 NA
ATOM      2  C   UNL d   1       5.079  -2.303  -2.898  0.00  0.00     0.099 C 
ATOM      3  C   UNL d   1       1.564  -1.245  -2.150  0.00  0.00     0.036 A 
ATOM      4  C   UNL d   1       3.651  -2.180  -2.988  0.00  0.00     0.046 A 
ATOM      5  C   UNL d   1       2.955  -1.386  -2.068  0.00  0.00     0.052 A 
ATOM      6  C   UNL d   1       1.570  -2.700  -4.097  0.00  0.00     0.004 A 
ATOM      7  C   UNL d   1       0.881  -1.892  -3.186  0.00  0.00     0.029 A 
ATOM      8  C   UNL d   1       2.954  -2.846  -3.998  0.00  0.00     0.023 A 
ENDROOT
BRANCH   3   9
ATOM      9  N   UNL d   1       0.811  -0.472  -1.242  0.00  0.00    -0.326 N 
ATOM     10  C   UNL d   1       1.220  -0.054   0.010  0.00  0.00     0.250 C 
ATOM     11  O   UNL d   1       2.305  -0.311   0.529  0.00  0.00    -0.271 OA
ATOM     12  H   UNL d   1      -0.171  -0.300  -1.441  0.00  0.00     0.169 HD
BRANCH  10  13
ATOM     13  C   UNL d   1       0.226   0.843   0.749  0.00  0.00     0.374 C 
BRANCH  13  14
ATOM     14  N   UNL d   1      -1.203   0.669   0.354  0.00  0.00     0.097 N 
ATOM     15  C   UNL d   1      -1.724  -0.640   0.805  0.00  0.00     0.273 C 
ATOM     16  C   UNL d   1      -3.217  -0.782   0.492  0.00  0.00     0.030 C 
ATOM     17  C   UNL d   1      -4.026   0.327   1.152  0.00  0.00     0.003 C 
ATOM     18  C   UNL d   1      -3.464   1.686   0.758  0.00  0.00     0.030 C 
ATOM     19  C   UNL d   1      -1.961   1.758   1.020  0.00  0.00     0.273 C 
ENDBRANCH  13  14
ENDBRANCH  10  13
ENDBRANCH   3   9
TORSDOF 3
