REMARK  5 active torsions:
REMARK  status: ('A' for Active; 'I' for Inactive)
REMARK    1  A    between atoms: C_8  and  C_3 
REMARK    2  A    between atoms: C_17  and  C_4 
REMARK    3  A    between atoms: C_7  and  O_12 
REMARK    4  A    between atoms: C_11  and  C_7 
REMARK    5  A    between atoms: O_12  and  C_17 
ROOT
ATOM      1  N   UNL d   1       1.402  -0.508   0.436  0.00  0.00    -0.351 N 
ATOM      2  HN  UNL d   1       2.172  -0.968   0.921  1.00  0.00     0.166 HD
ATOM      3  C   UNL d   1       1.265   0.865   0.288  0.00  0.00     0.049 A 
ATOM      4  C   UNL d   1       0.393  -1.132  -0.141  0.00  0.00     0.075 A 
ATOM      5  S   UNL d   1      -0.769  -0.104  -0.891  0.00  0.00    -0.084 SA
ATOM      6  C   UNL d   1       0.147   1.263  -0.418  0.00  0.00     0.082 A 
ENDROOT
BRANCH   3   7
ATOM      7  C   UNL d   1       2.259   1.782   0.831  0.00  0.00    -0.006 A 
ATOM      8  C   UNL d   1       3.591   1.358   0.945  0.00  0.00     0.059 A 
ATOM      9  C   UNL d   1       4.556   2.217   1.461  0.00  0.00     0.155 A 
ATOM     10  F   UNL d   1       5.825   1.800   1.555  0.00  0.00    -0.203 F 
ATOM     11  C   UNL d   1       4.209   3.497   1.875  0.00  0.00     0.154 A 
ATOM     12  C   UNL d   1       2.893   3.934   1.780  0.00  0.00     0.046 A 
ATOM     13  F   UNL d   1       5.141   4.322   2.374  0.00  0.00    -0.203 F 
ATOM     14  C   UNL d   1       1.918   3.077   1.258  0.00  0.00     0.017 A 
ENDBRANCH   3   7
BRANCH   4  15
ATOM     15  C   UNL d   1       0.155  -2.613  -0.140  0.00  0.00     0.243 C 
BRANCH  15  16
ATOM     16  O   UNL d   1       1.401  -3.323  -0.039  0.00  0.00    -0.314 OA
BRANCH  16  17
ATOM     17  C   UNL d   1       2.049  -3.529  -1.215  0.00  0.00     0.266 C 
ATOM     18  O   UNL d   1       1.685  -3.068  -2.289  0.00  0.00    -0.264 OA
BRANCH  17  19
ATOM     19  C   UNL d   1       3.244  -4.478  -1.060  0.00  0.00     0.037 C 
ATOM     20  C   UNL d   1       3.475  -4.927   0.391  0.00  0.00     0.025 C 
ATOM     21  C   UNL d   1       2.958  -5.716  -1.925  0.00  0.00     0.025 C 
ATOM     22  C   UNL d   1       4.508  -3.772  -1.569  0.00  0.00     0.025 C 
ENDBRANCH  17  19
ENDBRANCH  16  17
ENDBRANCH  15  16
ENDBRANCH   4  15
TORSDOF 5
