REMARK  4 active torsions:
REMARK  status: ('A' for Active; 'I' for Inactive)
REMARK    1  A    between atoms: O_14  and  C_3 
REMARK    2  A    between atoms: C_9  and  C_20 
REMARK       I    between atoms: N_12  and  C_9 
REMARK    3  A    between atoms: C_16  and  N_12 
REMARK    4  A    between atoms: C_20  and  O_14 
ROOT
ATOM      1  C   UNL d   1      -1.361   3.837   0.132  0.00  0.00     0.278 C 
ENDROOT
BRANCH   1   2
ATOM      2  C   UNL d   1      -0.765   5.250   0.068  0.00  0.00     0.246 C 
ATOM      3  N   UNL d   1      -1.024   6.135   1.088  0.00  0.00    -0.325 N 
ATOM      4  H   UNL d   1      -0.981   7.102   0.788  0.00  0.00     0.169 HD
ATOM      5  O   UNL d   1      -0.183   5.655  -0.941  0.00  0.00    -0.271 OA
BRANCH   3   6
ATOM      6  C   UNL d   1      -1.601   5.843   2.329  0.00  0.00     0.037 A 
ATOM      7  C   UNL d   1      -2.685   6.614   2.757  0.00  0.00     0.069 A 
ATOM      8  C   UNL d   1      -3.303   6.235   3.930  0.00  0.00     0.107 A 
ATOM      9  O   UNL d   1      -4.439   6.782   4.440  0.00  0.00    -0.323 OA
ATOM     10  C   UNL d   1      -2.829   5.201   4.704  0.00  0.00     0.105 A 
ATOM     11  C   UNL d   1      -4.691   5.888   5.545  0.00  0.00     0.352 C 
ATOM     12  O   UNL d   1      -3.598   4.983   5.803  0.00  0.00    -0.323 OA
ATOM     13  C   UNL d   1      -1.707   4.485   4.351  0.00  0.00     0.042 A 
ATOM     14  C   UNL d   1      -1.098   4.803   3.135  0.00  0.00     0.032 A 
ENDBRANCH   3   6
ENDBRANCH   1   2
BRANCH   1  15
ATOM     15  O   UNL d   1      -0.478   2.869   0.674  0.00  0.00    -0.341 OA
BRANCH  15  16
ATOM     16  C   UNL d   1      -0.919   1.562   0.672  0.00  0.00     0.083 A 
ATOM     17  C   UNL d   1      -2.222   1.177   0.353  0.00  0.00     0.062 A 
ATOM     18  C   UNL d   1      -2.547  -0.172   0.378  0.00  0.00     0.008 A 
ATOM     19  N   UNL d   1      -1.653  -1.133   0.695  0.00  0.00    -0.359 N 
ATOM     20  C   UNL d   1      -3.949  -0.631   0.102  0.00  0.00     0.068 C 
ATOM     21  C   UNL d   1      -0.400  -0.768   1.012  0.00  0.00     0.045 A 
ATOM     22  HN  UNL d   1      -1.924  -2.117   0.693  1.00  0.00     0.166 HD
ATOM     23  C   UNL d   1       0.023   0.576   1.033  0.00  0.00     0.024 A 
ATOM     24  C   UNL d   1       0.510  -1.764   1.341  0.00  0.00     0.030 A 
ATOM     25  C   UNL d   1       1.356   0.869   1.408  0.00  0.00     0.016 A 
ATOM     26  C   UNL d   1       2.246  -0.147   1.750  0.00  0.00     0.001 A 
ATOM     27  C   UNL d   1       1.825  -1.469   1.709  0.00  0.00     0.002 A 
ENDBRANCH  15  16
ENDBRANCH   1  15
TORSDOF 4
