REMARK  5 active torsions:
REMARK  status: ('A' for Active; 'I' for Inactive)
REMARK    1  A    between atoms: C_4  and  O_14 
REMARK       I    between atoms: C_9  and  N_11 
REMARK    2  A    between atoms: C_10  and  C_9 
REMARK    3  A    between atoms: N_11  and  C_15 
REMARK    4  A    between atoms: C_21  and  C_12 
REMARK    5  A    between atoms: O_14  and  C_22 
ROOT
ATOM      1  C   UNL d   1       6.933   4.551  -1.065  0.00  0.00     0.072 A 
ATOM      2  C   UNL d   1       5.839   3.690  -0.760  0.00  0.00     0.015 A 
ATOM      3  N   UNL d   1       7.526   2.468  -1.558  0.00  0.00    -0.364 N 
ATOM      4  C   UNL d   1       7.940   3.774  -1.597  0.00  0.00     0.112 A 
ATOM      5  C   UNL d   1       6.991   5.968  -0.907  0.00  0.00     0.102 C 
ATOM      6  N   UNL d   1       7.061   7.123  -0.774  0.00  0.00    -0.191 NA
ATOM      7  C   UNL d   1       6.248   2.389  -1.047  0.00  0.00     0.044 A 
ATOM      8  C   UNL d   1       4.525   3.897  -0.288  0.00  0.00     0.044 A 
ATOM      9  C   UNL d   1       3.634   2.822  -0.183  0.00  0.00     0.035 A 
ATOM     10  C   UNL d   1       5.423   1.281  -0.833  0.00  0.00     0.033 A 
ATOM     11  C   UNL d   1       4.107   1.523  -0.406  0.00  0.00     0.032 A 
ATOM     12  H   UNL d   1       8.061   1.679  -1.893  0.00  0.00     0.165 HD
ENDROOT
BRANCH   9  13
ATOM     13  N   UNL d   1       2.249   2.985   0.087  0.00  0.00    -0.324 N 
ATOM     14  C   UNL d   1       1.574   4.190   0.148  0.00  0.00     0.245 C 
ATOM     15  O   UNL d   1       2.069   5.307   0.050  0.00  0.00    -0.268 OA
ATOM     16  H   UNL d   1       1.703   2.136   0.130  0.00  0.00     0.169 HD
BRANCH  14  17
ATOM     17  C   UNL d   1       0.101   4.040   0.351  0.00  0.00     0.075 C 
ATOM     18  C   UNL d   1      -0.635   5.163   0.428  0.00  0.00     0.017 C 
BRANCH  18  19
ATOM     19  C   UNL d   1      -2.064   5.282   0.749  0.00  0.00    -0.036 A 
ATOM     20  C   UNL d   1      -2.740   4.368   1.566  0.00  0.00     0.014 A 
ATOM     21  C   UNL d   1      -4.048   4.625   2.005  0.00  0.00     0.038 A 
ATOM     22  C   UNL d   1      -4.684   5.815   1.659  0.00  0.00     0.078 A 
ATOM     23  C   UNL d   1      -4.042   6.697   0.789  0.00  0.00     0.038 A 
ATOM     24  C   UNL d   1      -2.742   6.439   0.344  0.00  0.00     0.014 A 
BRANCH  22  25
ATOM     25  O   UNL d   1      -5.921   6.215   2.063  0.00  0.00    -0.255 OA
BRANCH  25  26
ATOM     26  C   UNL d   1      -6.394   5.830   3.346  0.00  0.00     0.530 C 
ATOM     27  F   UNL d   1      -5.451   5.292   4.148  0.00  0.00    -0.144 F 
ATOM     28  F   UNL d   1      -6.885   6.926   3.969  0.00  0.00    -0.144 F 
ATOM     29  F   UNL d   1      -7.402   4.943   3.203  0.00  0.00    -0.144 F 
ENDBRANCH  25  26
ENDBRANCH  22  25
ENDBRANCH  18  19
ENDBRANCH  14  17
ENDBRANCH   9  13
TORSDOF 5
