REMARK  6 active torsions:
REMARK  status: ('A' for Active; 'I' for Inactive)
REMARK    1  A    between atoms: N_5  and  C_1 
REMARK    2  A    between atoms: N_6  and  C_1 
REMARK    3  A    between atoms: C_2  and  N_5 
REMARK    4  A    between atoms: N_3  and  C_4 
REMARK    5  A    between atoms: C_7  and  N_6 
REMARK    6  A    between atoms: O_22  and  C_17 
ROOT
ATOM      1  N   UNL d   1       0.405  -0.656  -1.076  0.00  0.00    -0.331 N 
ATOM      2  H   UNL d   1       1.005  -0.237  -0.374  0.00  0.00     0.168 HD
ENDROOT
BRANCH   1   3
ATOM      3  C   UNL d   1       0.952  -1.723  -1.828  0.00  0.00     0.064 A 
ATOM      4  C   UNL d   1       2.093  -2.435  -1.403  0.00  0.00     0.065 A 
ATOM      5  C   UNL d   1       2.739  -3.299  -2.306  0.00  0.00     0.035 A 
ATOM      6  C   UNL d   1       2.254  -3.479  -3.604  0.00  0.00     0.039 A 
ATOM      7  C   UNL d   1       1.116  -2.799  -4.021  0.00  0.00     0.070 A 
ATOM      8  C   UNL d   1       0.479  -1.926  -3.136  0.00  0.00     0.068 A 
BRANCH   4   9
ATOM      9  N   UNL d   1       2.589  -2.387  -0.064  0.00  0.00    -0.331 N 
ATOM     10  C   UNL d   1       1.862  -2.149   1.088  0.00  0.00     0.097 A 
ATOM     11  C   UNL d   1       2.700  -2.193   2.181  0.00  0.00     0.019 A 
ATOM     12  C   UNL d   1       3.988  -2.505   1.701  0.00  0.00     0.019 A 
ATOM     13  C   UNL d   1       3.891  -2.643   0.333  0.00  0.00     0.097 A 
ENDBRANCH   4   9
BRANCH   7  14
ATOM     14  O   UNL d   1       0.546  -2.874  -5.262  0.00  0.00    -0.356 OA
ATOM     15  C   UNL d   1       1.111  -3.808  -6.173  0.00  0.00     0.210 C 
ENDBRANCH   7  14
ENDBRANCH   1   3
BRANCH   1  16
ATOM     16  C   UNL d   1      -0.904  -0.232  -1.007  0.00  0.00     0.176 C 
ATOM     17  S   UNL d   1      -2.269  -1.180  -1.198  0.00  0.00    -0.041 SA
BRANCH  16  18
ATOM     18  N   UNL d   1      -1.072   1.064  -0.580  0.00  0.00    -0.333 N 
ATOM     19  H   UNL d   1      -2.002   1.262  -0.222  0.00  0.00     0.168 HD
BRANCH  18  20
ATOM     20  C   UNL d   1      -0.272   2.195  -0.872  0.00  0.00     0.042 A 
ATOM     21  C   UNL d   1      -0.400   3.366  -0.096  0.00  0.00    -0.013 A 
ATOM     22  C   UNL d   1       0.319   4.514  -0.492  0.00  0.00     0.042 A 
ATOM     23  C   UNL d   1      -1.253   3.415   1.146  0.00  0.00     0.052 C 
ATOM     24 CL   UNL d   1       0.205   6.007   0.378  0.00  0.00    -0.084 Cl
ATOM     25  C   UNL d   1       1.154   4.496  -1.613  0.00  0.00     0.024 A 
ATOM     26  C   UNL d   1       1.281   3.336  -2.363  0.00  0.00     0.004 A 
ATOM     27  C   UNL d   1       0.571   2.194  -1.997  0.00  0.00     0.030 A 
ENDBRANCH  18  20
ENDBRANCH  16  18
ENDBRANCH   1  16
TORSDOF 6
