REMARK  2 active torsions:
REMARK  status: ('A' for Active; 'I' for Inactive)
REMARK    1  A    between atoms: C_9  and  N_1 
REMARK    2  A    between atoms: C_8  and  C_4 
REMARK       I    between atoms: N_11  and  C_8 
ROOT
ATOM      1  N   UNL d   1      -0.067  -1.133   0.014  0.00  0.00    -0.196 N 
ATOM      2  N   UNL d   1       1.219  -0.715   0.161  0.00  0.00    -0.272 N 
ATOM      3  HN  UNL d   1       2.062  -1.276   0.289  1.00  0.00     0.189 HD
ATOM      4  C   UNL d   1       1.101   0.625   0.096  0.00  0.00     0.141 A 
ATOM      5  N   UNL d   1      -1.000  -0.155  -0.130  0.00  0.00    -0.281 N 
ATOM      6  HN  UNL d   1      -2.006  -0.247  -0.264  1.00  0.00     0.189 HD
ATOM      7  C   UNL d   1      -0.264   0.962  -0.050  0.00  0.00     0.057 A 
ATOM      8  C   UNL d   1      -0.881   2.306  -0.124  0.00  0.00     0.072 C 
ENDROOT
BRANCH   1   9
ATOM      9  C   UNL d   1      -0.400  -2.513   0.002  0.00  0.00     0.074 A 
ATOM     10  C   UNL d   1       0.585  -3.470   0.294  0.00  0.00     0.033 A 
ATOM     11  C   UNL d   1       0.265  -4.828   0.281  0.00  0.00     0.002 A 
ATOM     12  C   UNL d   1      -1.029  -5.237  -0.035  0.00  0.00     0.000 A 
ATOM     13  C   UNL d   1      -2.011  -4.289  -0.329  0.00  0.00     0.002 A 
ATOM     14  C   UNL d   1      -1.703  -2.927  -0.303  0.00  0.00     0.033 A 
ENDBRANCH   1   9
BRANCH   4  15
ATOM     15  C   UNL d   1       2.256   1.518   0.161  0.00  0.00     0.269 C 
ATOM     16  O   UNL d   1       2.182   2.741   0.116  0.00  0.00    -0.266 OA
ATOM     17  N   UNL d   1       3.458   0.874   0.257  0.00  0.00    -0.365 N 
ATOM     18  H   UNL d   1       3.477  -0.139   0.244  0.00  0.00     0.159 HD
ATOM     19  H   UNL d   1       4.311   1.408   0.246  0.00  0.00     0.159 HD
ENDBRANCH   4  15
TORSDOF 2
