REMARK  7 active torsions:
REMARK  status: ('A' for Active; 'I' for Inactive)
REMARK    1  A    between atoms: N_9  and  C_1 
REMARK    2  A    between atoms: N_10  and  C_1 
REMARK    3  A    between atoms: O_18  and  C_2 
REMARK    4  A    between atoms: O_20  and  C_3 
REMARK    5  A    between atoms: O_21  and  C_4 
REMARK    6  A    between atoms: C_5  and  N_9 
REMARK    7  A    between atoms: C_14  and  N_10 
ROOT
ATOM      1  C   UNL d   1      -0.689   0.589  -0.581  0.00  0.00     0.176 C 
ATOM      2  S   UNL d   1      -2.065   0.421  -1.514  0.00  0.00    -0.041 SA
ENDROOT
BRANCH   1   3
ATOM      3  N   UNL d   1       0.586   0.862  -1.018  0.00  0.00    -0.333 N 
ATOM      4  H   UNL d   1       1.292   0.325  -0.527  0.00  0.00     0.168 HD
BRANCH   3   5
ATOM      5  C   UNL d   1       1.009   1.539  -2.175  0.00  0.00     0.039 A 
ATOM      6  C   UNL d   1       0.315   2.630  -2.694  0.00  0.00     0.069 A 
ATOM      7  C   UNL d   1       0.847   3.384  -3.754  0.00  0.00     0.106 A 
ATOM      8  C   UNL d   1       2.054   2.988  -4.364  0.00  0.00     0.135 A 
ATOM      9  C   UNL d   1       2.709   1.841  -3.869  0.00  0.00     0.106 A 
ATOM     10  C   UNL d   1       2.221   1.168  -2.746  0.00  0.00     0.069 A 
BRANCH   7  11
ATOM     11  O   UNL d   1       0.170   4.479  -4.234  0.00  0.00    -0.353 OA
ATOM     12  C   UNL d   1      -0.446   5.294  -3.237  0.00  0.00     0.210 C 
ENDBRANCH   7  11
BRANCH   8  13
ATOM     13  O   UNL d   1       2.693   3.621  -5.399  0.00  0.00    -0.351 OA
ATOM     14  C   UNL d   1       2.342   4.958  -5.717  0.00  0.00     0.210 C 
ENDBRANCH   8  13
BRANCH   9  15
ATOM     15  O   UNL d   1       3.887   1.324  -4.354  0.00  0.00    -0.353 OA
ATOM     16  C   UNL d   1       3.942   1.202  -5.774  0.00  0.00     0.210 C 
ENDBRANCH   9  15
ENDBRANCH   3   5
ENDBRANCH   1   3
BRANCH   1  17
ATOM     17  N   UNL d   1      -0.763   0.275   0.754  0.00  0.00    -0.333 N 
ATOM     18  H   UNL d   1      -1.571  -0.284   1.008  0.00  0.00     0.168 HD
BRANCH  17  19
ATOM     19  C   UNL d   1      -0.218   1.029   1.826  0.00  0.00     0.037 A 
ATOM     20  C   UNL d   1      -0.380   0.515   3.113  0.00  0.00     0.069 A 
ATOM     21  C   UNL d   1      -0.077   1.305   4.221  0.00  0.00     0.104 A 
ATOM     22  O   UNL d   1      -0.326   0.760   5.453  0.00  0.00    -0.346 OA
ATOM     23  C   UNL d   1       0.408   2.604   4.055  0.00  0.00     0.102 A 
ATOM     24  C   UNL d   1      -0.650   1.801   6.377  0.00  0.00     0.202 C 
ATOM     25  C   UNL d   1       0.426   2.877   6.380  0.00  0.00     0.202 C 
ATOM     26  O   UNL d   1       0.624   3.471   5.091  0.00  0.00    -0.346 OA
ATOM     27  C   UNL d   1       0.635   3.096   2.772  0.00  0.00     0.042 A 
ATOM     28  C   UNL d   1       0.324   2.309   1.656  0.00  0.00     0.032 A 
ENDBRANCH  17  19
ENDBRANCH   1  17
TORSDOF 7
