REMARK  6 active torsions:
REMARK  status: ('A' for Active; 'I' for Inactive)
REMARK    1  A    between atoms: C_2  and  S_1 
REMARK    2  A    between atoms: N_12  and  S_1 
REMARK    3  A    between atoms: N_8  and  C_19 
REMARK    4  A    between atoms: C_24  and  N_12 
REMARK    5  A    between atoms: C_19  and  C_23 
REMARK    6  A    between atoms: C_23  and  C_24 
ROOT
ATOM      1  S   UNL d   1       1.039   0.126   0.176  0.00  0.00     0.259 S 
ATOM      2  O   UNL d   1       0.576   1.451  -0.188  0.00  0.00    -0.201 OA
ATOM      3  O   UNL d   1       0.674  -1.001  -0.639  0.00  0.00    -0.201 OA
ENDROOT
BRANCH   1   4
ATOM      4  C   UNL d   1       0.631  -0.173   1.912  0.00  0.00     0.092 C 
ATOM      5  C   UNL d   1       1.138   0.720   2.901  0.00  0.00    -0.032 C 
ATOM      6  C   UNL d   1       1.058   0.361   4.272  0.00  0.00    -0.048 C 
ATOM      7  C   UNL d   1       1.681   2.098   2.586  0.00  0.00     0.050 C 
ATOM      8  C   UNL d   1       1.725   1.200   5.347  0.00  0.00     0.049 C 
ATOM      9  C   UNL d   1       0.312  -0.775   4.666  0.00  0.00    -0.049 C 
ATOM     10  C   UNL d   1      -0.279  -1.611   3.687  0.00  0.00    -0.048 C 
ATOM     11  C   UNL d   1       0.099  -1.023   6.146  0.00  0.00     0.049 C 
ATOM     12  C   UNL d   1      -0.134  -1.311   2.300  0.00  0.00    -0.032 C 
ATOM     13  C   UNL d   1      -1.092  -2.804   4.152  0.00  0.00     0.049 C 
ATOM     14  C   UNL d   1      -0.864  -2.211   1.327  0.00  0.00     0.050 C 
ENDBRANCH   1   4
BRANCH   1  15
ATOM     15  N   UNL d   1       2.723   0.159   0.154  0.00  0.00    -0.315 N 
ATOM     16  H   UNL d   1       3.110   1.097   0.209  0.00  0.00     0.172 HD
BRANCH  15  17
ATOM     17  C   UNL d   1       3.539  -0.962   0.651  0.00  0.00     0.134 C 
BRANCH  17  18
ATOM     18  C   UNL d   1       3.264  -2.315  -0.007  0.00  0.00     0.050 C 
BRANCH  18  19
ATOM     19  C   UNL d   1       3.582  -2.303  -1.511  0.00  0.00     0.274 C 
BRANCH  19  20
ATOM     20  N   UNL d   1       3.344  -3.586  -2.205  0.00  0.00     0.093 N 
ATOM     21  C   UNL d   1       3.691  -3.471  -3.648  0.00  0.00     0.303 C 
ATOM     22  C   UNL d   1       2.680  -2.652  -4.495  0.00  0.00     0.146 C 
ATOM     23  C   UNL d   1       3.015  -2.730  -5.978  0.00  0.00     0.041 C 
ATOM     24  O   UNL d   1       1.336  -3.150  -4.332  0.00  0.00    -0.378 OA
ATOM     25  C   UNL d   1       0.974  -3.118  -2.943  0.00  0.00     0.146 C 
ATOM     26  C   UNL d   1       1.928  -4.025  -2.140  0.00  0.00     0.303 C 
ATOM     27  C   UNL d   1      -0.470  -3.563  -2.774  0.00  0.00     0.041 C 
ENDBRANCH  19  20
ENDBRANCH  18  19
ENDBRANCH  17  18
ENDBRANCH  15  17
ENDBRANCH   1  15
TORSDOF 6
