REMARK  8 active torsions:
REMARK  status: ('A' for Active; 'I' for Inactive)
REMARK    1  A    between atoms: S_9  and  C_3 
REMARK    2  A    between atoms: O_12  and  C_4 
REMARK    3  A    between atoms: C_15  and  C_5 
REMARK    4  A    between atoms: C_17  and  C_8 
REMARK    5  A    between atoms: C_16  and  S_9 
REMARK    6  A    between atoms: C_10  and  C_15 
REMARK    7  A    between atoms: C_11  and  C_16 
REMARK    8  A    between atoms: C_18  and  C_17 
ROOT
ATOM      1  N   UNL d   1      -0.302  -1.271  -0.050  0.00  0.00    -0.317 N 
ATOM      2  HN  UNL d   1      -0.785  -2.169  -0.041  1.00  0.00     0.170 HD
ATOM      3  C   UNL d   1       1.032  -1.177  -0.072  0.00  0.00     0.147 A 
ATOM      4  C   UNL d   1      -0.957  -0.111  -0.041  0.00  0.00     0.150 A 
ATOM      5  C   UNL d   1      -0.388   1.143  -0.052  0.00  0.00     0.019 A 
ATOM      6  N   UNL d   1       1.715  -0.023  -0.160  0.00  0.00    -0.340 N 
ATOM      7  HN  UNL d   1       2.733  -0.015  -0.227  1.00  0.00     0.168 HD
ATOM      8  C   UNL d   1       1.000   1.134  -0.157  0.00  0.00     0.022 A 
ENDROOT
BRANCH   3   9
ATOM      9  S   UNL d   1       1.877  -2.734   0.023  0.00  0.00    -0.085 SA
BRANCH   9  10
ATOM     10  C   UNL d   1       3.455  -2.306   0.830  0.00  0.00     0.073 C 
ATOM     11  C   UNL d   1       4.229  -3.616   1.019  0.00  0.00     0.026 C 
BRANCH  10  12
ATOM     12  C   UNL d   1       3.248  -1.665   2.181  0.00  0.00    -0.022 C 
ATOM     13  C   UNL d   1       3.723  -0.459   2.513  0.00  0.00     0.008 C 
ENDBRANCH  10  12
ENDBRANCH   9  10
ENDBRANCH   3   9
BRANCH   4  14
ATOM     14  O   UNL d   1      -2.303  -0.277   0.026  0.00  0.00    -0.346 OA
ATOM     15  H   UNL d   1      -2.358  -1.250   0.013  0.00  0.00     0.219 HD
ENDBRANCH   4  14
BRANCH   8  16
ATOM     16  C   UNL d   1       1.796   2.424  -0.130  0.00  0.00     0.057 C 
BRANCH  16  17
ATOM     17  C   UNL d   1       3.176   2.386  -0.796  0.00  0.00     0.002 C 
ATOM     18  C   UNL d   1       3.104   2.242  -2.310  0.00  0.00     0.005 C 
ENDBRANCH  16  17
ENDBRANCH   8  16
BRANCH   5  19
ATOM     19  C   UNL d   1      -1.234   2.377   0.096  0.00  0.00     0.071 C 
BRANCH  19  20
ATOM     20  C   UNL d   1      -1.758   3.033  -1.152  0.00  0.00    -0.032 C 
ATOM     21  C   UNL d   1      -1.609   2.648  -2.427  0.00  0.00     0.007 C 
ENDBRANCH  19  20
ENDBRANCH   5  19
TORSDOF 8
