REMARK  3 active torsions:
REMARK  status: ('A' for Active; 'I' for Inactive)
REMARK    1  A    between atoms: C_2  and  C_1 
REMARK       I    between atoms: N_3  and  C_2 
REMARK    2  A    between atoms: C_8  and  N_3 
REMARK    3  A    between atoms: N_9  and  C_4 
ROOT
ATOM      1  C   UNL d   1       1.362   2.433   0.230  0.00  0.00     0.258 C 
ATOM      2  N   UNL d   1       2.688   2.394  -0.159  0.00  0.00    -0.323 N 
ATOM      3  O   UNL d   1       0.746   3.430   0.596  0.00  0.00    -0.267 OA
ATOM      4  H   UNL d   1       3.004   1.519  -0.570  0.00  0.00     0.169 HD
ENDROOT
BRANCH   1   5
ATOM      5  C   UNL d   1       0.628   1.135   0.178  0.00  0.00     0.053 A 
ATOM      6  C   UNL d   1       1.231  -0.110   0.445  0.00  0.00     0.021 A 
ATOM      7  C   UNL d   1       0.450  -1.266   0.300  0.00  0.00     0.025 A 
ATOM      8  C   UNL d   1      -0.925  -1.186   0.053  0.00  0.00     0.008 A 
ATOM      9  C   UNL d   1      -1.544   0.055  -0.108  0.00  0.00    -0.061 A 
ATOM     10  C   UNL d   1      -0.756   1.208  -0.070  0.00  0.00     0.025 A 
ATOM     11  C   UNL d   1      -3.028   0.144  -0.303  0.00  0.00     0.048 C 
BRANCH   6  12
ATOM     12  N   UNL d   1       2.616  -0.261   0.681  0.00  0.00    -0.302 NA
ATOM     13  H   UNL d   1       2.985   0.507   1.246  0.00  0.00     0.124 HD
ATOM     14  H   UNL d   1       2.835  -1.150   1.128  0.00  0.00     0.124 HD
ENDBRANCH   6  12
ENDBRANCH   1   5
BRANCH   2  15
ATOM     15  C   UNL d   1       3.638   3.431  -0.031  0.00  0.00     0.035 A 
ATOM     16  C   UNL d   1       3.378   4.632   0.639  0.00  0.00     0.031 A 
ATOM     17  C   UNL d   1       4.379   5.597   0.791  0.00  0.00     0.026 A 
ATOM     18  C   UNL d   1       5.646   5.369   0.268  0.00  0.00     0.034 A 
ATOM     19  C   UNL d   1       5.918   4.187  -0.416  0.00  0.00     0.026 A 
ATOM     20 CL   UNL d   1       6.882   6.546   0.476  0.00  0.00    -0.084 Cl
ATOM     21  C   UNL d   1       4.915   3.219  -0.562  0.00  0.00     0.031 A 
ENDBRANCH   2  15
TORSDOF 3
