REMARK  7 active torsions:
REMARK  status: ('A' for Active; 'I' for Inactive)
REMARK    1  A    between atoms: C_11  and  N_1 
REMARK    2  A    between atoms: C_13  and  C_5 
REMARK    3  A    between atoms: C_8  and  C_11 
REMARK    4  A    between atoms: C_17  and  C_9 
REMARK    5  A    between atoms: C_16  and  C_13 
REMARK    6  A    between atoms: O_22  and  C_16 
REMARK    7  A    between atoms: C_29  and  O_22 
ROOT
ATOM      1  N   UNL d   1       2.396  -0.638  -0.002  0.00  0.00    -0.251 N 
ATOM      2  N   UNL d   1       2.400   0.737   0.018  0.00  0.00    -0.298 N 
ATOM      3  HN  UNL d   1       3.282   1.249   0.022  1.00  0.00     0.187 HD
ATOM      4  C   UNL d   1       1.248  -1.418   0.058  0.00  0.00     0.273 A 
ATOM      5  C   UNL d   1       1.272   1.379   0.032  0.00  0.00     0.046 A 
ATOM      6  C   UNL d   1      -0.036  -0.696   0.046  0.00  0.00     0.046 A 
ATOM      7  C   UNL d   1      -0.045   0.695   0.008  0.00  0.00     0.004 A 
ATOM      8  O   UNL d   1       1.248  -2.645   0.103  0.00  0.00    -0.266 OA
ATOM      9  C   UNL d   1      -1.240  -1.415   0.034  0.00  0.00     0.018 A 
ATOM     10  C   UNL d   1      -1.272   1.369  -0.061  0.00  0.00     0.014 A 
ATOM     11  C   UNL d   1      -2.457  -0.739  -0.029  0.00  0.00     0.001 A 
ATOM     12  C   UNL d   1      -2.472   0.652  -0.077  0.00  0.00     0.001 A 
ENDROOT
BRANCH   1  13
ATOM     13  C   UNL d   1       3.700  -1.293  -0.087  0.00  0.00     0.217 C 
BRANCH  13  14
ATOM     14  C   UNL d   1       4.100  -1.573  -1.512  0.00  0.00     0.071 A 
ATOM     15  N   UNL d   1       4.444  -2.764  -1.965  0.00  0.00    -0.351 N 
ATOM     16  C   UNL d   1       4.924  -2.673  -3.261  0.00  0.00     0.049 A 
ATOM     17  HN  UNL d   1       4.367  -3.631  -1.434  1.00  0.00     0.166 HD
ATOM     18  C   UNL d   1       4.875  -1.407  -3.809  0.00  0.00     0.081 A 
ATOM     19  S   UNL d   1       4.275  -0.292  -2.655  0.00  0.00    -0.085 SA
BRANCH  16  20
ATOM     20  C   UNL d   1       5.469  -3.844  -3.936  0.00  0.00    -0.006 A 
ATOM     21  C   UNL d   1       4.933  -5.108  -3.664  0.00  0.00     0.056 A 
ATOM     22  C   UNL d   1       5.496  -6.240  -4.244  0.00  0.00     0.117 A 
ATOM     23  F   UNL d   1       4.981  -7.447  -3.975  0.00  0.00    -0.206 F 
ATOM     24  C   UNL d   1       6.596  -6.143  -5.090  0.00  0.00     0.042 A 
ATOM     25  C   UNL d   1       7.136  -4.891  -5.371  0.00  0.00     0.004 A 
ATOM     26  C   UNL d   1       6.572  -3.745  -4.800  0.00  0.00     0.014 A 
ENDBRANCH  16  20
ENDBRANCH  13  14
ENDBRANCH   1  13
BRANCH   5  27
ATOM     27  C   UNL d   1       1.357   2.892   0.018  0.00  0.00     0.170 C 
BRANCH  27  28
ATOM     28  C   UNL d   1       0.744   3.567   1.209  0.00  0.00     0.264 C 
ATOM     29  O   UNL d   1       0.199   2.993   2.143  0.00  0.00    -0.265 OA
BRANCH  28  30
ATOM     30  O   UNL d   1       0.763   4.918   1.025  0.00  0.00    -0.322 OA
BRANCH  30  31
ATOM     31  C   UNL d   1      -0.197   5.650   1.802  0.00  0.00     0.174 C 
ATOM     32  C   UNL d   1      -1.466   5.755   0.975  0.00  0.00     0.034 C 
ENDBRANCH  30  31
ENDBRANCH  28  30
ENDBRANCH  27  28
ENDBRANCH   5  27
TORSDOF 7
