REMARK  4 active torsions:
REMARK  status: ('A' for Active; 'I' for Inactive)
REMARK    1  A    between atoms: C_7  and  C_1 
REMARK    2  A    between atoms: O_16  and  C_6 
REMARK    3  A    between atoms: C_18  and  C_11 
REMARK    4  A    between atoms: O_17  and  C_18 
ROOT
ATOM      1  C   UNL d   1       1.046  -1.146   0.016  0.00  0.00     0.117 A 
ATOM      2  N   UNL d   1      -0.299  -1.161  -0.018  0.00  0.00    -0.323 N 
ATOM      3  HN  UNL d   1      -0.836  -2.027  -0.042  1.00  0.00     0.169 HD
ATOM      4  N   UNL d   1       1.796  -0.025   0.030  0.00  0.00    -0.343 N 
ATOM      5  HN  UNL d   1       2.815  -0.070   0.038  1.00  0.00     0.167 HD
ATOM      6  C   UNL d   1      -0.878   0.042  -0.017  0.00  0.00     0.143 A 
ATOM      7  C   UNL d   1      -0.228   1.244   0.011  0.00  0.00     0.083 A 
ATOM      8  C   UNL d   1       1.147   1.164   0.035  0.00  0.00     0.038 A 
ENDROOT
BRANCH   1   9
ATOM      9  C   UNL d   1       1.752  -2.443   0.035  0.00  0.00     0.010 A 
ATOM     10  C   UNL d   1       1.053  -3.663  -0.023  0.00  0.00     0.039 A 
ATOM     11  C   UNL d   1       1.722  -4.893   0.004  0.00  0.00     0.041 A 
ATOM     12 CL   UNL d   1       0.767  -6.331  -0.074  0.00  0.00    -0.084 Cl
ATOM     13  C   UNL d   1       3.119  -4.947   0.092  0.00  0.00    -0.040 A 
ATOM     14  C   UNL d   1       3.828  -3.742   0.145  0.00  0.00     0.009 A 
ATOM     15  C   UNL d   1       3.866  -6.249   0.130  0.00  0.00     0.050 C 
ATOM     16  C   UNL d   1       3.155  -2.515   0.117  0.00  0.00     0.016 A 
ENDBRANCH   1   9
BRANCH   6  17
ATOM     17  O   UNL d   1      -2.235   0.001  -0.058  0.00  0.00    -0.346 OA
ATOM     18  H   UNL d   1      -2.385  -0.961  -0.065  0.00  0.00     0.219 HD
ENDBRANCH   6  17
BRANCH   8  19
ATOM     19  C   UNL d   1       1.989   2.416   0.030  0.00  0.00     0.224 C 
BRANCH  19  20
ATOM     20  O   UNL d   1       1.656   3.242   1.148  0.00  0.00    -0.390 OA
ATOM     21  C   UNL d   1       2.470   4.407   1.188  0.00  0.00     0.201 C 
ENDBRANCH  19  20
ENDBRANCH   8  19
TORSDOF 4
