REMARK  3 active torsions:
REMARK  status: ('A' for Active; 'I' for Inactive)
REMARK    1  A    between atoms: C_8  and  N_1 
REMARK    2  A    between atoms: C_9  and  C_2 
REMARK    3  A    between atoms: C_11  and  C_7 
ROOT
ATOM      1  N   UNL d   1       1.488  -1.054  -0.060  0.00  0.00    -0.262 N 
ATOM      2  C   UNL d   1       0.153  -1.356  -0.090  0.00  0.00     0.126 A 
ATOM      3  N   UNL d   1      -0.651  -0.327  -0.118  0.00  0.00    -0.337 N 
ATOM      4  HN  UNL d   1      -1.670  -0.331  -0.158  1.00  0.00     0.167 HD
ATOM      5  C   UNL d   1       0.183   0.762  -0.083  0.00  0.00     0.104 A 
ATOM      6  C   UNL d   1       1.612   0.317  -0.051  0.00  0.00     0.280 A 
ATOM      7  C   UNL d   1      -0.182   2.053  -0.038  0.00  0.00     0.046 C 
ATOM      8  O   UNL d   1       2.597   1.019  -0.011  0.00  0.00    -0.265 OA
ENDROOT
BRANCH   7   9
ATOM      9  C   UNL d   1      -1.579   2.491   0.028  0.00  0.00    -0.034 A 
ATOM     10  C   UNL d   1      -2.197   2.668   1.274  0.00  0.00     0.013 A 
ATOM     11  C   UNL d   1      -3.525   3.096   1.353  0.00  0.00     0.024 A 
ATOM     12  C   UNL d   1      -4.240   3.348   0.185  0.00  0.00     0.034 A 
ATOM     13  C   UNL d   1      -3.639   3.172  -1.061  0.00  0.00     0.024 A 
ATOM     14 CL   UNL d   1      -5.875   3.876   0.280  0.00  0.00    -0.084 Cl
ATOM     15  C   UNL d   1      -2.311   2.739  -1.139  0.00  0.00     0.013 A 
ENDBRANCH   7   9
BRANCH   1  16
ATOM     16  C   UNL d   1       2.592  -1.908  -0.215  0.00  0.00     0.044 A 
ATOM     17  C   UNL d   1       3.256  -2.405   0.918  0.00  0.00     0.033 A 
ATOM     18  C   UNL d   1       4.317  -3.300   0.778  0.00  0.00     0.044 A 
ATOM     19  C   UNL d   1       4.755  -3.643  -0.495  0.00  0.00     0.116 A 
ATOM     20  C   UNL d   1       4.121  -3.143  -1.629  0.00  0.00     0.044 A 
ATOM     21  F   UNL d   1       5.803  -4.465  -0.631  0.00  0.00    -0.206 F 
ATOM     22  C   UNL d   1       3.022  -2.289  -1.492  0.00  0.00     0.033 A 
ENDBRANCH   1  16
BRANCH   2  23
ATOM     23  C   UNL d   1      -0.382  -2.737  -0.033  0.00  0.00     0.009 A 
ATOM     24  C   UNL d   1       0.272  -3.740   0.686  0.00  0.00     0.015 A 
ATOM     25  C   UNL d   1      -0.274  -5.008   0.821  0.00  0.00     0.001 A 
ATOM     26  C   UNL d   1      -1.517  -5.277   0.267  0.00  0.00     0.000 A 
ATOM     27  C   UNL d   1      -2.200  -4.280  -0.431  0.00  0.00     0.001 A 
ATOM     28  C   UNL d   1      -1.638  -3.010  -0.584  0.00  0.00     0.015 A 
ENDBRANCH   2  23
TORSDOF 3
