REMARK  7 active torsions:
REMARK  status: ('A' for Active; 'I' for Inactive)
REMARK    1  A    between atoms: C_9  and  C_3 
REMARK    2  A    between atoms: C_14  and  C_7 
REMARK    3  A    between atoms: O_13  and  C_9 
REMARK    4  A    between atoms: N_10  and  O_13 
REMARK    5  A    between atoms: C_15  and  C_12 
REMARK    6  A    between atoms: N_23  and  C_12 
REMARK    7  A    between atoms: C_16  and  C_17 
ROOT
ATOM      1  N   UNL d   1      -4.595   0.941   0.182  0.00  0.00    -0.246 N 
ATOM      2  HN  UNL d   1      -4.723  -0.059   0.341  1.00  0.00     0.196 HD
ATOM      3  C   UNL d   1      -5.593   1.759   0.066  0.00  0.00     0.109 C 
ENDROOT
BRANCH   1   4
ATOM      4  O   UNL d   1      -3.307   1.539   0.071  0.00  0.00    -0.193 OA
BRANCH   4   5
ATOM      5  C   UNL d   1      -2.391   0.498   0.011  0.00  0.00     0.322 C 
ATOM      6  O   UNL d   1      -2.726  -0.688  -0.005  0.00  0.00    -0.257 OA
BRANCH   5   7
ATOM      7  C   UNL d   1      -0.983   0.918  -0.011  0.00  0.00     0.090 A 
ATOM      8  C   UNL d   1       0.097   0.040   0.003  0.00  0.00    -0.020 A 
ATOM      9  C   UNL d   1       1.344   0.731  -0.022  0.00  0.00     0.030 A 
ATOM     10  C   UNL d   1       0.130  -1.451   0.041  0.00  0.00     0.051 C 
ATOM     11  C   UNL d   1       1.230   2.086  -0.066  0.00  0.00     0.024 A 
ATOM     12  S   UNL d   1       2.993   0.201  -0.010  0.00  0.00    -0.092 SA
ATOM     13  S   UNL d   1      -0.465   2.564  -0.063  0.00  0.00    -0.082 SA
ATOM     14  C   UNL d   1       2.514   2.739  -0.107  0.00  0.00     0.035 A 
ATOM     15  C   UNL d   1       3.564   1.826  -0.087  0.00  0.00    -0.008 A 
BRANCH  15  16
ATOM     16  C   UNL d   1       5.093   2.036  -0.133  0.00  0.00    -0.018 C 
ATOM     17  C   UNL d   1       5.684   1.368  -1.397  0.00  0.00     0.020 C 
ATOM     18  C   UNL d   1       5.473   3.527  -0.172  0.00  0.00     0.020 C 
ATOM     19  C   UNL d   1       5.761   1.418   1.117  0.00  0.00     0.020 C 
ENDBRANCH  15  16
ENDBRANCH   5   7
ENDBRANCH   4   5
ENDBRANCH   1   4
BRANCH   3  20
ATOM     20  C   UNL d   1      -6.977   1.164   0.137  0.00  0.00     0.004 A 
ATOM     21  C   UNL d   1      -7.189  -0.075   0.751  0.00  0.00     0.015 A 
ATOM     22  C   UNL d   1      -8.476  -0.632   0.812  0.00  0.00     0.009 A 
ATOM     23  C   UNL d   1      -9.589   0.021   0.248  0.00  0.00    -0.051 A 
ATOM     24  C   UNL d   1      -9.352   1.261  -0.371  0.00  0.00     0.009 A 
ATOM     25  C   UNL d   1      -8.068   1.824  -0.430  0.00  0.00     0.015 A 
BRANCH  23  26
ATOM     26  C   UNL d   1     -10.987  -0.630   0.293  0.00  0.00    -0.024 C 
ATOM     27  C   UNL d   1     -12.083   0.212  -0.401  0.00  0.00     0.019 C 
ATOM     28  C   UNL d   1     -10.951  -2.001  -0.418  0.00  0.00     0.019 C 
ATOM     29  C   UNL d   1     -11.436  -0.840   1.756  0.00  0.00     0.019 C 
ENDBRANCH  23  26
ENDBRANCH   3  20
BRANCH   3  30
ATOM     30  N   UNL d   1      -5.454   3.115  -0.107  0.00  0.00    -0.286 NA
ATOM     31  H   UNL d   1      -4.518   3.436   0.114  0.00  0.00     0.125 HD
ATOM     32  H   UNL d   1      -6.171   3.680   0.335  0.00  0.00     0.125 HD
ENDBRANCH   3  30
TORSDOF 7
