REMARK  4 active torsions:
REMARK  status: ('A' for Active; 'I' for Inactive)
REMARK    1  A    between atoms: C_10  and  N_3 
REMARK    2  A    between atoms: C_8  and  C_4 
REMARK    3  A    between atoms: S_9  and  C_8 
REMARK    4  A    between atoms: C_12  and  S_9 
ROOT
ATOM      1  N   UNL d   1      -0.237  -1.092   0.091  0.00  0.00    -0.273 N 
ATOM      2  HN  UNL d   1      -0.549  -2.028   0.351  1.00  0.00     0.189 HD
ATOM      3  N   UNL d   1       1.034  -0.632  -0.062  0.00  0.00    -0.196 N 
ATOM      4  C   UNL d   1      -0.984  -0.001  -0.188  0.00  0.00     0.131 C 
ATOM      5  N   UNL d   1       1.156   0.695  -0.299  0.00  0.00    -0.281 N 
ATOM      6  HN  UNL d   1       2.005   1.260  -0.335  1.00  0.00     0.189 HD
ATOM      7  C   UNL d   1      -0.110   1.080  -0.475  0.00  0.00     0.056 C 
ATOM      8  C   UNL d   1      -0.393   2.471  -0.897  0.00  0.00     0.072 C 
ENDROOT
BRANCH   4   9
ATOM      9  C   UNL d   1      -2.443   0.021  -0.234  0.00  0.00     0.243 C 
ATOM     10  O   UNL d   1      -3.079   0.790  -0.952  0.00  0.00    -0.278 OA
BRANCH   9  11
ATOM     11  S   UNL d   1      -3.257  -1.010   0.933  0.00  0.00    -0.046 SA
BRANCH  11  12
ATOM     12  C   UNL d   1      -4.111  -2.212  -0.069  0.00  0.00     0.008 A 
ATOM     13  C   UNL d   1      -4.326  -3.476   0.500  0.00  0.00     0.021 A 
ATOM     14  C   UNL d   1      -4.968  -4.489  -0.219  0.00  0.00     0.025 A 
ATOM     15  C   UNL d   1      -5.407  -4.241  -1.515  0.00  0.00     0.034 A 
ATOM     16  C   UNL d   1      -5.234  -2.982  -2.084  0.00  0.00     0.025 A 
ATOM     17 CL   UNL d   1      -6.165  -5.494  -2.417  0.00  0.00    -0.084 Cl
ATOM     18  C   UNL d   1      -4.597  -1.967  -1.358  0.00  0.00     0.021 A 
ENDBRANCH  11  12
ENDBRANCH   9  11
ENDBRANCH   4   9
BRANCH   3  19
ATOM     19  C   UNL d   1       2.171  -1.481  -0.092  0.00  0.00     0.074 A 
ATOM     20  C   UNL d   1       2.025  -2.875  -0.093  0.00  0.00     0.033 A 
ATOM     21  C   UNL d   1       3.154  -3.687  -0.241  0.00  0.00     0.002 A 
ATOM     22  C   UNL d   1       4.422  -3.115  -0.364  0.00  0.00     0.000 A 
ATOM     23  C   UNL d   1       4.574  -1.732  -0.328  0.00  0.00     0.002 A 
ATOM     24  C   UNL d   1       3.453  -0.914  -0.195  0.00  0.00     0.033 A 
ENDBRANCH   3  19
TORSDOF 4
