REMARK  2 active torsions:
REMARK  status: ('A' for Active; 'I' for Inactive)
REMARK    1  A    between atoms: C_2  and  C_1 
REMARK    2  A    between atoms: N_17  and  C_9 
ROOT
ATOM      1  C   UNL d   1      -0.318   2.529   0.132  0.00  0.00     0.143 C 
ATOM      2  S   UNL d   1      -1.547   2.637   1.488  0.00  0.00    -0.144 SA
ATOM      3  S   UNL d   1      -1.020   2.919  -1.514  0.00  0.00    -0.144 SA
ATOM      4  C   UNL d   1      -2.798   4.947   0.632  0.00  0.00    -0.041 A 
ATOM      5  C   UNL d   1      -2.543   5.080  -0.746  0.00  0.00    -0.041 A 
ATOM      6  C   UNL d   1      -4.082   5.246   1.118  0.00  0.00     0.015 A 
ATOM      7  C   UNL d   1      -3.579   5.503  -1.597  0.00  0.00     0.015 A 
ATOM      8  C   UNL d   1      -5.115   5.669   0.268  0.00  0.00    -0.056 A 
ATOM      9  C   UNL d   1      -4.861   5.797  -1.110  0.00  0.00    -0.056 A 
ATOM     10  C   UNL d   1      -1.210   4.714  -1.351  0.00  0.00     0.114 C 
ATOM     11  C   UNL d   1      -1.751   4.438   1.591  0.00  0.00     0.114 C 
ATOM     12  C   UNL d   1      -6.477   5.950   0.841  0.00  0.00     0.049 C 
ATOM     13  C   UNL d   1      -5.934   6.220  -2.072  0.00  0.00     0.049 C 
ENDROOT
BRANCH   1  14
ATOM     14  C   UNL d   1       0.318   1.144   0.086  0.00  0.00    -0.013 A 
ATOM     15  C   UNL d   1       1.704   0.946   0.117  0.00  0.00     0.044 A 
ATOM     16  C   UNL d   1       2.253  -0.345   0.035  0.00  0.00     0.053 A 
ATOM     17 CL   UNL d   1       2.826   2.258   0.257  0.00  0.00    -0.084 Cl
ATOM     18  C   UNL d   1       1.460  -1.496  -0.087  0.00  0.00     0.031 A 
ATOM     19  C   UNL d   1       0.077  -1.288  -0.122  0.00  0.00     0.030 A 
ATOM     20  C   UNL d   1      -0.484  -0.005  -0.042  0.00  0.00     0.013 A 
BRANCH  18  21
ATOM     21  N   UNL d   1       2.019  -2.760  -0.153  0.00  0.00    -0.390 N 
ATOM     22  C   UNL d   1       1.301  -3.949   0.288  0.00  0.00     0.149 C 
ATOM     23  C   UNL d   1       3.306  -2.997  -0.797  0.00  0.00     0.149 C 
ENDBRANCH  18  21
ENDBRANCH   1  14
TORSDOF 2
