REMARK  1 active torsions:
REMARK  status: ('A' for Active; 'I' for Inactive)
REMARK    1  A    between atoms: C_2  and  N_1 
ROOT
ATOM      1  C   UNL d   1       1.117   2.331  -1.110  0.00  0.00     0.048 A 
ATOM      2  C   UNL d   1       0.998   3.646  -0.623  0.00  0.00     0.070 A 
ATOM      3  C   UNL d   1       1.493   4.695  -1.379  0.00  0.00     0.107 A 
ATOM      4  C   UNL d   1       2.128   4.496  -2.576  0.00  0.00     0.105 A 
ATOM      5  O   UNL d   1       1.421   6.013  -1.046  0.00  0.00    -0.323 OA
ATOM      6  O   UNL d   1       2.523   5.656  -3.162  0.00  0.00    -0.323 OA
ATOM      7  C   UNL d   1       1.839   2.154  -2.323  0.00  0.00     0.033 A 
ATOM      8  C   UNL d   1       2.056   6.618  -2.194  0.00  0.00     0.352 A 
ATOM      9  C   UNL d   1       2.331   3.233  -3.071  0.00  0.00     0.042 A 
ENDROOT
BRANCH   1  10
ATOM     10  N   UNL d   1       0.625   1.181  -0.362  0.00  0.00    -0.251 N 
ATOM     11  C   UNL d   1      -0.234   1.365   0.729  0.00  0.00     0.240 C 
ATOM     12  O   UNL d   1      -0.992   2.326   0.882  0.00  0.00    -0.272 OA
ATOM     13  C   UNL d   1      -0.190   0.297   1.811  0.00  0.00     0.178 C 
ATOM     14  S   UNL d   1      -0.418  -1.368   1.168  0.00  0.00    -0.150 SA
ATOM     15  C   UNL d   1       0.834  -1.254  -0.116  0.00  0.00     0.178 C 
ATOM     16  C   UNL d   1       0.562  -0.061  -1.005  0.00  0.00     0.240 C 
ATOM     17  O   UNL d   1       0.313  -0.234  -2.198  0.00  0.00    -0.272 OA
ENDBRANCH   1  10
TORSDOF 1
