REMARK  9 active torsions:
REMARK  status: ('A' for Active; 'I' for Inactive)
REMARK    1  A    between atoms: C_10  and  C_1 
REMARK    2  A    between atoms: C_14  and  N_4 
REMARK    3  A    between atoms: C_8  and  C_11 
REMARK    4  A    between atoms: C_9  and  C_12 
REMARK    5  A    between atoms: C_13  and  N_23 
REMARK    6  A    between atoms: N_16  and  C_13 
REMARK    7  A    between atoms: C_15  and  C_14 
REMARK       I    between atoms: N_24  and  C_15 
REMARK    8  A    between atoms: C_17  and  N_16 
REMARK    9  A    between atoms: N_23  and  N_24 
ROOT
ATOM      1  C   UNL d   1      -1.395   0.522   0.778  0.00  0.00     0.144 A 
ATOM      2  N   UNL d   1      -0.564   1.294   0.062  0.00  0.00    -0.268 N 
ATOM      3  HN  UNL d   1      -0.767   2.115  -0.507  1.00  0.00     0.190 HD
ATOM      4  N   UNL d   1       0.611   0.687   0.302  0.00  0.00    -0.207 N 
ATOM      5  N   UNL d   1      -0.758  -0.566   1.328  0.00  0.00    -0.266 N 
ATOM      6  HN  UNL d   1      -1.192  -1.323   1.855  1.00  0.00     0.186 HD
ATOM      7  N   UNL d   1       0.529  -0.437   1.039  0.00  0.00    -0.002 NA
ENDROOT
BRANCH   4   8
ATOM      8  C   UNL d   1       1.846   1.375   0.007  0.00  0.00     0.271 C 
BRANCH   8   9
ATOM      9  C   UNL d   1       3.088   0.530  -0.074  0.00  0.00     0.257 C 
ATOM     10  N   UNL d   1       3.136  -0.583  -0.867  0.00  0.00    -0.266 N 
ATOM     11  H   UNL d   1       4.005  -1.112  -0.830  0.00  0.00     0.190 HD
ATOM     12  O   UNL d   1       4.125   0.908   0.478  0.00  0.00    -0.270 OA
BRANCH  10  13
ATOM     13  N   UNL d   1       2.002  -1.299  -1.272  0.00  0.00    -0.273 N 
ATOM     14  H   UNL d   1       1.368  -1.561  -0.515  0.00  0.00     0.189 HD
BRANCH  13  15
ATOM     15  C   UNL d   1       2.150  -2.261  -2.253  0.00  0.00     0.191 C 
ATOM     16  S   UNL d   1       3.058  -2.078  -3.641  0.00  0.00    -0.039 SA
BRANCH  15  17
ATOM     17  N   UNL d   1       1.375  -3.378  -2.084  0.00  0.00    -0.330 N 
ATOM     18  H   UNL d   1       1.189  -3.905  -2.935  0.00  0.00     0.168 HD
BRANCH  17  19
ATOM     19  C   UNL d   1       1.154  -4.081  -0.877  0.00  0.00     0.073 A 
ATOM     20  C   UNL d   1       2.021  -4.025   0.233  0.00  0.00     0.145 A 
ATOM     21  C   UNL d   1       1.797  -4.804   1.362  0.00  0.00     0.086 A 
ATOM     22  F   UNL d   1       3.132  -3.280   0.198  0.00  0.00    -0.204 F 
ATOM     23  C   UNL d   1       0.695  -5.642   1.397  0.00  0.00     0.119 A 
ATOM     24  C   UNL d   1      -0.182  -5.717   0.316  0.00  0.00     0.044 A 
ATOM     25  F   UNL d   1       0.475  -6.401   2.476  0.00  0.00    -0.206 F 
ATOM     26  C   UNL d   1       0.060  -4.952  -0.827  0.00  0.00     0.036 A 
ENDBRANCH  17  19
ENDBRANCH  15  17
ENDBRANCH  13  15
ENDBRANCH  10  13
ENDBRANCH   8   9
ENDBRANCH   4   8
BRANCH   1  27
ATOM     27  C   UNL d   1      -2.762   0.912   1.093  0.00  0.00     0.012 A 
ATOM     28  C   UNL d   1      -3.254   2.139   0.615  0.00  0.00     0.031 A 
ATOM     29  C   UNL d   1      -4.488   2.646   1.040  0.00  0.00     0.049 A 
ATOM     30  C   UNL d   1      -5.250   1.889   1.942  0.00  0.00     0.032 A 
ATOM     31  C   UNL d   1      -4.793   0.642   2.412  0.00  0.00     0.049 A 
ATOM     32  C   UNL d   1      -3.549   0.160   1.973  0.00  0.00     0.031 A 
BRANCH  29  33
ATOM     33  C   UNL d   1      -4.955   4.009   0.586  0.00  0.00     0.417 C 
ATOM     34  F   UNL d   1      -4.121   4.604  -0.310  0.00  0.00    -0.166 F 
ATOM     35  F   UNL d   1      -6.176   3.962  -0.011  0.00  0.00    -0.166 F 
ATOM     36  F   UNL d   1      -5.076   4.881   1.623  0.00  0.00    -0.166 F 
ENDBRANCH  29  33
BRANCH  31  37
ATOM     37  C   UNL d   1      -5.616  -0.123   3.422  0.00  0.00     0.417 C 
ATOM     38  F   UNL d   1      -5.077  -1.325   3.764  0.00  0.00    -0.166 F 
ATOM     39  F   UNL d   1      -5.776   0.563   4.586  0.00  0.00    -0.166 F 
ATOM     40  F   UNL d   1      -6.872  -0.392   2.968  0.00  0.00    -0.166 F 
ENDBRANCH  31  37
ENDBRANCH   1  27
TORSDOF 9
