REMARK  6 active torsions:
REMARK  status: ('A' for Active; 'I' for Inactive)
REMARK    1  A    between atoms: N_2  and  C_1 
REMARK    2  A    between atoms: C_11  and  N_2 
REMARK    3  A    between atoms: C_4  and  C_5 
REMARK    4  A    between atoms: C_16  and  N_8 
REMARK    5  A    between atoms: C_12  and  C_13 
REMARK    6  A    between atoms: C_13  and  C_16 
ROOT
ATOM      1  C   UNL d   1      -0.875   1.092  -0.344  0.00  0.00     0.172 C 
ATOM      2  S   UNL d   1      -2.390   1.264  -1.035  0.00  0.00    -0.041 SA
ATOM      3  N   UNL d   1      -0.773   1.250   1.006  0.00  0.00    -0.367 N 
ATOM      4  H   UNL d   1      -1.664   1.416   1.466  0.00  0.00     0.161 HD
ENDROOT
BRANCH   1   5
ATOM      5  N   UNL d   1       0.283   0.736  -0.984  0.00  0.00    -0.333 N 
ATOM      6  H   UNL d   1       0.814   0.019  -0.505  0.00  0.00     0.168 HD
BRANCH   5   7
ATOM      7  C   UNL d   1       0.705   1.069  -2.282  0.00  0.00     0.034 A 
ATOM      8  C   UNL d   1       0.334   2.256  -2.907  0.00  0.00     0.030 A 
ATOM      9  C   UNL d   1       0.915   2.632  -4.121  0.00  0.00     0.010 A 
ATOM     10  C   UNL d   1       1.884   1.829  -4.758  0.00  0.00    -0.051 A 
ATOM     11  C   UNL d   1       2.204   0.609  -4.141  0.00  0.00     0.010 A 
ATOM     12  C   UNL d   1       1.639   0.242  -2.913  0.00  0.00     0.030 A 
BRANCH  10  13
ATOM     13  C   UNL d   1       2.589   2.334  -6.027  0.00  0.00    -0.024 C 
ATOM     14  C   UNL d   1       3.607   1.332  -6.618  0.00  0.00     0.019 C 
ATOM     15  C   UNL d   1       1.561   2.648  -7.134  0.00  0.00     0.019 C 
ATOM     16  C   UNL d   1       3.371   3.624  -5.683  0.00  0.00     0.019 C 
ENDBRANCH  10  13
ENDBRANCH   5   7
ENDBRANCH   1   5
BRANCH   3  17
ATOM     17  C   UNL d   1       0.430   1.585   1.765  0.00  0.00     0.128 C 
BRANCH  17  18
ATOM     18  C   UNL d   1       0.284   2.939   2.465  0.00  0.00     0.076 C 
BRANCH  18  19
ATOM     19  C   UNL d   1       1.553   3.292   3.195  0.00  0.00     0.010 A 
ATOM     20  N   UNL d   1       1.675   2.834   4.465  0.00  0.00    -0.369 N 
ATOM     21  C   UNL d   1       2.836   3.091   5.107  0.00  0.00     0.088 A 
ATOM     22  HN  UNL d   1       0.921   2.317   4.917  1.00  0.00     0.165 HD
ATOM     23  C   UNL d   1       3.897   3.773   4.537  0.00  0.00     0.017 A 
ATOM     24  C   UNL d   1       3.755   4.236   3.235  0.00  0.00     0.003 A 
ATOM     25  C   UNL d   1       2.567   3.998   2.552  0.00  0.00     0.025 A 
ENDBRANCH  18  19
ENDBRANCH  17  18
ENDBRANCH   3  17
TORSDOF 6
