REMARK  9 active torsions:
REMARK  status: ('A' for Active; 'I' for Inactive)
REMARK    1  A    between atoms: C_10  and  C_1 
REMARK    2  A    between atoms: N_4  and  C_2 
REMARK    3  A    between atoms: C_7  and  C_11 
REMARK    4  A    between atoms: C_8  and  N_14 
REMARK    5  A    between atoms: O_25  and  C_10 
REMARK    6  A    between atoms: N_14  and  C_18 
REMARK    7  A    between atoms: C_18  and  C_26 
REMARK    8  A    between atoms: C_27  and  O_25 
REMARK    9  A    between atoms: C_26  and  C_27 
ROOT
ATOM      1  C   UNL d   1      -7.754  -2.966  -0.424  0.00  0.00     0.025 C 
ATOM      2  C   UNL d   1      -7.962  -4.170   0.534  0.00  0.00     0.038 C 
ATOM      3  C   UNL d   1      -9.085  -2.185  -0.395  0.00  0.00     0.038 C 
ENDROOT
BRANCH   1   4
ATOM      4  N   UNL d   1      -7.471  -3.528  -1.770  0.00  0.00    -0.379 N 
ATOM      5  H   UNL d   1      -7.735  -4.522  -1.805  0.00  0.00     0.160 HD
BRANCH   4   6
ATOM      6  C   UNL d   1      -7.719  -2.917  -3.006  0.00  0.00     0.062 A 
ATOM      7  C   UNL d   1      -7.993  -3.651  -4.192  0.00  0.00     0.130 A 
ATOM      8  C   UNL d   1      -8.189  -3.011  -5.441  0.00  0.00     0.054 A 
ATOM      9  C   UNL d   1      -8.108  -1.620  -5.552  0.00  0.00     0.050 A 
ATOM     10  C   UNL d   1      -7.812  -0.887  -4.402  0.00  0.00     0.018 A 
ATOM     11  C   UNL d   1      -7.599  -1.528  -3.172  0.00  0.00     0.032 A 
BRANCH   7  12
ATOM     12  N   UNL d   1      -8.136  -5.121  -4.177  0.00  0.00    -0.113 N 
ATOM     13  O   UNL d   1      -8.247  -5.691  -3.081  0.00  0.00    -0.532 OA
ATOM     14  O   UNL d   1      -8.161  -5.710  -5.269  0.00  0.00    -0.532 OA
ENDBRANCH   7  12
BRANCH   9  15
ATOM     15  C   UNL d   1      -8.336  -0.912  -6.866  0.00  0.00     0.417 C 
ATOM     16  F   UNL d   1      -8.525  -1.761  -7.913  0.00  0.00    -0.166 F 
ATOM     17  F   UNL d   1      -9.433  -0.106  -6.835  0.00  0.00    -0.166 F 
ATOM     18  F   UNL d   1      -7.292  -0.113  -7.215  0.00  0.00    -0.166 F 
ENDBRANCH   9  15
ENDBRANCH   4   6
ENDBRANCH   1   4
BRANCH   1  19
ATOM     19  C   UNL d   1      -6.578  -2.098   0.099  0.00  0.00     0.057 C 
BRANCH  19  20
ATOM     20  C   UNL d   1      -5.243  -2.834   0.259  0.00  0.00     0.181 C 
BRANCH  20  21
ATOM     21  O   UNL d   1      -4.269  -1.939   0.844  0.00  0.00    -0.317 OA
BRANCH  21  22
ATOM     22  C   UNL d   1      -3.793  -2.261   2.072  0.00  0.00     0.299 C 
ATOM     23  O   UNL d   1      -4.126  -3.251   2.714  0.00  0.00    -0.259 OA
BRANCH  22  24
ATOM     24  C   UNL d   1      -2.769  -1.301   2.558  0.00  0.00     0.115 A 
ATOM     25  C   UNL d   1      -2.630   0.075   2.034  0.00  0.00     0.304 A 
ATOM     26  O   UNL d   1      -1.586   0.844   2.561  0.00  0.00    -0.274 OA
ATOM     27  O   UNL d   1      -3.382   0.559   1.199  0.00  0.00    -0.259 OA
ATOM     28  C   UNL d   1      -0.777   0.386   3.614  0.00  0.00     0.089 A 
ATOM     29  C   UNL d   1      -0.951  -0.893   4.129  0.00  0.00    -0.001 A 
ATOM     30  C   UNL d   1       0.179   1.259   4.128  0.00  0.00     0.038 A 
ATOM     31  C   UNL d   1      -1.972  -1.747   3.546  0.00  0.00     0.038 A 
ATOM     32  C   UNL d   1      -0.146  -1.307   5.194  0.00  0.00     0.014 A 
ATOM     33  C   UNL d   1       0.814  -0.439   5.725  0.00  0.00     0.001 A 
ATOM     34  C   UNL d   1       0.977   0.842   5.192  0.00  0.00     0.003 A 
ENDBRANCH  22  24
ENDBRANCH  21  22
ENDBRANCH  20  21
ENDBRANCH  19  20
ENDBRANCH   1  19
TORSDOF 9
