REMARK  4 active torsions:
REMARK  status: ('A' for Active; 'I' for Inactive)
REMARK    1  A    between atoms: C_17  and  C_3 
REMARK    2  A    between atoms: N_12  and  C_6 
REMARK    3  A    between atoms: C_22  and  N_12 
REMARK    4  A    between atoms: C_21  and  C_22 
ROOT
ATOM      1  S   UNL d   1       1.733  -0.785   0.017  0.00  0.00    -0.084 SA
ATOM      2  C   UNL d   1       0.037  -0.525   0.017  0.00  0.00     0.076 A 
ATOM      3  C   UNL d   1       2.090   0.896  -0.016  0.00  0.00     0.018 A 
ATOM      4  C   UNL d   1       0.920   1.634  -0.063  0.00  0.00     0.050 A 
ATOM      5  C   UNL d   1      -0.258   0.830  -0.049  0.00  0.00     0.055 A 
ATOM      6  C   UNL d   1      -1.005  -1.460   0.068  0.00  0.00     0.121 A 
ATOM      7  N   UNL d   1      -2.269  -0.985   0.022  0.00  0.00    -0.338 N 
ATOM      8  HN  UNL d   1      -3.064  -1.624   0.034  1.00  0.00     0.168 HD
ATOM      9  N   UNL d   1      -1.528   1.301  -0.077  0.00  0.00    -0.351 N 
ATOM     10  HN  UNL d   1      -1.752   2.295  -0.122  1.00  0.00     0.166 HD
ATOM     11  C   UNL d   1      -2.459   0.342  -0.040  0.00  0.00     0.182 A 
ENDROOT
BRANCH   6  12
ATOM     12  N   UNL d   1      -0.763  -2.818   0.234  0.00  0.00    -0.371 N 
ATOM     13  H   UNL d   1       0.213  -3.072   0.125  0.00  0.00     0.161 HD
BRANCH  12  14
ATOM     14  C   UNL d   1      -1.698  -3.758  -0.354  0.00  0.00     0.160 C 
BRANCH  14  15
ATOM     15  C   UNL d   1      -1.644  -5.053   0.428  0.00  0.00    -0.038 A 
ATOM     16  C   UNL d   1      -1.265  -6.261  -0.179  0.00  0.00     0.048 A 
ATOM     17  C   UNL d   1      -1.258  -7.404   0.598  0.00  0.00     0.105 A 
ATOM     18  O   UNL d   1      -0.919  -8.651   0.173  0.00  0.00    -0.323 OA
ATOM     19  C   UNL d   1      -1.610  -7.383   1.927  0.00  0.00     0.105 A 
ATOM     20  C   UNL d   1      -1.079  -9.406   1.393  0.00  0.00     0.352 A 
ATOM     21  O   UNL d   1      -1.537  -8.611   2.505  0.00  0.00    -0.323 OA
ATOM     22  C   UNL d   1      -1.990  -6.221   2.558  0.00  0.00     0.040 A 
ATOM     23  C   UNL d   1      -2.006  -5.049   1.799  0.00  0.00     0.012 A 
ENDBRANCH  14  15
ENDBRANCH  12  14
ENDBRANCH   6  12
BRANCH   3  24
ATOM     24  C   UNL d   1       3.488   1.368  -0.014  0.00  0.00    -0.019 A 
ATOM     25  C   UNL d   1       3.828   2.580  -0.638  0.00  0.00     0.013 A 
ATOM     26  C   UNL d   1       5.146   3.049  -0.631  0.00  0.00     0.001 A 
ATOM     27  C   UNL d   1       6.147   2.313  -0.002  0.00  0.00     0.000 A 
ATOM     28  C   UNL d   1       5.832   1.111   0.621  0.00  0.00     0.001 A 
ATOM     29  C   UNL d   1       4.514   0.644   0.618  0.00  0.00     0.013 A 
ENDBRANCH   3  24
TORSDOF 4
