REMARK  4 active torsions:
REMARK  status: ('A' for Active; 'I' for Inactive)
REMARK    1  A    between atoms: N_12  and  C_6 
REMARK    2  A    between atoms: C_16  and  N_12 
REMARK    3  A    between atoms: O_15  and  C_17 
REMARK    4  A    between atoms: C_17  and  C_16 
ROOT
ATOM      1  C   UNL d   1       1.169   0.596  -0.028  0.00  0.00     0.089 A 
ATOM      2  C   UNL d   1       0.612  -0.678   0.030  0.00  0.00     0.043 A 
ATOM      3  S   UNL d   1       0.018   1.847  -0.024  0.00  0.00    -0.075 SA
ATOM      4  C   UNL d   1      -0.840  -0.581   0.032  0.00  0.00    -0.029 A 
ATOM      5  C   UNL d   1      -1.263   0.738   0.035  0.00  0.00    -0.008 A 
ATOM      6  C   UNL d   1       1.552  -1.739   0.081  0.00  0.00     0.094 A 
ATOM      7  N   UNL d   1       2.473   0.919  -0.073  0.00  0.00    -0.346 N 
ATOM      8  HN  UNL d   1       2.821   1.878  -0.106  1.00  0.00     0.167 HD
ATOM      9  N   UNL d   1       2.874  -1.433   0.000  0.00  0.00    -0.342 N 
ATOM     10  HN  UNL d   1       3.573  -2.176  -0.006  1.00  0.00     0.167 HD
ATOM     11  C   UNL d   1       3.254  -0.153  -0.071  0.00  0.00     0.182 A 
ATOM     12  C   UNL d   1      -1.841  -1.707   0.046  0.00  0.00     0.041 C 
ATOM     13  C   UNL d   1      -2.684   1.211   0.042  0.00  0.00     0.047 C 
ATOM     14  C   UNL d   1      -3.271  -1.226  -0.270  0.00  0.00     0.005 C 
ATOM     15  C   UNL d   1      -3.619   0.075   0.468  0.00  0.00     0.005 C 
ENDROOT
BRANCH   6  16
ATOM     16  N   UNL d   1       1.202  -3.086   0.236  0.00  0.00    -0.276 NA
ATOM     17  H   UNL d   1       0.345  -3.183   0.773  0.00  0.00     0.129 HD
BRANCH  16  18
ATOM     18  C   UNL d   1       2.267  -3.959   0.755  0.00  0.00     0.119 C 
BRANCH  18  19
ATOM     19  C   UNL d   1       2.589  -3.662   2.228  0.00  0.00     0.178 C 
BRANCH  19  20
ATOM     20  O   UNL d   1       1.436  -3.896   3.039  0.00  0.00    -0.400 OA
ATOM     21  H   UNL d   1       1.675  -3.621   3.942  0.00  0.00     0.209 HD
ENDBRANCH  19  20
ENDBRANCH  18  19
ENDBRANCH  16  18
ENDBRANCH   6  16
TORSDOF 4
