REMARK  8 active torsions:
REMARK  status: ('A' for Active; 'I' for Inactive)
REMARK    1  A    between atoms: O_4  and  C_1 
REMARK    2  A    between atoms: C_2  and  C_3 
REMARK       I    between atoms: N_8  and  C_2 
REMARK    3  A    between atoms: C_7  and  O_4 
REMARK    4  A    between atoms: C_24  and  N_8 
REMARK    5  A    between atoms: C_13  and  C_23 
REMARK    6  A    between atoms: S_15  and  C_25 
REMARK    7  A    between atoms: C_23  and  S_15 
REMARK    8  A    between atoms: C_25  and  C_24 
ROOT
ATOM      1  C   UNL d   1       4.001  -2.882   0.232  0.00  0.00     0.251 C 
ATOM      2  O   UNL d   1       4.211  -3.268  -0.915  0.00  0.00    -0.268 OA
ATOM      3  N   UNL d   1       4.976  -2.819   1.203  0.00  0.00    -0.356 N 
ATOM      4  H   UNL d   1       4.817  -2.231   2.015  0.00  0.00     0.162 HD
ENDROOT
BRANCH   1   5
ATOM      5  C   UNL d   1       2.654  -2.399   0.630  0.00  0.00     0.034 A 
ATOM      6  C   UNL d   1       2.236  -2.455   1.967  0.00  0.00     0.054 A 
ATOM      7  C   UNL d   1       1.037  -1.858   2.350  0.00  0.00     0.079 A 
ATOM      8  C   UNL d   1       0.190  -1.334   1.370  0.00  0.00     0.037 A 
ATOM      9  C   UNL d   1       0.566  -1.341   0.025  0.00  0.00     0.004 A 
ATOM     10  C   UNL d   1       1.807  -1.857  -0.344  0.00  0.00     0.017 A 
BRANCH   7  11
ATOM     11  O   UNL d   1       0.585  -1.750   3.631  0.00  0.00    -0.255 OA
BRANCH  11  12
ATOM     12  C   UNL d   1       1.540  -1.644   4.682  0.00  0.00     0.530 C 
ATOM     13  F   UNL d   1       2.795  -1.373   4.260  0.00  0.00    -0.144 F 
ATOM     14  F   UNL d   1       1.559  -2.794   5.388  0.00  0.00    -0.144 F 
ATOM     15  F   UNL d   1       1.163  -0.643   5.508  0.00  0.00    -0.144 F 
ENDBRANCH  11  12
ENDBRANCH   7  11
ENDBRANCH   1   5
BRANCH   3  16
ATOM     16  C   UNL d   1       6.361  -3.153   0.927  0.00  0.00     0.133 C 
BRANCH  16  17
ATOM     17  C   UNL d   1       7.166  -1.966   0.386  0.00  0.00     0.093 C 
BRANCH  17  18
ATOM     18  S   UNL d   1       7.239  -0.624   1.627  0.00  0.00    -0.163 SA
BRANCH  18  19
ATOM     19  C   UNL d   1       8.246   0.573   0.696  0.00  0.00     0.112 C 
BRANCH  19  20
ATOM     20  C   UNL d   1       8.467   1.829   1.506  0.00  0.00    -0.049 A 
ATOM     21  C   UNL d   1       9.562   1.929   2.381  0.00  0.00     0.011 A 
ATOM     22  C   UNL d   1       9.743   3.074   3.159  0.00  0.00     0.043 A 
ATOM     23  C   UNL d   1       8.829   4.117   3.067  0.00  0.00     0.116 A 
ATOM     24  C   UNL d   1       7.737   4.038   2.211  0.00  0.00     0.043 A 
ATOM     25  F   UNL d   1       8.999   5.212   3.820  0.00  0.00    -0.206 F 
ATOM     26  C   UNL d   1       7.554   2.894   1.432  0.00  0.00     0.011 A 
ENDBRANCH  19  20
ENDBRANCH  18  19
ENDBRANCH  17  18
ENDBRANCH  16  17
ENDBRANCH   3  16
TORSDOF 8
