REMARK  4 active torsions:
REMARK  status: ('A' for Active; 'I' for Inactive)
REMARK    1  A    between atoms: N_2  and  S_1 
REMARK    2  A    between atoms: C_8  and  S_1 
REMARK    3  A    between atoms: N_5  and  C_4 
REMARK    4  A    between atoms: S_9  and  C_4 
ROOT
ATOM      1  N   UNL d   1       0.519  -0.997  -1.690  0.00  0.00    -0.260 N 
ATOM      2  HN  UNL d   1       1.054  -0.665  -0.887  1.00  0.00     0.181 HD
ATOM      3  C   UNL d   1       0.706  -0.418  -2.835  0.00  0.00     0.151 C 
ENDROOT
BRANCH   1   4
ATOM      4  S   UNL d   1      -0.514  -2.213  -1.469  0.00  0.00     0.264 S 
ATOM      5  O   UNL d   1       0.005  -3.429  -2.065  0.00  0.00    -0.200 OA
ATOM      6  O   UNL d   1      -1.867  -1.767  -1.745  0.00  0.00    -0.200 OA
BRANCH   4   7
ATOM      7  C   UNL d   1      -0.443  -2.502   0.294  0.00  0.00     0.079 A 
ATOM      8  C   UNL d   1      -1.615  -2.466   1.056  0.00  0.00     0.025 A 
ATOM      9  C   UNL d   1      -1.552  -2.738   2.423  0.00  0.00     0.002 A 
ATOM     10  C   UNL d   1      -0.327  -3.041   3.019  0.00  0.00     0.000 A 
ATOM     11  C   UNL d   1       0.842  -3.070   2.254  0.00  0.00     0.002 A 
ATOM     12  C   UNL d   1       0.788  -2.800   0.886  0.00  0.00     0.025 A 
ENDBRANCH   4   7
ENDBRANCH   1   4
BRANCH   3  13
ATOM     13  N   UNL d   1       1.554   0.678  -2.941  0.00  0.00    -0.361 N 
ATOM     14  C   UNL d   1       2.215   1.260  -1.771  0.00  0.00     0.125 C 
ATOM     15  C   UNL d   1       2.195   2.760  -2.035  0.00  0.00     0.021 C 
ATOM     16  C   UNL d   1       2.361   2.832  -3.540  0.00  0.00     0.021 C 
ATOM     17  C   UNL d   1       1.530   1.652  -4.037  0.00  0.00     0.125 C 
ENDBRANCH   3  13
BRANCH   3  18
ATOM     18  S   UNL d   1      -0.078  -0.929  -4.337  0.00  0.00    -0.098 SA
ATOM     19  C   UNL d   1       1.141  -2.139  -4.893  0.00  0.00     0.099 C 
ENDBRANCH   3  18
TORSDOF 4
