REMARK  6 active torsions:
REMARK  status: ('A' for Active; 'I' for Inactive)
REMARK    1  A    between atoms: C_3  and  C_1 
REMARK       I    between atoms: N_5  and  C_3 
REMARK    2  A    between atoms: C_4  and  N_7 
REMARK    3  A    between atoms: N_9  and  C_4 
REMARK    4  A    between atoms: N_7  and  N_5 
REMARK    5  A    between atoms: C_12  and  N_9 
REMARK    6  A    between atoms: C_14  and  C_12 
ROOT
ATOM      1  N   UNL d   1       2.212  -2.460  -1.943  0.00  0.00    -0.274 N 
ATOM      2  H   UNL d   1       2.294  -2.368  -0.936  0.00  0.00     0.189 HD
ENDROOT
BRANCH   1   3
ATOM      3  C   UNL d   1       3.374  -2.521  -2.672  0.00  0.00     0.186 C 
ATOM      4  S   UNL d   1       3.636  -1.872  -4.190  0.00  0.00    -0.040 SA
BRANCH   3   5
ATOM      5  N   UNL d   1       4.399  -3.211  -2.078  0.00  0.00    -0.362 N 
ATOM      6  H   UNL d   1       5.219  -3.291  -2.664  0.00  0.00     0.162 HD
BRANCH   5   7
ATOM      7  C   UNL d   1       4.265  -4.188  -1.009  0.00  0.00     0.160 C 
BRANCH   7   8
ATOM      8  C   UNL d   1       4.347  -3.546   0.351  0.00  0.00    -0.041 A 
ATOM      9  C   UNL d   1       3.274  -3.628   1.251  0.00  0.00     0.009 A 
ATOM     10  C   UNL d   1       3.345  -2.997   2.494  0.00  0.00     0.001 A 
ATOM     11  C   UNL d   1       4.490  -2.290   2.854  0.00  0.00     0.000 A 
ATOM     12  C   UNL d   1       5.571  -2.220   1.977  0.00  0.00     0.001 A 
ATOM     13  C   UNL d   1       5.501  -2.846   0.734  0.00  0.00     0.009 A 
ENDBRANCH   7   8
ENDBRANCH   5   7
ENDBRANCH   3   5
ENDBRANCH   1   3
BRANCH   1  14
ATOM     14  N   UNL d   1       0.971  -2.135  -2.514  0.00  0.00    -0.267 N 
ATOM     15  C   UNL d   1       0.351  -3.113  -3.289  0.00  0.00     0.249 C 
ATOM     16  O   UNL d   1       0.921  -4.117  -3.704  0.00  0.00    -0.271 OA
ATOM     17  H   UNL d   1       0.389  -1.476  -1.995  0.00  0.00     0.190 HD
BRANCH  15  18
ATOM     18  C   UNL d   1      -1.113  -2.819  -3.599  0.00  0.00     0.171 C 
ATOM     19  C   UNL d   1      -1.894  -2.613  -2.315  0.00  0.00     0.230 C 
ATOM     20  N   UNL d   1      -2.649  -3.645  -1.835  0.00  0.00    -0.360 N 
ATOM     21  O   UNL d   1      -1.763  -1.587  -1.651  0.00  0.00    -0.273 OA
ATOM     22  C   UNL d   1      -3.007  -4.837  -2.571  0.00  0.00     0.122 C 
ATOM     23  H   UNL d   1      -3.160  -3.427  -0.986  0.00  0.00     0.162 HD
ATOM     24  C   UNL d   1      -2.022  -5.163  -3.678  0.00  0.00     0.021 C 
ATOM     25  C   UNL d   1      -1.740  -3.901  -4.487  0.00  0.00     0.025 C 
ENDBRANCH  15  18
ENDBRANCH   1  14
TORSDOF 6
