REMARK  6 active torsions:
REMARK  status: ('A' for Active; 'I' for Inactive)
REMARK    1  A    between atoms: C_6  and  N_1 
REMARK    2  A    between atoms: C_2  and  C_9 
REMARK    3  A    between atoms: C_11  and  C_3 
REMARK    4  A    between atoms: O_20  and  C_8 
REMARK    5  A    between atoms: O_21  and  C_12 
REMARK    6  A    between atoms: C_22  and  O_20 
ROOT
ATOM      1  C   UNL d   1      -2.740   5.063  -4.068  0.00  0.00     0.055 C 
ATOM      2  C   UNL d   1      -2.826   3.958  -3.294  0.00  0.00     0.035 C 
ATOM      3  C   UNL d   1      -3.031   6.366  -3.520  0.00  0.00     0.100 C 
ATOM      4  N   UNL d   1      -3.254   7.419  -3.073  0.00  0.00    -0.191 NA
ENDROOT
BRANCH   1   5
ATOM      5  C   UNL d   1      -2.288   4.926  -5.493  0.00  0.00    -0.015 A 
ATOM      6  C   UNL d   1      -2.550   3.772  -6.266  0.00  0.00     0.015 A 
ATOM      7  C   UNL d   1      -2.110   3.654  -7.595  0.00  0.00     0.037 A 
ATOM      8  C   UNL d   1      -1.403   4.705  -8.182  0.00  0.00     0.102 A 
ATOM      9  C   UNL d   1      -1.141   5.867  -7.449  0.00  0.00     0.037 A 
ATOM     10  C   UNL d   1      -1.581   5.970  -6.119  0.00  0.00     0.015 A 
BRANCH   8  11
ATOM     11  N   UNL d   1      -0.931   4.590  -9.570  0.00  0.00    -0.116 N 
ATOM     12  O   UNL d   1      -0.303   5.546 -10.047  0.00  0.00    -0.532 OA
ATOM     13  O   UNL d   1      -1.187   3.541 -10.180  0.00  0.00    -0.532 OA
ENDBRANCH   8  11
ENDBRANCH   1   5
BRANCH   2  14
ATOM     14  C   UNL d   1      -3.224   3.947  -1.885  0.00  0.00    -0.032 A 
ATOM     15  C   UNL d   1      -2.243   4.038  -0.892  0.00  0.00     0.051 A 
ATOM     16  C   UNL d   1      -2.593   3.946   0.458  0.00  0.00     0.102 A 
ATOM     17  C   UNL d   1      -3.947   3.853   0.804  0.00  0.00     0.099 A 
ATOM     18  C   UNL d   1      -4.934   3.792  -0.180  0.00  0.00     0.040 A 
ATOM     19  C   UNL d   1      -4.569   3.820  -1.527  0.00  0.00     0.014 A 
BRANCH  16  20
ATOM     20  O   UNL d   1      -1.682   3.945   1.482  0.00  0.00    -0.349 OA
BRANCH  20  21
ATOM     21  C   UNL d   1      -0.380   3.461   1.151  0.00  0.00     0.171 C 
ATOM     22  C   UNL d   1       0.244   2.859   2.394  0.00  0.00     0.034 C 
ENDBRANCH  20  21
ENDBRANCH  16  20
BRANCH  17  23
ATOM     23  O   UNL d   1      -4.298   3.793   2.125  0.00  0.00    -0.358 OA
ATOM     24  H   UNL d   1      -5.263   3.836   2.201  0.00  0.00     0.217 HD
ENDBRANCH  17  23
ENDBRANCH   2  14
TORSDOF 6
