REMARK  5 active torsions:
REMARK  status: ('A' for Active; 'I' for Inactive)
REMARK    1  A    between atoms: C_7  and  C_1 
REMARK    2  A    between atoms: C_11  and  N_2 
REMARK    3  A    between atoms: C_8  and  C_5 
REMARK       I    between atoms: C_9  and  N_14 
REMARK       I    between atoms: N_10  and  C_9 
REMARK    4  A    between atoms: C_12  and  N_10 
REMARK    5  A    between atoms: N_14  and  C_27 
ROOT
ATOM      1  C   UNL d   1       2.067   1.392   0.538  0.00  0.00     0.057 A 
ATOM      2  C   UNL d   1       3.233   0.907  -0.056  0.00  0.00     0.034 A 
ATOM      3  C   UNL d   1       2.044   2.717   1.008  0.00  0.00     0.034 A 
ATOM      4  C   UNL d   1       4.291   3.089   0.206  0.00  0.00     0.036 A 
ATOM      5  C   UNL d   1       4.337   1.752  -0.211  0.00  0.00     0.032 A 
ATOM      6  C   UNL d   1       3.151   3.556   0.850  0.00  0.00     0.032 A 
ENDROOT
BRANCH   1   7
ATOM      7  N   UNL d   1       0.861   0.635   0.576  0.00  0.00    -0.251 N 
ATOM      8  C   UNL d   1       0.621  -0.718   0.458  0.00  0.00     0.142 C 
ATOM      9  C   UNL d   1      -0.727  -0.849   0.174  0.00  0.00     0.072 C 
ATOM     10  C   UNL d   1      -1.267   0.453   0.265  0.00  0.00     0.134 C 
ATOM     11  N   UNL d   1      -0.314   1.321   0.635  0.00  0.00    -0.289 N 
ATOM     12  HN  UNL d   1      -0.443   2.296   0.906  1.00  0.00     0.187 HD
BRANCH   8  13
ATOM     13  C   UNL d   1       1.633  -1.765   0.647  0.00  0.00     0.434 C 
ATOM     14  F   UNL d   1       2.627  -1.415   1.496  0.00  0.00    -0.165 F 
ATOM     15  F   UNL d   1       1.076  -2.894   1.158  0.00  0.00    -0.165 F 
ATOM     16  F   UNL d   1       2.208  -2.122  -0.528  0.00  0.00    -0.165 F 
ENDBRANCH   8  13
BRANCH  10  17
ATOM     17  C   UNL d   1      -2.699   0.853   0.025  0.00  0.00     0.434 C 
ATOM     18  F   UNL d   1      -2.915   2.192   0.106  0.00  0.00    -0.165 F 
ATOM     19  F   UNL d   1      -3.118   0.465  -1.210  0.00  0.00    -0.165 F 
ATOM     20  F   UNL d   1      -3.539   0.262   0.917  0.00  0.00    -0.165 F 
ENDBRANCH  10  17
ENDBRANCH   1   7
BRANCH   4  21
ATOM     21  N   UNL d   1       5.403   3.888  -0.109  0.00  0.00    -0.309 N 
ATOM     22  C   UNL d   1       5.532   5.240  -0.020  0.00  0.00     0.325 C 
ATOM     23  N   UNL d   1       6.712   5.792  -0.441  0.00  0.00    -0.306 N 
ATOM     24  O   UNL d   1       4.706   6.010   0.467  0.00  0.00    -0.247 OA
ATOM     25  H   UNL d   1       6.747   6.762  -0.146  0.00  0.00     0.171 HD
ATOM     26  H   UNL d   1       6.142   3.409  -0.597  0.00  0.00     0.170 HD
BRANCH  23  27
ATOM     27  C   UNL d   1       7.848   5.300  -1.117  0.00  0.00     0.075 A 
ATOM     28  C   UNL d   1       7.915   4.124  -1.879  0.00  0.00     0.146 A 
ATOM     29  C   UNL d   1       9.099   3.698  -2.471  0.00  0.00     0.086 A 
ATOM     30  F   UNL d   1       6.828   3.369  -2.090  0.00  0.00    -0.204 F 
ATOM     31  C   UNL d   1      10.241   4.465  -2.317  0.00  0.00     0.119 A 
ATOM     32  C   UNL d   1      10.205   5.658  -1.608  0.00  0.00     0.044 A 
ATOM     33  F   UNL d   1      11.391   4.052  -2.862  0.00  0.00    -0.206 F 
ATOM     34  C   UNL d   1       9.008   6.083  -1.022  0.00  0.00     0.036 A 
ENDBRANCH  23  27
ENDBRANCH   4  21
TORSDOF 5
