REMARK  8 active torsions:
REMARK  status: ('A' for Active; 'I' for Inactive)
REMARK    1  A    between atoms: C_4  and  C_1 
REMARK    2  A    between atoms: N_6  and  C_2 
REMARK    3  A    between atoms: O_15  and  C_4 
REMARK       I    between atoms: C_9  and  N_6 
REMARK    4  A    between atoms: O_16  and  C_7 
REMARK    5  A    between atoms: O_17  and  C_8 
REMARK    6  A    between atoms: C_13  and  C_9 
REMARK    7  A    between atoms: S_11  and  C_13 
REMARK    8  A    between atoms: C_14  and  S_11 
ROOT
ATOM      1  C   UNL d   1       1.452  -0.220   0.088  0.00  0.00     0.069 A 
ATOM      2  C   UNL d   1       0.633  -1.358   0.045  0.00  0.00     0.053 A 
ATOM      3  C   UNL d   1       0.851   1.050   0.100  0.00  0.00     0.059 A 
ATOM      4  C   UNL d   1      -0.766  -1.199   0.064  0.00  0.00     0.070 A 
ATOM      5  C   UNL d   1      -0.541   1.204   0.096  0.00  0.00     0.102 A 
ATOM      6  C   UNL d   1      -1.365   0.070   0.053  0.00  0.00     0.103 A 
ENDROOT
BRANCH   2   7
ATOM      7  N   UNL d   1       1.087  -2.694  -0.039  0.00  0.00    -0.325 N 
ATOM      8  C   UNL d   1       2.040  -3.121  -0.948  0.00  0.00     0.231 C 
ATOM      9  O   UNL d   1       2.634  -2.381  -1.730  0.00  0.00    -0.272 OA
ATOM     10  H   UNL d   1       0.441  -3.426   0.241  0.00  0.00     0.169 HD
BRANCH   8  11
ATOM     11  C   UNL d   1       2.338  -4.618  -0.916  0.00  0.00     0.182 C 
BRANCH  11  12
ATOM     12  S   UNL d   1       0.907  -5.612  -0.342  0.00  0.00    -0.121 SA
BRANCH  12  13
ATOM     13  C   UNL d   1       1.639  -7.229  -0.130  0.00  0.00     0.001 A 
ATOM     14  C   UNL d   1       1.170  -8.032   0.917  0.00  0.00     0.019 A 
ATOM     15  C   UNL d   1       1.706  -9.305   1.139  0.00  0.00     0.008 A 
ATOM     16  C   UNL d   1       2.719  -9.801   0.311  0.00  0.00    -0.062 A 
ATOM     17  C   UNL d   1       3.162  -9.016  -0.757  0.00  0.00     0.008 A 
ATOM     18  C   UNL d   1       3.322 -11.147   0.586  0.00  0.00     0.048 C 
ATOM     19  C   UNL d   1       2.623  -7.743  -0.978  0.00  0.00     0.019 A 
ENDBRANCH  12  13
ENDBRANCH  11  12
ENDBRANCH   8  11
ENDBRANCH   2   7
BRANCH   1  20
ATOM     20  C   UNL d   1       2.930  -0.218   0.247  0.00  0.00     0.295 C 
ATOM     21  O   UNL d   1       3.646   0.681  -0.159  0.00  0.00    -0.259 OA
BRANCH  20  22
ATOM     22  O   UNL d   1       3.323  -1.241   1.054  0.00  0.00    -0.322 OA
ATOM     23  C   UNL d   1       4.717  -1.229   1.366  0.00  0.00     0.213 C 
ENDBRANCH  20  22
ENDBRANCH   1  20
BRANCH   6  24
ATOM     24  O   UNL d   1      -2.716   0.266  -0.030  0.00  0.00    -0.353 OA
ATOM     25  C   UNL d   1      -3.556  -0.861  -0.245  0.00  0.00     0.210 C 
ENDBRANCH   6  24
BRANCH   5  26
ATOM     26  O   UNL d   1      -0.936   2.517   0.098  0.00  0.00    -0.353 OA
ATOM     27  C   UNL d   1      -2.187   2.816   0.706  0.00  0.00     0.210 C 
ENDBRANCH   5  26
TORSDOF 8
