REMARK  3 active torsions:
REMARK  status: ('A' for Active; 'I' for Inactive)
REMARK    1  A    between atoms: O_2  and  S_1 
REMARK    2  A    between atoms: C_7  and  S_1 
REMARK    3  A    between atoms: N_4  and  O_2 
ROOT
ATOM      1  C   UNL d   1      -0.528  -3.491  -2.287  0.00  0.00     0.008 A 
ATOM      2  N   UNL d   1       0.706  -1.432  -2.225  0.00  0.00    -0.252 N 
ATOM      3  HN  UNL d   1       0.510  -1.355  -1.226  1.00  0.00     0.195 HD
ATOM      4  C   UNL d   1       0.273  -2.415  -2.958  0.00  0.00     0.045 C 
ATOM      5  C   UNL d   1      -1.232  -4.466  -3.014  0.00  0.00     0.013 A 
ATOM      6  S   UNL d   1      -1.292  -4.552  -4.794  0.00  0.00    -0.129 SA
ATOM      7  C   UNL d   1      -0.557  -3.517  -0.883  0.00  0.00     0.057 A 
ATOM      8  C   UNL d   1      -1.946  -5.458  -2.317  0.00  0.00     0.022 A 
ATOM      9  C   UNL d   1      -1.272  -4.505  -0.219  0.00  0.00     0.117 A 
ATOM     10  C   UNL d   1       0.552  -2.563  -4.442  0.00  0.00     0.070 C 
ATOM     11  C   UNL d   1      -0.720  -2.883  -5.200  0.00  0.00     0.085 C 
ATOM     12  C   UNL d   1      -1.967  -5.477  -0.922  0.00  0.00     0.043 A 
ATOM     13  F   UNL d   1      -1.287  -4.523   1.119  0.00  0.00    -0.206 F 
ENDROOT
BRANCH   2  14
ATOM     14  O   UNL d   1       1.472  -0.480  -2.935  0.00  0.00    -0.147 OA
BRANCH  14  15
ATOM     15  S   UNL d   1       1.994   0.774  -1.989  0.00  0.00     0.318 S 
ATOM     16  O   UNL d   1       2.946   0.272  -1.014  0.00  0.00    -0.191 OA
ATOM     17  O   UNL d   1       0.853   1.570  -1.578  0.00  0.00    -0.191 OA
BRANCH  15  18
ATOM     18  C   UNL d   1       2.929   1.781  -3.133  0.00  0.00     0.088 A 
ATOM     19  C   UNL d   1       2.295   2.829  -3.809  0.00  0.00     0.027 A 
ATOM     20  C   UNL d   1       3.035   3.634  -4.679  0.00  0.00     0.025 A 
ATOM     21  C   UNL d   1       4.398   3.394  -4.859  0.00  0.00     0.034 A 
ATOM     22  C   UNL d   1       5.035   2.366  -4.161  0.00  0.00     0.025 A 
ATOM     23 CL   UNL d   1       5.301   4.375  -5.946  0.00  0.00    -0.084 Cl
ATOM     24  C   UNL d   1       4.301   1.557  -3.290  0.00  0.00     0.027 A 
ENDBRANCH  15  18
ENDBRANCH  14  15
ENDBRANCH   2  14
TORSDOF 3
