REMARK  2 active torsions:
REMARK  status: ('A' for Active; 'I' for Inactive)
REMARK    1  A    between atoms: N_2  and  C_8 
REMARK    2  A    between atoms: C_14  and  C_5 
ROOT
ATOM      1  C   UNL d   1      -2.485   0.530  -0.343  0.00  0.00     0.003 C 
ATOM      2  C   UNL d   1      -1.262   1.356  -0.153  0.00  0.00     0.190 C 
ATOM      3  C   UNL d   1       0.038   0.636  -0.038  0.00  0.00     0.033 A 
ATOM      4  C   UNL d   1      -3.384   0.979  -1.237  0.00  0.00     0.023 C 
ATOM      5  S   UNL d   1      -1.283  -1.862  -0.123  0.00  0.00    -0.124 SA
ATOM      6  C   UNL d   1       0.128  -0.767  -0.068  0.00  0.00     0.015 A 
ATOM      7  C   UNL d   1      -2.547  -0.715   0.472  0.00  0.00     0.122 C 
ATOM      8  C   UNL d   1       1.207   1.410   0.037  0.00  0.00     0.040 A 
ATOM      9  O   UNL d   1      -1.316   2.582  -0.121  0.00  0.00    -0.287 OA
ATOM     10  C   UNL d   1       1.393  -1.373  -0.062  0.00  0.00     0.021 A 
ATOM     11  C   UNL d   1       2.454   0.789   0.056  0.00  0.00     0.035 A 
ATOM     12  C   UNL d   1       2.552  -0.598  -0.002  0.00  0.00     0.025 A 
ATOM     13 CL   UNL d   1       3.884   1.740   0.135  0.00  0.00    -0.084 Cl
ENDROOT
BRANCH   4  14
ATOM     14  C   UNL d   1      -4.573   0.228  -1.638  0.00  0.00    -0.033 A 
ATOM     15  C   UNL d   1      -4.490  -0.677  -2.703  0.00  0.00     0.047 A 
ATOM     16  C   UNL d   1      -5.628  -1.399  -3.087  0.00  0.00     0.103 A 
ATOM     17  C   UNL d   1      -6.844  -1.227  -2.412  0.00  0.00     0.036 A 
ATOM     18  C   UNL d   1      -6.916  -0.328  -1.346  0.00  0.00     0.003 A 
ATOM     19  C   UNL d   1      -5.785   0.397  -0.961  0.00  0.00     0.011 A 
BRANCH  16  20
ATOM     20  N   UNL d   1      -5.546  -2.341  -4.209  0.00  0.00    -0.116 N 
ATOM     21  O   UNL d   1      -4.453  -2.469  -4.777  0.00  0.00    -0.532 OA
ATOM     22  O   UNL d   1      -6.577  -2.954  -4.523  0.00  0.00    -0.532 OA
ENDBRANCH  16  20
ENDBRANCH   4  14
TORSDOF 2
