REMARK  9 active torsions:
REMARK  status: ('A' for Active; 'I' for Inactive)
REMARK    1  A    between atoms: C_3  and  C_1 
REMARK    2  A    between atoms: N_4  and  C_2 
REMARK       I    between atoms: C_5  and  N_16 
REMARK    3  A    between atoms: C_9  and  C_5 
REMARK    4  A    between atoms: C_26  and  N_6 
REMARK    5  A    between atoms: N_16  and  C_28 
REMARK    6  A    between atoms: O_25  and  C_21 
REMARK    7  A    between atoms: C_30  and  C_26 
REMARK    8  A    between atoms: C_28  and  C_32 
REMARK    9  A    between atoms: C_32  and  C_30 
ROOT
ATOM      1  N   UNL d   1      -2.895   5.092   3.714  0.00  0.00    -0.363 N 
ATOM      2  N   UNL d   1      -2.808   4.880   0.792  0.00  0.00     0.091 N 
ATOM      3  C   UNL d   1      -3.304   3.819   3.094  0.00  0.00     0.154 C 
ATOM      4  C   UNL d   1      -3.280   6.245   2.885  0.00  0.00     0.154 C 
ATOM      5  C   UNL d   1      -2.624   3.712   1.699  0.00  0.00     0.292 C 
ATOM      6  C   UNL d   1      -2.509   6.122   1.550  0.00  0.00     0.292 C 
ENDROOT
BRANCH   2   7
ATOM      7  C   UNL d   1      -4.149   4.896   0.195  0.00  0.00     0.272 C 
BRANCH   7   8
ATOM      8  C   UNL d   1      -4.315   5.999  -0.865  0.00  0.00     0.032 C 
BRANCH   8   9
ATOM      9  C   UNL d   1      -3.260   5.963  -1.974  0.00  0.00     0.021 C 
BRANCH   9  10
ATOM     10  C   UNL d   1      -3.352   4.683  -2.792  0.00  0.00     0.123 C 
BRANCH  10  11
ATOM     11  N   UNL d   1      -2.420   4.698  -3.895  0.00  0.00    -0.357 N 
ATOM     12  C   UNL d   1      -2.668   3.945  -5.022  0.00  0.00     0.251 C 
ATOM     13  O   UNL d   1      -3.698   3.301  -5.204  0.00  0.00    -0.268 OA
ATOM     14  H   UNL d   1      -1.456   4.920  -3.681  0.00  0.00     0.162 HD
BRANCH  12  15
ATOM     15  C   UNL d   1      -1.582   3.912  -6.031  0.00  0.00     0.032 A 
ATOM     16  C   UNL d   1      -1.463   2.782  -6.847  0.00  0.00     0.020 A 
ATOM     17  C   UNL d   1      -0.448   2.711  -7.804  0.00  0.00     0.038 A 
ATOM     18  C   UNL d   1       0.447   3.772  -7.950  0.00  0.00     0.068 A 
ATOM     19  C   UNL d   1       0.301   4.915  -7.163  0.00  0.00     0.038 A 
ATOM     20  C   UNL d   1      -0.706   4.989  -6.199  0.00  0.00     0.020 A 
BRANCH  18  21
ATOM     21  O   UNL d   1       1.465   3.820  -8.861  0.00  0.00    -0.356 OA
ATOM     22  C   UNL d   1       2.033   2.561  -9.205  0.00  0.00     0.210 C 
ENDBRANCH  18  21
ENDBRANCH  12  15
ENDBRANCH  10  11
ENDBRANCH   9  10
ENDBRANCH   8   9
ENDBRANCH   7   8
ENDBRANCH   2   7
BRANCH   1  23
ATOM     23  C   UNL d   1      -3.047   5.225   5.081  0.00  0.00     0.118 A 
ATOM     24  C   UNL d   1      -2.255   6.104   5.825  0.00  0.00     0.091 A 
ATOM     25  C   UNL d   1      -2.451   6.178   7.219  0.00  0.00     0.021 A 
ATOM     26  C   UNL d   1      -3.389   5.363   7.834  0.00  0.00     0.018 A 
ATOM     27  C   UNL d   1      -4.106   4.501   7.033  0.00  0.00     0.089 A 
ATOM     28  N   UNL d   1      -3.953   4.422   5.692  0.00  0.00    -0.352 N 
ATOM     29  HN  UNL d   1      -4.511   3.766   5.146  1.00  0.00     0.166 HD
BRANCH  24  30
ATOM     30  C   UNL d   1      -1.163   6.964   5.252  0.00  0.00     0.421 C 
ATOM     31  F   UNL d   1      -0.810   6.758   3.955  0.00  0.00    -0.166 F 
ATOM     32  F   UNL d   1      -1.483   8.292   5.327  0.00  0.00    -0.166 F 
ATOM     33  F   UNL d   1       0.006   6.843   5.951  0.00  0.00    -0.166 F 
ENDBRANCH  24  30
ENDBRANCH   1  23
TORSDOF 9
