REMARK  4 active torsions:
REMARK  status: ('A' for Active; 'I' for Inactive)
REMARK    1  A    between atoms: N_2  and  S_1 
REMARK    2  A    between atoms: C_4  and  S_1 
REMARK    3  A    between atoms: C_3  and  N_2 
REMARK    4  A    between atoms: C_11  and  C_3 
ROOT
ATOM      1  N   UNL d   1       0.390  -0.722  -1.341  0.00  0.00    -0.264 N 
ATOM      2  H   UNL d   1      -0.214  -1.537  -1.201  0.00  0.00     0.180 HD
ENDROOT
BRANCH   1   3
ATOM      3  S   UNL d   1       0.986  -0.070   0.057  0.00  0.00     0.264 S 
ATOM      4  O   UNL d   1       2.313   0.450  -0.200  0.00  0.00    -0.200 OA
ATOM      5  O   UNL d   1       0.729  -1.018   1.117  0.00  0.00    -0.200 OA
BRANCH   3   6
ATOM      6  C   UNL d   1      -0.080   1.331   0.315  0.00  0.00     0.081 A 
ATOM      7  C   UNL d   1      -1.194   1.204   1.150  0.00  0.00     0.050 A 
ATOM      8  C   UNL d   1      -1.976   2.328   1.435  0.00  0.00     0.057 A 
ATOM      9 CL   UNL d   1      -3.336   2.114   2.479  0.00  0.00    -0.083 Cl
ATOM     10  C   UNL d   1      -1.640   3.574   0.890  0.00  0.00     0.055 A 
ATOM     11  C   UNL d   1      -0.521   3.693   0.058  0.00  0.00     0.027 A 
ATOM     12 CL   UNL d   1      -2.550   5.006   1.217  0.00  0.00    -0.083 Cl
ATOM     13  C   UNL d   1       0.264   2.573  -0.229  0.00  0.00     0.027 A 
ENDBRANCH   3   6
ENDBRANCH   1   3
BRANCH   1  14
ATOM     14  C   UNL d   1       0.802  -0.502  -2.665  0.00  0.00     0.135 C 
ATOM     15  N   UNL d   1       1.703   0.357  -2.992  0.00  0.00    -0.383 N 
ATOM     16  H   UNL d   1       2.114   0.766  -2.142  0.00  0.00     0.157 HD
ATOM     17  HN  UNL d   1       1.969   0.596  -3.948  1.00  0.00     0.157 HD
BRANCH  14  18
ATOM     18  C   UNL d   1       0.105  -1.370  -3.664  0.00  0.00     0.076 A 
ATOM     19  N   UNL d   1      -0.774  -2.279  -3.149  0.00  0.00    -0.363 N 
ATOM     20  C   UNL d   1      -1.362  -3.106  -4.043  0.00  0.00     0.088 A 
ATOM     21  HN  UNL d   1      -0.974  -2.332  -2.151  1.00  0.00     0.165 HD
ATOM     22  C   UNL d   1      -1.122  -3.069  -5.410  0.00  0.00     0.017 A 
ATOM     23  C   UNL d   1      -0.224  -2.126  -5.902  0.00  0.00     0.004 A 
ATOM     24  C   UNL d   1       0.406  -1.258  -5.015  0.00  0.00     0.033 A 
ENDBRANCH  14  18
ENDBRANCH   1  14
TORSDOF 4
