REMARK  4 active torsions:
REMARK  status: ('A' for Active; 'I' for Inactive)
REMARK       I    between atoms: N_3  and  C_1 
REMARK    1  A    between atoms: C_4  and  C_1 
REMARK    2  A    between atoms: C_2  and  O_7 
REMARK    3  A    between atoms: C_6  and  N_3 
REMARK    4  A    between atoms: O_7  and  C_5 
ROOT
ATOM      1  C   UNL d   1       0.363   3.124  -1.524  0.00  0.00     0.106 A 
ATOM      2  C   UNL d   1       1.056   1.902  -1.458  0.00  0.00     0.069 A 
ATOM      3  C   UNL d   1       0.897   4.206  -2.234  0.00  0.00     0.063 A 
ATOM      4  C   UNL d   1       2.302   1.804  -2.092  0.00  0.00     0.034 A 
ATOM      5  C   UNL d   1       2.138   4.089  -2.852  0.00  0.00     0.036 A 
ATOM      6  C   UNL d   1       2.842   2.892  -2.785  0.00  0.00     0.026 A 
ATOM      7 CL   UNL d   1       2.805   5.429  -3.698  0.00  0.00    -0.084 Cl
ENDROOT
BRANCH   2   8
ATOM      8  N   UNL d   1       0.481   0.794  -0.796  0.00  0.00    -0.320 N 
ATOM      9  C   UNL d   1       1.194  -0.214  -0.163  0.00  0.00     0.263 C 
ATOM     10  O   UNL d   1       2.417  -0.251  -0.087  0.00  0.00    -0.267 OA
ATOM     11  H   UNL d   1      -0.512   0.820  -0.591  0.00  0.00     0.169 HD
BRANCH   9  12
ATOM     12  C   UNL d   1       0.362  -1.189   0.532  0.00  0.00     0.072 A 
ATOM     13  S   UNL d   1      -1.123  -1.735  -0.120  0.00  0.00    -0.097 SA
ATOM     14  C   UNL d   1      -1.370  -2.816   1.183  0.00  0.00     0.050 A 
ATOM     15  C   UNL d   1      -0.360  -2.740   2.117  0.00  0.00     0.009 A 
ATOM     16  C   UNL d   1       0.648  -1.813   1.732  0.00  0.00     0.025 A 
ENDBRANCH   9  12
ENDBRANCH   2   8
BRANCH   1  17
ATOM     17  O   UNL d   1      -0.853   3.361  -0.941  0.00  0.00    -0.253 OA
BRANCH  17  18
ATOM     18  C   UNL d   1      -0.891   3.142   0.466  0.00  0.00     0.530 C 
ATOM     19  F   UNL d   1       0.328   3.161   1.043  0.00  0.00    -0.144 F 
ATOM     20  F   UNL d   1      -1.647   4.103   1.037  0.00  0.00    -0.144 F 
ATOM     21  F   UNL d   1      -1.474   1.945   0.702  0.00  0.00    -0.144 F 
ENDBRANCH  17  18
ENDBRANCH   1  17
TORSDOF 4
