REMARK  5 active torsions:
REMARK  status: ('A' for Active; 'I' for Inactive)
REMARK    1  A    between atoms: C_4  and  S_1 
REMARK    2  A    between atoms: C_7  and  S_1 
REMARK    3  A    between atoms: C_2  and  C_5 
REMARK    4  A    between atoms: C_3  and  C_6 
REMARK    5  A    between atoms: C_8  and  C_7 
ROOT
ATOM      1  C   UNL d   1       0.318  -0.469  -1.511  0.00  0.00     0.061 A 
ATOM      2  C   UNL d   1      -0.925  -0.157  -3.572  0.00  0.00     0.050 A 
ATOM      3  C   UNL d   1       0.072  -2.337  -3.041  0.00  0.00     0.050 A 
ATOM      4  C   UNL d   1       0.561  -1.808  -1.838  0.00  0.00     0.039 A 
ATOM      5  C   UNL d   1      -0.428   0.354  -2.362  0.00  0.00     0.039 A 
ATOM      6  C   UNL d   1      -0.664  -1.501  -3.901  0.00  0.00     0.032 A 
ENDROOT
BRANCH   1   7
ATOM      7  S   UNL d   1       0.875   0.170   0.067  0.00  0.00     0.179 S 
ATOM      8  O   UNL d   1       1.121  -0.986   0.910  0.00  0.00    -0.222 OA
ATOM      9  O   UNL d   1      -0.085   1.184   0.456  0.00  0.00    -0.222 OA
BRANCH   7  10
ATOM     10  C   UNL d   1       2.441   0.933  -0.344  0.00  0.00     0.186 C 
BRANCH  10  11
ATOM     11  C   UNL d   1       3.052   1.533   0.901  0.00  0.00    -0.022 A 
ATOM     12  C   UNL d   1       2.879   2.881   1.262  0.00  0.00     0.043 A 
ATOM     13  C   UNL d   1       3.477   3.396   2.416  0.00  0.00     0.048 A 
ATOM     14 CL   UNL d   1       1.951   3.971   0.295  0.00  0.00    -0.084 Cl
ATOM     15  C   UNL d   1       4.249   2.568   3.225  0.00  0.00     0.035 A 
ATOM     16  C   UNL d   1       4.423   1.227   2.897  0.00  0.00     0.024 A 
ATOM     17 CL   UNL d   1       5.002   3.207   4.634  0.00  0.00    -0.084 Cl
ATOM     18  C   UNL d   1       3.827   0.712   1.743  0.00  0.00     0.011 A 
ENDBRANCH  10  11
ENDBRANCH   7  10
ENDBRANCH   1   7
BRANCH   3  19
ATOM     19  C   UNL d   1       0.301  -3.785  -3.415  0.00  0.00     0.417 C 
ATOM     20  F   UNL d   1       1.035  -4.472  -2.498  0.00  0.00    -0.166 F 
ATOM     21  F   UNL d   1      -0.863  -4.473  -3.562  0.00  0.00    -0.166 F 
ATOM     22  F   UNL d   1       0.966  -3.910  -4.596  0.00  0.00    -0.166 F 
ENDBRANCH   3  19
BRANCH   2  23
ATOM     23  C   UNL d   1      -1.748   0.697  -4.511  0.00  0.00     0.417 C 
ATOM     24  F   UNL d   1      -1.929   1.971  -4.070  0.00  0.00    -0.166 F 
ATOM     25  F   UNL d   1      -1.173   0.804  -5.741  0.00  0.00    -0.166 F 
ATOM     26  F   UNL d   1      -2.991   0.187  -4.720  0.00  0.00    -0.166 F 
ENDBRANCH   2  23
TORSDOF 5
