REMARK  2 active torsions:
REMARK  status: ('A' for Active; 'I' for Inactive)
REMARK    1  A    between atoms: C_7  and  N_1 
REMARK    2  A    between atoms: N_13  and  C_4 
ROOT
ATOM      1  N   UNL d   1      -1.694   0.832   0.291  0.00  0.00    -0.201 N 
ATOM      2  C   UNL d   1      -2.184  -0.475   0.267  0.00  0.00     0.292 A 
ATOM      3  C   UNL d   1      -1.147  -1.552   0.156  0.00  0.00     0.131 A 
ATOM      4  C   UNL d   1       0.180  -1.319   0.196  0.00  0.00     0.074 A 
ATOM      5  N   UNL d   1      -0.352   1.126   0.369  0.00  0.00    -0.298 N 
ATOM      6  HN  UNL d   1      -0.023   2.089   0.439  1.00  0.00     0.186 HD
ATOM      7  C   UNL d   1       0.475   0.135   0.351  0.00  0.00     0.139 A 
ATOM      8  O   UNL d   1      -3.374  -0.802   0.303  0.00  0.00    -0.264 OA
ATOM      9 CL   UNL d   1      -1.802  -3.142  -0.147  0.00  0.00    -0.076 Cl
ENDROOT
BRANCH   1  10
ATOM     10  C   UNL d   1      -2.560   1.965   0.132  0.00  0.00     0.146 A 
ATOM     11  N   UNL d   1      -3.895   1.786   0.005  0.00  0.00    -0.338 N 
ATOM     12  C   UNL d   1      -4.648   2.829  -0.384  0.00  0.00     0.060 A 
ATOM     13  HN  UNL d   1      -4.320   0.881   0.202  1.00  0.00     0.167 HD
ATOM     14  C   UNL d   1      -6.002   2.629  -0.630  0.00  0.00     0.032 A 
ATOM     15  C   UNL d   1      -4.086   4.102  -0.613  0.00  0.00     0.059 A 
ATOM     16  C   UNL d   1      -6.795   3.641  -1.170  0.00  0.00     0.002 A 
ATOM     17  C   UNL d   1      -6.235   4.884  -1.431  0.00  0.00     0.002 A 
ATOM     18  C   UNL d   1      -4.890   5.112  -1.129  0.00  0.00     0.032 A 
ATOM     19  N   UNL d   1      -2.778   4.329  -0.388  0.00  0.00    -0.360 N 
ATOM     20  C   UNL d   1      -2.039   3.246  -0.026  0.00  0.00     0.139 A 
ATOM     21  HN  UNL d   1      -2.367   5.257  -0.484  1.00  0.00     0.165 HD
ENDBRANCH   1  10
BRANCH   4  22
ATOM     22  N   UNL d   1       1.277  -2.202   0.141  0.00  0.00    -0.387 N 
ATOM     23  C   UNL d   1       1.208  -3.607   0.556  0.00  0.00     0.149 C 
ATOM     24  C   UNL d   1       2.516  -1.898  -0.585  0.00  0.00     0.149 C 
ENDBRANCH   4  22
TORSDOF 2
