REMARK  6 active torsions:
REMARK  status: ('A' for Active; 'I' for Inactive)
REMARK    1  A    between atoms: N_2  and  C_1 
REMARK    2  A    between atoms: C_3  and  N_6 
REMARK    3  A    between atoms: N_8  and  C_3 
REMARK    4  A    between atoms: N_9  and  C_4 
REMARK    5  A    between atoms: C_5  and  C_10 
REMARK    6  A    between atoms: C_11  and  N_8 
ROOT
ATOM      1  N   UNL d   1       1.549  -5.542   0.640  0.00  0.00    -0.356 N 
ATOM      2  N   UNL d   1       1.086  -2.612   0.077  0.00  0.00    -0.377 N 
ATOM      3  C   UNL d   1       1.128  -5.019  -0.669  0.00  0.00     0.145 C 
ATOM      4  C   UNL d   1       1.468  -3.555  -1.000  0.00  0.00     0.143 C 
ATOM      5  C   UNL d   1       1.327  -3.689   2.317  0.00  0.00     0.040 C 
ATOM      6  C   UNL d   1       0.822  -5.036   1.802  0.00  0.00     0.127 C 
ATOM      7  C   UNL d   1       1.951  -2.763   1.279  0.00  0.00     0.124 C 
ENDROOT
BRANCH   2   8
ATOM      8  C   UNL d   1       0.811  -1.256  -0.194  0.00  0.00     0.063 A 
ATOM      9  C   UNL d   1       1.151  -0.475  -1.315  0.00  0.00     0.130 A 
ATOM     10  C   UNL d   1       0.972   0.925  -1.354  0.00  0.00     0.054 A 
ATOM     11  C   UNL d   1       0.417   1.598  -0.265  0.00  0.00     0.050 A 
ATOM     12  C   UNL d   1      -0.051   0.839   0.809  0.00  0.00     0.018 A 
ATOM     13  C   UNL d   1       0.130  -0.551   0.827  0.00  0.00     0.032 A 
BRANCH   9  14
ATOM     14  N   UNL d   1       1.764  -1.024  -2.505  0.00  0.00    -0.113 N 
ATOM     15  O   UNL d   1       2.976  -1.273  -2.457  0.00  0.00    -0.532 OA
ATOM     16  O   UNL d   1       1.038  -1.145  -3.500  0.00  0.00    -0.532 OA
ENDBRANCH   9  14
BRANCH  11  17
ATOM     17  C   UNL d   1       0.356   3.104  -0.212  0.00  0.00     0.417 C 
ATOM     18  F   UNL d   1       0.897   3.704  -1.308  0.00  0.00    -0.166 F 
ATOM     19  F   UNL d   1      -0.914   3.578  -0.109  0.00  0.00    -0.166 F 
ATOM     20  F   UNL d   1       1.034   3.604   0.858  0.00  0.00    -0.166 F 
ENDBRANCH  11  17
ENDBRANCH   2   8
BRANCH   1  21
ATOM     21  C   UNL d   1       2.692  -6.291   0.800  0.00  0.00     0.174 C 
ATOM     22  S   UNL d   1       4.196  -5.861   0.202  0.00  0.00    -0.041 SA
BRANCH  21  23
ATOM     23  N   UNL d   1       2.613  -7.443   1.536  0.00  0.00    -0.332 N 
ATOM     24  H   UNL d   1       3.525  -7.789   1.829  0.00  0.00     0.168 HD
BRANCH  23  25
ATOM     25  C   UNL d   1       1.645  -8.484   1.415  0.00  0.00     0.056 A 
ATOM     26  C   UNL d   1       1.952  -9.750   1.953  0.00  0.00     0.062 A 
ATOM     27  C   UNL d   1       1.120 -10.853   1.737  0.00  0.00     0.050 A 
ATOM     28 CL   UNL d   1       3.408 -10.003   2.858  0.00  0.00    -0.082 Cl
ATOM     29  C   UNL d   1      -0.041 -10.697   0.990  0.00  0.00     0.035 A 
ATOM     30  C   UNL d   1      -0.386  -9.450   0.481  0.00  0.00     0.026 A 
ATOM     31 CL   UNL d   1      -1.048 -12.053   0.669  0.00  0.00    -0.084 Cl
ATOM     32  C   UNL d   1       0.455  -8.351   0.694  0.00  0.00     0.033 A 
ENDBRANCH  23  25
ENDBRANCH  21  23
ENDBRANCH   1  21
TORSDOF 6
