REMARK  2 active torsions:
REMARK  status: ('A' for Active; 'I' for Inactive)
REMARK    1  A    between atoms: C_8  and  C_3 
REMARK    2  A    between atoms: C_9  and  C_3 
ROOT
ATOM      1  C   UNL d   1      -1.138   0.128  -0.048  0.00  0.00     0.259 A 
ATOM      2  N   UNL d   1      -0.041   0.929  -0.134  0.00  0.00    -0.277 N 
ATOM      3  C   UNL d   1      -0.680  -1.354  -0.020  0.00  0.00     0.147 A 
ATOM      4  C   UNL d   1       1.090   0.196  -0.089  0.00  0.00     0.324 A 
ATOM      5  N   UNL d   1       0.754  -1.131  -0.032  0.00  0.00    -0.320 N 
ATOM      6  O   UNL d   1      -2.283   0.547   0.045  0.00  0.00    -0.270 OA
ATOM      7  O   UNL d   1       2.229   0.626  -0.072  0.00  0.00    -0.247 OA
ATOM      8  H   UNL d   1      -0.061   1.934  -0.127  0.00  0.00     0.173 HD
ATOM      9  H   UNL d   1       1.472  -1.839   0.017  0.00  0.00     0.166 HD
ENDROOT
BRANCH   3  10
ATOM     10  C   UNL d   1      -1.138  -2.195  -1.210  0.00  0.00    -0.020 A 
ATOM     11  C   UNL d   1      -0.363  -3.280  -1.667  0.00  0.00     0.010 A 
ATOM     12  C   UNL d   1      -0.800  -4.100  -2.710  0.00  0.00     0.001 A 
ATOM     13  C   UNL d   1      -2.023  -3.853  -3.323  0.00  0.00     0.000 A 
ATOM     14  C   UNL d   1      -2.809  -2.790  -2.890  0.00  0.00     0.001 A 
ATOM     15  C   UNL d   1      -2.376  -1.974  -1.839  0.00  0.00     0.010 A 
ENDBRANCH   3  10
BRANCH   3  16
ATOM     16  C   UNL d   1      -1.073  -2.045   1.293  0.00  0.00     0.028 C 
ATOM     17  C   UNL d   1      -0.524  -1.494   2.644  0.00  0.00     0.008 C 
ATOM     18  C   UNL d   1      -0.475  -2.946   3.153  0.00  0.00     0.001 C 
ATOM     19  C   UNL d   1      -0.426  -3.406   1.685  0.00  0.00     0.008 C 
ENDBRANCH   3  16
TORSDOF 2
