REMARK  3 active torsions:
REMARK  status: ('A' for Active; 'I' for Inactive)
REMARK    1  A    between atoms: C_7  and  C_1 
REMARK    2  A    between atoms: C_6  and  C_9 
REMARK       I    between atoms: N_10  and  C_7 
REMARK    3  A    between atoms: C_9  and  N_10 
ROOT
ATOM      1  C   UNL d   1      -0.227  -2.612  -0.559  0.00  0.00     0.261 C 
ATOM      2  N   UNL d   1       0.720  -3.489  -0.069  0.00  0.00    -0.352 N 
ATOM      3  O   UNL d   1       0.118  -1.532  -1.037  0.00  0.00    -0.267 OA
ATOM      4  H   UNL d   1       0.420  -4.340   0.392  0.00  0.00     0.163 HD
ENDROOT
BRANCH   2   5
ATOM      5  C   UNL d   1       2.123  -3.138  -0.033  0.00  0.00     0.166 C 
BRANCH   5   6
ATOM      6  C   UNL d   1       3.095  -4.291   0.012  0.00  0.00     0.020 A 
ATOM      7  C   UNL d   1       2.693  -5.631   0.056  0.00  0.00     0.126 A 
ATOM      8  F   UNL d   1       1.390  -5.952   0.096  0.00  0.00    -0.205 F 
ATOM      9  C   UNL d   1       3.614  -6.681   0.071  0.00  0.00     0.043 A 
ATOM     10  C   UNL d   1       4.977  -6.410   0.052  0.00  0.00     0.005 A 
ATOM     11  C   UNL d   1       5.411  -5.088   0.021  0.00  0.00     0.024 A 
ATOM     12  C   UNL d   1       4.481  -4.040   0.002  0.00  0.00     0.044 A 
ATOM     13 CL   UNL d   1       5.113  -2.429  -0.030  0.00  0.00    -0.084 Cl
ENDBRANCH   5   6
ENDBRANCH   2   5
BRANCH   1  14
ATOM     14  C   UNL d   1      -1.609  -3.025  -0.479  0.00  0.00     0.110 A 
ATOM     15  C   UNL d   1      -2.760  -2.404  -0.956  0.00  0.00     0.043 A 
ATOM     16  N   UNL d   1      -3.943  -3.088  -0.682  0.00  0.00    -0.296 N 
ATOM     17  C   UNL d   1      -2.886  -1.130  -1.711  0.00  0.00     0.071 C 
ATOM     18  N   UNL d   1      -3.727  -4.208  -0.017  0.00  0.00    -0.061 NA
ATOM     19  HN  UNL d   1      -4.868  -2.762  -0.963  1.00  0.00     0.183 HD
ATOM     20  S   UNL d   1      -2.112  -4.472   0.294  0.00  0.00     0.007 SA
ENDBRANCH   1  14
TORSDOF 3
