REMARK  8 active torsions:
REMARK  status: ('A' for Active; 'I' for Inactive)
REMARK    1  A    between atoms: N_2  and  C_1 
REMARK    2  A    between atoms: C_3  and  C_1 
REMARK    3  A    between atoms: C_5  and  C_1 
REMARK    4  A    between atoms: N_6  and  C_1 
REMARK       I    between atoms: C_4  and  N_2 
REMARK       I    between atoms: N_7  and  C_4 
REMARK    5  A    between atoms: O_14  and  C_5 
REMARK    6  A    between atoms: C_13  and  N_6 
REMARK    7  A    between atoms: C_15  and  N_7 
REMARK    8  A    between atoms: C_21  and  O_14 
ROOT
ATOM      1  C   UNL d   1       0.795   0.167  -0.295  0.00  0.00     0.298 C 
ENDROOT
BRANCH   1   2
ATOM      2  N   UNL d   1       0.463   0.946   0.911  0.00  0.00    -0.300 N 
ATOM      3  C   UNL d   1       0.237   2.230   1.236  0.00  0.00     0.323 C 
ATOM      4  N   UNL d   1       0.085   3.150   0.248  0.00  0.00    -0.309 N 
ATOM      5  O   UNL d   1       0.141   2.442   2.445  0.00  0.00    -0.247 OA
ATOM      6  H   UNL d   1      -0.136   2.799  -0.672  0.00  0.00     0.170 HD
ATOM      7  H   UNL d   1       0.407   0.383   1.750  0.00  0.00     0.167 HD
BRANCH   4   8
ATOM      8  C   UNL d   1      -0.326   4.496   0.454  0.00  0.00     0.036 A 
ATOM      9  C   UNL d   1      -0.225   5.160   1.680  0.00  0.00     0.029 A 
ATOM     10  C   UNL d   1      -0.775   6.433   1.851  0.00  0.00     0.002 A 
ATOM     11  C   UNL d   1      -1.413   7.068   0.791  0.00  0.00     0.000 A 
ATOM     12  C   UNL d   1      -1.466   6.446  -0.454  0.00  0.00     0.002 A 
ATOM     13  C   UNL d   1      -0.917   5.170  -0.625  0.00  0.00     0.029 A 
ENDBRANCH   4   8
ENDBRANCH   1   2
BRANCH   1  14
ATOM     14  C   UNL d   1      -0.039   0.476  -1.588  0.00  0.00     0.442 C 
ATOM     15  F   UNL d   1      -0.957   1.458  -1.385  0.00  0.00    -0.166 F 
ATOM     16  F   UNL d   1       0.769   0.949  -2.579  0.00  0.00    -0.166 F 
ATOM     17  F   UNL d   1      -0.708  -0.576  -2.105  0.00  0.00    -0.166 F 
ENDBRANCH   1  14
BRANCH   1  18
ATOM     18  C   UNL d   1       0.386  -1.297   0.015  0.00  0.00     0.318 C 
ATOM     19  O   UNL d   1      -0.538  -1.593   0.769  0.00  0.00    -0.260 OA
BRANCH  18  20
ATOM     20  O   UNL d   1       1.144  -2.210  -0.657  0.00  0.00    -0.318 OA
BRANCH  20  21
ATOM     21  C   UNL d   1       0.840  -3.592  -0.414  0.00  0.00     0.174 C 
ATOM     22  C   UNL d   1       1.382  -4.051   0.929  0.00  0.00     0.034 C 
ENDBRANCH  20  21
ENDBRANCH  18  20
ENDBRANCH   1  18
BRANCH   1  23
ATOM     23  N   UNL d   1       2.258   0.300  -0.525  0.00  0.00    -0.348 N 
ATOM     24  H   UNL d   1       2.511   1.094  -1.109  0.00  0.00     0.163 HD
BRANCH  23  25
ATOM     25  C   UNL d   1       3.304  -0.151   0.257  0.00  0.00     0.030 A 
ATOM     26  C   UNL d   1       4.506  -0.479  -0.388  0.00  0.00     0.029 A 
ATOM     27  C   UNL d   1       5.643  -0.879   0.327  0.00  0.00     0.009 A 
ATOM     28  C   UNL d   1       5.610  -0.941   1.720  0.00  0.00    -0.062 A 
ATOM     29  C   UNL d   1       4.406  -0.665   2.369  0.00  0.00     0.009 A 
ATOM     30  C   UNL d   1       6.852  -1.258   2.496  0.00  0.00     0.048 C 
ATOM     31  C   UNL d   1       3.267  -0.290   1.643  0.00  0.00     0.029 A 
ENDBRANCH  23  25
ENDBRANCH   1  23
TORSDOF 8
