REMARK  4 active torsions:
REMARK  status: ('A' for Active; 'I' for Inactive)
REMARK    1  A    between atoms: N_3  and  C_1 
REMARK    2  A    between atoms: N_4  and  C_12 
REMARK    3  A    between atoms: N_5  and  N_14 
REMARK    4  A    between atoms: N_14  and  C_13 
ROOT
ATOM      1  C   UNL d   1       3.903   2.101  -1.198  0.00  0.00     0.065 A 
ATOM      2  N   UNL d   1       2.953   2.841  -0.709  0.00  0.00    -0.315 N 
ATOM      3  HN  UNL d   1       3.163   3.701  -0.201  1.00  0.00     0.181 HD
ATOM      4  C   UNL d   1       3.886   0.804  -1.929  0.00  0.00     0.004 A 
ATOM      5  C   UNL d   1       5.328   2.459  -1.011  0.00  0.00     0.004 A 
ATOM      6  C   UNL d   1       5.226   0.382  -2.039  0.00  0.00    -0.013 A 
ATOM      7  C   UNL d   1       6.103   1.402  -1.509  0.00  0.00    -0.013 A 
ATOM      8  C   UNL d   1       5.883   3.601  -0.462  0.00  0.00     0.014 A 
ATOM      9  C   UNL d   1       2.848   0.046  -2.446  0.00  0.00     0.014 A 
ATOM     10  C   UNL d   1       5.531  -0.850  -2.599  0.00  0.00     0.013 A 
ATOM     11  C   UNL d   1       7.485   1.482  -1.468  0.00  0.00     0.013 A 
ATOM     12  C   UNL d   1       8.069   2.633  -0.923  0.00  0.00     0.001 A 
ATOM     13  C   UNL d   1       7.277   3.681  -0.422  0.00  0.00     0.001 A 
ATOM     14  C   UNL d   1       3.160  -1.179  -3.042  0.00  0.00     0.001 A 
ATOM     15  C   UNL d   1       4.486  -1.634  -3.096  0.00  0.00     0.001 A 
ENDROOT
BRANCH   2  16
ATOM     16  N   UNL d   1       1.672   2.434  -0.895  0.00  0.00    -0.203 NA
ATOM     17  H   UNL d   1       1.387   2.347  -1.879  0.00  0.00     0.153 HD
BRANCH  16  18
ATOM     18  C   UNL d   1       0.672   3.097  -0.133  0.00  0.00     0.060 A 
ATOM     19  C   UNL d   1      -0.694   3.102  -0.495  0.00  0.00     0.128 A 
ATOM     20  C   UNL d   1      -1.658   3.763   0.289  0.00  0.00     0.074 A 
ATOM     21  C   UNL d   1      -1.266   4.389   1.476  0.00  0.00     0.105 A 
ATOM     22  C   UNL d   1       0.062   4.326   1.904  0.00  0.00     0.038 A 
ATOM     23  C   UNL d   1       1.011   3.675   1.108  0.00  0.00     0.030 A 
BRANCH  19  24
ATOM     24  N   UNL d   1      -1.160   2.425  -1.713  0.00  0.00    -0.114 N 
ATOM     25  O   UNL d   1      -2.373   2.191  -1.810  0.00  0.00    -0.532 OA
ATOM     26  O   UNL d   1      -0.321   2.125  -2.575  0.00  0.00    -0.532 OA
ENDBRANCH  19  24
BRANCH  21  27
ATOM     27  N   UNL d   1      -2.253   5.127   2.273  0.00  0.00    -0.116 N 
ATOM     28  O   UNL d   1      -3.383   5.279   1.786  0.00  0.00    -0.532 OA
ATOM     29  O   UNL d   1      -1.897   5.563   3.375  0.00  0.00    -0.532 OA
ENDBRANCH  21  27
ENDBRANCH  16  18
ENDBRANCH   2  16
TORSDOF 4
