REMARK  6 active torsions:
REMARK  status: ('A' for Active; 'I' for Inactive)
REMARK    1  A    between atoms: S_9  and  C_3 
REMARK    2  A    between atoms: C_10  and  C_4 
REMARK    3  A    between atoms: O_12  and  C_5 
REMARK    4  A    between atoms: C_17  and  S_9 
REMARK    5  A    between atoms: C_14  and  C_10 
REMARK    6  A    between atoms: C_11  and  C_17 
ROOT
ATOM      1  N   UNL d   1      -0.721   1.169   0.125  0.00  0.00    -0.317 N 
ATOM      2  HN  UNL d   1      -1.187   2.076   0.116  1.00  0.00     0.170 HD
ATOM      3  C   UNL d   1      -1.402   0.023   0.174  0.00  0.00     0.147 A 
ATOM      4  C   UNL d   1       1.309  -0.143   0.108  0.00  0.00     0.019 A 
ATOM      5  C   UNL d   1       0.612   1.056   0.087  0.00  0.00     0.150 A 
ATOM      6  N   UNL d   1      -0.837  -1.187   0.296  0.00  0.00    -0.340 N 
ATOM      7  HN  UNL d   1      -1.408  -2.026   0.397  1.00  0.00     0.167 HD
ATOM      8  C   UNL d   1       0.508  -1.264   0.279  0.00  0.00     0.018 A 
ATOM      9  C   UNL d   1       1.054  -2.655   0.395  0.00  0.00     0.069 C 
ENDROOT
BRANCH   4  10
ATOM     10  C   UNL d   1       2.800  -0.231  -0.072  0.00  0.00     0.083 C 
BRANCH  10  11
ATOM     11  C   UNL d   1       3.667   0.074   1.132  0.00  0.00    -0.054 A 
ATOM     12  C   UNL d   1       3.174   0.150   2.444  0.00  0.00     0.010 A 
ATOM     13  C   UNL d   1       4.023   0.482   3.503  0.00  0.00     0.043 A 
ATOM     14  C   UNL d   1       5.370   0.718   3.260  0.00  0.00     0.116 A 
ATOM     15  C   UNL d   1       5.891   0.605   1.980  0.00  0.00     0.043 A 
ATOM     16  F   UNL d   1       6.175   1.059   4.274  0.00  0.00    -0.206 F 
ATOM     17  C   UNL d   1       5.045   0.278   0.919  0.00  0.00     0.010 A 
ENDBRANCH  10  11
ENDBRANCH   4  10
BRANCH   5  18
ATOM     18  O   UNL d   1       1.250   2.263  -0.003  0.00  0.00    -0.346 OA
ATOM     19  H   UNL d   1       2.162   2.164   0.300  0.00  0.00     0.219 HD
ENDBRANCH   5  18
BRANCH   3  20
ATOM     20  S   UNL d   1      -3.168   0.012   0.059  0.00  0.00    -0.085 SA
BRANCH  20  21
ATOM     21  C   UNL d   1      -3.494   1.450  -1.017  0.00  0.00     0.073 C 
ATOM     22  C   UNL d   1      -5.001   1.474  -1.290  0.00  0.00     0.026 C 
BRANCH  21  23
ATOM     23  C   UNL d   1      -2.760   1.356  -2.332  0.00  0.00    -0.022 C 
ATOM     24  C   UNL d   1      -1.878   2.268  -2.760  0.00  0.00     0.008 C 
ENDBRANCH  21  23
ENDBRANCH  20  21
ENDBRANCH   3  20
TORSDOF 6
