REMARK  4 active torsions:
REMARK  status: ('A' for Active; 'I' for Inactive)
REMARK    1  A    between atoms: S_10  and  C_2 
REMARK    2  A    between atoms: N_3  and  C_8 
REMARK    3  A    between atoms: C_14  and  S_10 
REMARK    4  A    between atoms: C_11  and  C_14 
ROOT
ATOM      1  C   UNL d   1       2.015   2.963  -0.078  0.00  0.00     0.123 C 
ENDROOT
BRANCH   1   2
ATOM      2  C   UNL d   1       2.520   4.400  -0.131  0.00  0.00    -0.015 A 
ATOM      3  C   UNL d   1       3.907   4.685  -0.126  0.00  0.00     0.110 A 
ATOM      4  C   UNL d   1       4.411   5.996  -0.183  0.00  0.00     0.037 A 
ATOM      5  C   UNL d   1       3.528   7.067  -0.243  0.00  0.00     0.002 A 
ATOM      6  C   UNL d   1       2.158   6.826  -0.240  0.00  0.00     0.001 A 
ATOM      7  C   UNL d   1       1.662   5.515  -0.187  0.00  0.00     0.010 A 
BRANCH   3   8
ATOM      8  N   UNL d   1       4.897   3.619  -0.050  0.00  0.00    -0.115 N 
ATOM      9  O   UNL d   1       4.878   2.762  -0.943  0.00  0.00    -0.532 OA
ATOM     10  O   UNL d   1       5.704   3.666   0.888  0.00  0.00    -0.532 OA
ENDBRANCH   3   8
ENDBRANCH   1   2
BRANCH   1  11
ATOM     11  S   UNL d   1       0.206   2.735  -0.000  0.00  0.00    -0.088 SA
BRANCH  11  12
ATOM     12  C   UNL d   1       0.084   1.014   0.035  0.00  0.00     0.162 A 
ATOM     13  N   UNL d   1      -1.097   0.327   0.035  0.00  0.00    -0.326 N 
ATOM     14  C   UNL d   1      -0.750  -0.994   0.079  0.00  0.00     0.201 A 
ATOM     15  C   UNL d   1      -2.451   0.807  -0.002  0.00  0.00     0.159 C 
ATOM     16  N   UNL d   1       0.556  -1.107   0.102  0.00  0.00    -0.294 N 
ATOM     17  N   UNL d   1       1.084   0.164   0.074  0.00  0.00    -0.279 N 
ATOM     18  HN  UNL d   1       1.085  -1.979   0.135  1.00  0.00     0.187 HD
ATOM     19  HN  UNL d   1       2.076   0.403   0.082  1.00  0.00     0.189 HD
ENDBRANCH  11  12
ENDBRANCH   1  11
TORSDOF 4
