REMARK  4 active torsions:
REMARK  status: ('A' for Active; 'I' for Inactive)
REMARK    1  A    between atoms: N_2  and  C_1 
REMARK    2  A    between atoms: C_12  and  N_7 
REMARK    3  A    between atoms: C_16  and  C_12 
REMARK    4  A    between atoms: O_13  and  C_16 
ROOT
ATOM      1  N   UNL d   1      -3.836  -0.088   0.040  0.00  0.00    -0.380 N 
ATOM      2  N   UNL d   1      -6.511  -1.231  -0.551  0.00  0.00     0.093 N 
ATOM      3  C   UNL d   1      -4.606  -0.799   1.079  0.00  0.00     0.153 C 
ATOM      4  C   UNL d   1      -4.686   0.515  -1.010  0.00  0.00     0.153 C 
ATOM      5  C   UNL d   1      -5.692  -0.523  -1.572  0.00  0.00     0.292 C 
ATOM      6  C   UNL d   1      -5.569  -1.816   0.433  0.00  0.00     0.292 C 
ENDROOT
BRANCH   1   7
ATOM      7  C   UNL d   1      -2.447  -0.089  -0.013  0.00  0.00     0.012 A 
ATOM      8  C   UNL d   1      -1.647   0.577  -0.866  0.00  0.00     0.037 A 
ATOM      9  C   UNL d   1      -0.266   0.234  -0.583  0.00  0.00    -0.028 A 
ATOM     10  C   UNL d   1       0.892   0.653  -1.211  0.00  0.00     0.012 A 
ATOM     11  C   UNL d   1      -0.224  -0.665   0.482  0.00  0.00    -0.042 A 
ATOM     12  C   UNL d   1       2.110   0.147  -0.748  0.00  0.00     0.001 A 
ATOM     13  C   UNL d   1       2.149  -0.762   0.324  0.00  0.00     0.001 A 
ATOM     14  C   UNL d   1       0.973  -1.176   0.953  0.00  0.00     0.008 A 
ATOM     15  C   UNL d   1      -1.616  -0.935   0.955  0.00  0.00     0.096 A 
ENDBRANCH   1   7
BRANCH   2  16
ATOM     16  C   UNL d   1      -7.478  -0.297   0.057  0.00  0.00     0.298 C 
BRANCH  16  17
ATOM     17  C   UNL d   1      -8.395  -0.914   1.121  0.00  0.00     0.194 C 
BRANCH  17  18
ATOM     18  O   UNL d   1      -9.280   0.089   1.617  0.00  0.00    -0.399 OA
ATOM     19  H   UNL d   1      -9.809  -0.326   2.319  0.00  0.00     0.209 HD
ENDBRANCH  17  18
ENDBRANCH  16  17
ENDBRANCH   2  16
TORSDOF 4
