REMARK  6 active torsions:
REMARK  status: ('A' for Active; 'I' for Inactive)
REMARK    1  A    between atoms: C_2  and  C_1 
REMARK       I    between atoms: N_3  and  C_1 
REMARK    2  A    between atoms: C_7  and  N_4 
REMARK    3  A    between atoms: C_6  and  C_5 
REMARK    4  A    between atoms: O_16  and  C_6 
REMARK    5  A    between atoms: C_14  and  C_7 
REMARK    6  A    between atoms: C_15  and  C_7 
ROOT
ATOM      1  C   UNL d   1       0.809   0.093   0.333  0.00  0.00     0.255 C 
ATOM      2  N   UNL d   1       0.266  -1.200   0.316  0.00  0.00    -0.345 N 
ATOM      3  N   UNL d   1      -0.655  -4.035   0.402  0.00  0.00     0.105 N 
ATOM      4  O   UNL d   1       1.758   0.392   1.052  0.00  0.00    -0.267 OA
ATOM      5  C   UNL d   1       0.795  -2.149   1.306  0.00  0.00     0.156 C 
ATOM      6  C   UNL d   1      -0.972  -1.618  -0.361  0.00  0.00     0.156 C 
ATOM      7  C   UNL d   1       0.695  -3.612   0.842  0.00  0.00     0.293 C 
ATOM      8  C   UNL d   1      -1.034  -3.121  -0.705  0.00  0.00     0.293 C 
ENDROOT
BRANCH   3   9
ATOM      9  C   UNL d   1      -1.670  -4.041   1.500  0.00  0.00     0.289 C 
BRANCH   9  10
ATOM     10  C   UNL d   1      -3.053  -4.480   0.998  0.00  0.00    -0.021 A 
ATOM     11  C   UNL d   1      -3.233  -5.721   0.363  0.00  0.00     0.010 A 
ATOM     12  C   UNL d   1      -4.494  -6.121  -0.078  0.00  0.00     0.001 A 
ATOM     13  C   UNL d   1      -5.592  -5.285   0.102  0.00  0.00     0.000 A 
ATOM     14  C   UNL d   1      -5.431  -4.046   0.722  0.00  0.00     0.001 A 
ATOM     15  C   UNL d   1      -4.171  -3.646   1.170  0.00  0.00     0.010 A 
ENDBRANCH   9  10
BRANCH   9  16
ATOM     16  C   UNL d   1      -1.294  -4.876   2.735  0.00  0.00    -0.021 A 
ATOM     17  C   UNL d   1      -1.720  -4.450   4.007  0.00  0.00     0.010 A 
ATOM     18  C   UNL d   1      -1.448  -5.211   5.147  0.00  0.00     0.001 A 
ATOM     19  C   UNL d   1      -0.749  -6.410   5.033  0.00  0.00     0.000 A 
ATOM     20  C   UNL d   1      -0.328  -6.852   3.781  0.00  0.00     0.001 A 
ATOM     21  C   UNL d   1      -0.606  -6.096   2.640  0.00  0.00     0.010 A 
ENDBRANCH   9  16
ENDBRANCH   3   9
BRANCH   1  22
ATOM     22  C   UNL d   1       0.299   1.172  -0.550  0.00  0.00     0.049 A 
ATOM     23  C   UNL d   1       1.152   2.032  -1.278  0.00  0.00     0.053 A 
ATOM     24  C   UNL d   1       0.548   3.023  -2.089  0.00  0.00     0.019 A 
ATOM     25  C   UNL d   1      -0.837   3.161  -2.187  0.00  0.00     0.001 A 
ATOM     26  C   UNL d   1      -1.660   2.347  -1.428  0.00  0.00     0.001 A 
ATOM     27  C   UNL d   1      -1.092   1.395  -0.585  0.00  0.00     0.018 A 
BRANCH  23  28
ATOM     28  C   UNL d   1       2.657   2.032  -1.355  0.00  0.00     0.177 C 
ATOM     29  O   UNL d   1       3.240   2.812  -2.096  0.00  0.00    -0.646 OA
BRANCH  28  30
ATOM     30  O   UNL d   1       3.361   1.140  -0.642  0.00  0.00    -0.773 OA
ATOM     31  H   UNL d   1       2.912   0.772   0.153  0.00  0.00     0.167 HD
ENDBRANCH  28  30
ENDBRANCH  23  28
ENDBRANCH   1  22
TORSDOF 6
