REMARK  5 active torsions:
REMARK  status: ('A' for Active; 'I' for Inactive)
REMARK    1  A    between atoms: S_2  and  C_8 
REMARK    2  A    between atoms: N_12  and  S_2 
REMARK    3  A    between atoms: C_18  and  N_12 
REMARK    4  A    between atoms: C_22  and  C_18 
REMARK    5  A    between atoms: C_19  and  C_22 
ROOT
ATOM      1  S   UNL d   1      -3.617  -1.645  -0.023  0.00  0.00     0.258 S 
ATOM      2  O   UNL d   1      -3.636  -2.347  -1.286  0.00  0.00    -0.201 OA
ATOM      3  O   UNL d   1      -3.778  -2.318   1.244  0.00  0.00    -0.201 OA
ENDROOT
BRANCH   1   4
ATOM      4  C   UNL d   1      -2.103  -0.715   0.070  0.00  0.00     0.080 A 
ATOM      5  C   UNL d   1      -1.938   0.165   1.139  0.00  0.00     0.043 A 
ATOM      6  C   UNL d   1      -0.766   0.900   1.181  0.00  0.00     0.051 A 
ATOM      7  C   UNL d   1      -0.426   1.872   2.224  0.00  0.00     0.241 A 
ATOM      8  C   UNL d   1       0.255   0.800   0.210  0.00  0.00     0.055 A 
ATOM      9  S   UNL d   1       1.172   2.525   1.855  0.00  0.00     0.032 SA
ATOM     10  O   UNL d   1      -1.139   2.190   3.164  0.00  0.00    -0.278 OA
ATOM     11  N   UNL d   1       1.350   1.613   0.453  0.00  0.00    -0.318 N 
ATOM     12  C   UNL d   1       2.540   1.715  -0.352  0.00  0.00     0.165 C 
ATOM     13  C   UNL d   1       0.057  -0.077  -0.851  0.00  0.00     0.032 A 
ATOM     14  C   UNL d   1      -1.125  -0.835  -0.927  0.00  0.00     0.027 A 
ENDBRANCH   1   4
BRANCH   1  15
ATOM     15  N   UNL d   1      -4.775  -0.406  -0.096  0.00  0.00    -0.315 N 
ATOM     16  H   UNL d   1      -4.994  -0.043   0.833  0.00  0.00     0.172 HD
BRANCH  15  17
ATOM     17  C   UNL d   1      -4.609   0.557  -1.201  0.00  0.00     0.137 C 
BRANCH  17  18
ATOM     18  C   UNL d   1      -5.748   1.573  -1.269  0.00  0.00     0.059 C 
BRANCH  18  19
ATOM     19  C   UNL d   1      -5.475   2.596  -2.351  0.00  0.00    -0.054 A 
ATOM     20  C   UNL d   1      -5.915   2.401  -3.664  0.00  0.00     0.024 A 
ATOM     21  C   UNL d   1      -5.596   3.355  -4.623  0.00  0.00     0.088 A 
ATOM     22  N   UNL d   1      -4.872   4.464  -4.368  0.00  0.00    -0.375 N 
ATOM     23  C   UNL d   1      -4.454   4.636  -3.098  0.00  0.00     0.088 A 
ATOM     24  HN  UNL d   1      -4.652   5.140  -5.100  1.00  0.00     0.164 HD
ATOM     25  C   UNL d   1      -4.725   3.743  -2.069  0.00  0.00     0.024 A 
ENDBRANCH  18  19
ENDBRANCH  17  18
ENDBRANCH  15  17
ENDBRANCH   1  15
TORSDOF 5
