REMARK  2 active torsions:
REMARK  status: ('A' for Active; 'I' for Inactive)
REMARK    1  A    between atoms: N_8  and  C_1 
REMARK       I    between atoms: C_9  and  N_8 
REMARK    2  A    between atoms: C_13  and  C_9 
ROOT
ATOM      1  C   UNL d   1       2.059   0.578   0.262  0.00  0.00     0.155 C 
ATOM      2  C   UNL d   1      -0.468  -0.554   0.105  0.00  0.00     0.089 A 
ATOM      3  S   UNL d   1       2.082  -1.133   0.555  0.00  0.00    -0.010 SA
ATOM      4  C   UNL d   1       0.520  -1.568  -0.089  0.00  0.00     0.235 C 
ATOM      5  N   UNL d   1       1.036   1.371   0.195  0.00  0.00    -0.335 N 
ATOM      6  HN  UNL d   1       1.148   2.379   0.085  1.00  0.00     0.168 HD
ATOM      7  C   UNL d   1      -0.227   0.780   0.282  0.00  0.00     0.056 A 
ATOM      8  S   UNL d   1      -2.134  -0.908   0.128  0.00  0.00    -0.095 SA
ATOM      9  C   UNL d   1      -1.409   1.536   0.475  0.00  0.00     0.038 A 
ATOM     10  C   UNL d   1      -2.530   0.734   0.428  0.00  0.00     0.053 A 
ATOM     11  O   UNL d   1       0.338  -2.672  -0.587  0.00  0.00    -0.279 OA
ENDROOT
BRANCH   1  12
ATOM     12  N   UNL d   1       3.275   1.215   0.084  0.00  0.00    -0.303 N 
ATOM     13  C   UNL d   1       4.578   0.727   0.051  0.00  0.00     0.257 C 
ATOM     14  O   UNL d   1       4.931  -0.404   0.358  0.00  0.00    -0.267 OA
ATOM     15  H   UNL d   1       3.143   2.206  -0.064  0.00  0.00     0.171 HD
BRANCH  13  16
ATOM     16  C   UNL d   1       5.630   1.711  -0.327  0.00  0.00     0.032 A 
ATOM     17  C   UNL d   1       6.907   1.559   0.235  0.00  0.00     0.020 A 
ATOM     18  C   UNL d   1       7.924   2.460  -0.071  0.00  0.00     0.043 A 
ATOM     19  C   UNL d   1       7.666   3.507  -0.950  0.00  0.00     0.116 A 
ATOM     20  C   UNL d   1       6.414   3.655  -1.542  0.00  0.00     0.043 A 
ATOM     21  F   UNL d   1       8.637   4.379  -1.241  0.00  0.00    -0.206 F 
ATOM     22  C   UNL d   1       5.390   2.753  -1.236  0.00  0.00     0.020 A 
ENDBRANCH  13  16
ENDBRANCH   1  12
TORSDOF 2
