REMARK  4 active torsions:
REMARK  status: ('A' for Active; 'I' for Inactive)
REMARK    1  A    between atoms: C_2  and  C_7 
REMARK    2  A    between atoms: C_3  and  C_8 
REMARK    3  A    between atoms: N_13  and  C_6 
REMARK    4  A    between atoms: C_14  and  N_13 
ROOT
ATOM      1  C   UNL d   1      -6.760  -0.349  -1.550  0.00  0.00     0.050 A 
ATOM      2  C   UNL d   1      -6.959  -2.240  -0.024  0.00  0.00     0.050 A 
ATOM      3  C   UNL d   1      -7.548  -1.285  -0.867  0.00  0.00     0.032 A 
ATOM      4  C   UNL d   1      -4.748  -1.331  -0.553  0.00  0.00     0.033 A 
ATOM      5  C   UNL d   1      -5.367  -0.380  -1.373  0.00  0.00     0.045 A 
ATOM      6  C   UNL d   1      -5.559  -2.260   0.110  0.00  0.00     0.045 A 
ENDROOT
BRANCH   4   7
ATOM      7  N   UNL d   1      -3.374  -1.303  -0.282  0.00  0.00    -0.365 N 
ATOM      8  H   UNL d   1      -2.932  -2.181   0.005  0.00  0.00     0.165 HD
BRANCH   7   9
ATOM      9  C   UNL d   1      -2.565  -0.191  -0.225  0.00  0.00     0.107 C 
ATOM     10  C   UNL d   1      -1.251  -0.116   0.049  0.00  0.00     0.071 C 
ATOM     11  C   UNL d   1      -0.450  -1.346   0.301  0.00  0.00     0.165 C 
ATOM     12  C   UNL d   1      -0.625   1.236   0.087  0.00  0.00     0.165 C 
ATOM     13  C   UNL d   1       1.029  -1.180   0.579  0.00  0.00     0.093 C 
ATOM     14  O   UNL d   1      -0.973  -2.460   0.346  0.00  0.00    -0.292 OA
ATOM     15  C   UNL d   1       1.646   0.086  -0.039  0.00  0.00    -0.034 C 
ATOM     16  C   UNL d   1       0.850   1.322   0.406  0.00  0.00     0.093 C 
ATOM     17  C   UNL d   1       3.094   0.228   0.469  0.00  0.00     0.015 C 
ATOM     18  C   UNL d   1       1.691  -0.014  -1.577  0.00  0.00     0.015 C 
ATOM     19  O   UNL d   1      -1.286   2.261  -0.074  0.00  0.00    -0.292 OA
ENDBRANCH   7   9
ENDBRANCH   4   7
BRANCH   1  20
ATOM     20  C   UNL d   1      -7.369   0.699  -2.447  0.00  0.00     0.417 C 
ATOM     21  F   UNL d   1      -8.728   0.633  -2.513  0.00  0.00    -0.166 F 
ATOM     22  F   UNL d   1      -7.077   1.965  -2.039  0.00  0.00    -0.166 F 
ATOM     23  F   UNL d   1      -6.928   0.607  -3.731  0.00  0.00    -0.166 F 
ENDBRANCH   1  20
BRANCH   2  24
ATOM     24  C   UNL d   1      -7.801  -3.213   0.766  0.00  0.00     0.417 C 
ATOM     25  F   UNL d   1      -9.140  -3.038   0.590  0.00  0.00    -0.166 F 
ATOM     26  F   UNL d   1      -7.546  -4.509   0.443  0.00  0.00    -0.166 F 
ATOM     27  F   UNL d   1      -7.587  -3.111   2.108  0.00  0.00    -0.166 F 
ENDBRANCH   2  24
TORSDOF 4
