REMARK  7 active torsions:
REMARK  status: ('A' for Active; 'I' for Inactive)
REMARK    1  A    between atoms: N_4  and  S_1 
REMARK    2  A    between atoms: C_8  and  S_1 
REMARK    3  A    between atoms: S_2  and  N_7 
REMARK    4  A    between atoms: C_9  and  S_2 
REMARK    5  A    between atoms: C_3  and  C_5 
REMARK    6  A    between atoms: C_6  and  N_4 
REMARK    7  A    between atoms: N_7  and  C_21 
ROOT
ATOM      1  C   UNL d   1       0.386   0.140   1.583  0.00  0.00     0.075 A 
ATOM      2  C   UNL d   1       0.287  -1.077   2.268  0.00  0.00     0.027 A 
ATOM      3  C   UNL d   1       0.191   1.348   2.262  0.00  0.00     0.027 A 
ATOM      4  C   UNL d   1      -0.308   0.117   4.287  0.00  0.00     0.042 A 
ATOM      5  C   UNL d   1      -0.065  -1.085   3.623  0.00  0.00     0.031 A 
ATOM      6  C   UNL d   1      -0.172   1.331   3.613  0.00  0.00     0.031 A 
ENDROOT
BRANCH   1   7
ATOM      7  S   UNL d   1       0.786   0.161  -0.158  0.00  0.00     0.245 S 
ATOM      8  O   UNL d   1       1.354   1.458  -0.461  0.00  0.00    -0.206 OA
ATOM      9  O   UNL d   1       1.468  -1.072  -0.482  0.00  0.00    -0.206 OA
BRANCH   7  10
ATOM     10  N   UNL d   1      -0.778   0.154  -0.852  0.00  0.00    -0.181 NA
ATOM     11  H   UNL d   1      -1.098   1.126  -0.829  0.00  0.00     0.146 HD
BRANCH  10  12
ATOM     12  C   UNL d   1      -0.861  -0.368  -2.191  0.00  0.00     0.037 A 
ATOM     13  C   UNL d   1      -1.079  -1.729  -2.450  0.00  0.00     0.070 A 
ATOM     14  C   UNL d   1      -1.187  -2.151  -3.794  0.00  0.00     0.018 A 
ATOM     15  C   UNL d   1      -1.078  -1.248  -4.850  0.00  0.00     0.001 A 
ATOM     16  C   UNL d   1      -0.835   0.094  -4.581  0.00  0.00     0.002 A 
ATOM     17  C   UNL d   1      -0.714   0.530  -3.260  0.00  0.00     0.025 A 
BRANCH  13  18
ATOM     18  C   UNL d   1      -1.263  -2.778  -1.386  0.00  0.00     0.419 C 
ATOM     19  F   UNL d   1      -1.185  -2.349  -0.098  0.00  0.00    -0.166 F 
ATOM     20  F   UNL d   1      -2.487  -3.379  -1.484  0.00  0.00    -0.166 F 
ATOM     21  F   UNL d   1      -0.359  -3.794  -1.494  0.00  0.00    -0.166 F 
ENDBRANCH  13  18
ENDBRANCH  10  12
ENDBRANCH   7  10
ENDBRANCH   1   7
BRANCH   4  22
ATOM     22  N   UNL d   1      -0.798   0.112   5.613  0.00  0.00    -0.281 N 
ATOM     23  H   UNL d   1      -1.783   0.293   5.796  0.00  0.00     0.179 HD
BRANCH  22  24
ATOM     24  S   UNL d   1       0.209   0.053   6.946  0.00  0.00     0.263 S 
ATOM     25  O   UNL d   1      -0.650   0.190   8.106  0.00  0.00    -0.200 OA
ATOM     26  O   UNL d   1       1.117  -1.066   6.807  0.00  0.00    -0.200 OA
BRANCH  24  27
ATOM     27  C   UNL d   1       1.159   1.554   6.811  0.00  0.00     0.080 A 
ATOM     28  C   UNL d   1       0.676   2.741   7.378  0.00  0.00     0.027 A 
ATOM     29  C   UNL d   1       1.442   3.906   7.288  0.00  0.00     0.025 A 
ATOM     30  C   UNL d   1       2.680   3.877   6.646  0.00  0.00     0.034 A 
ATOM     31  C   UNL d   1       3.169   2.689   6.098  0.00  0.00     0.025 A 
ATOM     32 CL   UNL d   1       3.619   5.314   6.534  0.00  0.00    -0.084 Cl
ATOM     33  C   UNL d   1       2.410   1.521   6.185  0.00  0.00     0.027 A 
ENDBRANCH  24  27
ENDBRANCH  22  24
ENDBRANCH   4  22
TORSDOF 7
