REMARK  8 active torsions:
REMARK  status: ('A' for Active; 'I' for Inactive)
REMARK    1  A    between atoms: C_3  and  N_1 
REMARK       I    between atoms: C_2  and  N_10 
REMARK    2  A    between atoms: C_5  and  C_2 
REMARK    3  A    between atoms: C_20  and  N_4 
REMARK    4  A    between atoms: O_19  and  C_9 
REMARK    5  A    between atoms: N_10  and  C_23 
REMARK    6  A    between atoms: C_25  and  C_20 
REMARK    7  A    between atoms: C_23  and  C_26 
REMARK    8  A    between atoms: C_26  and  C_25 
ROOT
ATOM      1  C   UNL d   1       1.497   0.124  -1.883  0.00  0.00     0.272 C 
ENDROOT
BRANCH   1   2
ATOM      2  N   UNL d   1       1.396  -0.026  -0.424  0.00  0.00     0.091 N 
ATOM      3  C   UNL d   1       0.743   1.131   0.224  0.00  0.00     0.292 C 
ATOM      4  C   UNL d   1      -0.770   1.265  -0.050  0.00  0.00     0.153 C 
ATOM      5  N   UNL d   1      -1.480   0.031   0.343  0.00  0.00    -0.375 N 
ATOM      6  C   UNL d   1      -0.908  -1.183  -0.270  0.00  0.00     0.153 C 
ATOM      7  C   UNL d   1       0.629  -1.242  -0.040  0.00  0.00     0.292 C 
BRANCH   5   8
ATOM      8  C   UNL d   1      -2.663   0.088   1.073  0.00  0.00     0.064 A 
ATOM      9  C   UNL d   1      -3.206  -0.962   1.862  0.00  0.00     0.094 A 
ATOM     10  C   UNL d   1      -4.320  -0.729   2.701  0.00  0.00     0.039 A 
ATOM     11  C   UNL d   1      -4.958   0.506   2.740  0.00  0.00     0.003 A 
ATOM     12  C   UNL d   1      -4.504   1.520   1.923  0.00  0.00     0.002 A 
ATOM     13  C   UNL d   1      -3.395   1.302   1.103  0.00  0.00     0.032 A 
BRANCH   9  14
ATOM     14  O   UNL d   1      -2.587  -2.192   1.881  0.00  0.00    -0.354 OA
ATOM     15  C   UNL d   1      -3.437  -3.307   2.155  0.00  0.00     0.210 C 
ENDBRANCH   9  14
ENDBRANCH   5   8
ENDBRANCH   1   2
BRANCH   1  16
ATOM     16  C   UNL d   1       2.427   1.275  -2.309  0.00  0.00     0.032 C 
BRANCH  16  17
ATOM     17  C   UNL d   1       3.835   1.202  -1.706  0.00  0.00     0.021 C 
BRANCH  17  18
ATOM     18  C   UNL d   1       4.591  -0.030  -2.189  0.00  0.00     0.123 C 
BRANCH  18  19
ATOM     19  N   UNL d   1       5.918  -0.093  -1.617  0.00  0.00    -0.357 N 
ATOM     20  C   UNL d   1       6.949  -0.681  -2.321  0.00  0.00     0.251 C 
ATOM     21  O   UNL d   1       6.826  -1.080  -3.470  0.00  0.00    -0.268 OA
ATOM     22  H   UNL d   1       5.975  -0.030  -0.610  0.00  0.00     0.162 HD
BRANCH  20  23
ATOM     23  C   UNL d   1       8.262  -0.834  -1.623  0.00  0.00     0.032 A 
ATOM     24  C   UNL d   1       8.543  -0.264  -0.373  0.00  0.00     0.018 A 
ATOM     25  C   UNL d   1       9.807  -0.426   0.205  0.00  0.00     0.025 A 
ATOM     26  C   UNL d   1      10.794  -1.143  -0.467  0.00  0.00     0.034 A 
ATOM     27  C   UNL d   1      10.531  -1.710  -1.711  0.00  0.00     0.025 A 
ATOM     28 CL   UNL d   1      12.353  -1.319   0.240  0.00  0.00    -0.084 Cl
ATOM     29  C   UNL d   1       9.268  -1.557  -2.285  0.00  0.00     0.018 A 
ENDBRANCH  20  23
ENDBRANCH  18  19
ENDBRANCH  17  18
ENDBRANCH  16  17
ENDBRANCH   1  16
TORSDOF 8
