REMARK  6 active torsions:
REMARK  status: ('A' for Active; 'I' for Inactive)
REMARK    1  A    between atoms: C_3  and  C_1 
REMARK    2  A    between atoms: C_7  and  N_2 
REMARK       I    between atoms: C_8  and  N_13 
REMARK    3  A    between atoms: C_9  and  C_8 
REMARK    4  A    between atoms: C_10  and  C_11 
REMARK    5  A    between atoms: O_22  and  C_10 
REMARK    6  A    between atoms: N_13  and  C_21 
ROOT
ATOM      1  C   UNL d   1       2.183  -1.168   0.056  0.00  0.00     0.057 A 
ATOM      2  C   UNL d   1       2.520  -1.748  -1.168  0.00  0.00     0.034 A 
ATOM      3  C   UNL d   1       3.077  -1.248   1.131  0.00  0.00     0.034 A 
ATOM      4  C   UNL d   1       4.537  -2.681  -0.180  0.00  0.00     0.035 A 
ATOM      5  C   UNL d   1       4.239  -2.019   1.014  0.00  0.00     0.032 A 
ATOM      6  C   UNL d   1       3.697  -2.492  -1.284  0.00  0.00     0.032 A 
ENDROOT
BRANCH   1   7
ATOM      7  N   UNL d   1       0.948  -0.488   0.221  0.00  0.00    -0.252 N 
ATOM      8  C   UNL d   1      -0.283  -0.745  -0.345  0.00  0.00     0.141 C 
ATOM      9  C   UNL d   1      -1.056   0.376  -0.111  0.00  0.00     0.055 C 
ATOM     10  C   UNL d   1      -0.275   1.181   0.725  0.00  0.00     0.110 C 
ATOM     11  N   UNL d   1       0.899   0.618   1.009  0.00  0.00    -0.305 N 
ATOM     12  HN  UNL d   1       1.603   0.945   1.671  1.00  0.00     0.186 HD
BRANCH   8  13
ATOM     13  C   UNL d   1      -0.658  -2.017  -0.982  0.00  0.00     0.434 C 
ATOM     14  F   UNL d   1       0.173  -3.052  -0.716  0.00  0.00    -0.165 F 
ATOM     15  F   UNL d   1      -1.893  -2.418  -0.578  0.00  0.00    -0.165 F 
ATOM     16  F   UNL d   1      -0.718  -1.891  -2.332  0.00  0.00    -0.165 F 
ENDBRANCH   8  13
ENDBRANCH   1   7
BRANCH   4  17
ATOM     17  N   UNL d   1       5.609  -3.586  -0.342  0.00  0.00    -0.324 N 
ATOM     18  C   UNL d   1       6.449  -4.053   0.646  0.00  0.00     0.245 C 
ATOM     19  O   UNL d   1       6.524  -3.672   1.802  0.00  0.00    -0.268 OA
ATOM     20  H   UNL d   1       5.682  -4.010  -1.258  0.00  0.00     0.169 HD
BRANCH  18  21
ATOM     21  C   UNL d   1       7.298  -5.178   0.170  0.00  0.00     0.081 C 
ATOM     22  C   UNL d   1       8.146  -5.757   1.034  0.00  0.00     0.086 C 
BRANCH  22  23
ATOM     23  C   UNL d   1       8.945  -6.905   0.585  0.00  0.00     0.165 C 
ATOM     24  O   UNL d   1       8.857  -7.411  -0.520  0.00  0.00    -0.647 OA
BRANCH  23  25
ATOM     25  O   UNL d   1       9.790  -7.341   1.538  0.00  0.00    -0.773 OA
ATOM     26  H   UNL d   1       9.771  -6.847   2.378  0.00  0.00     0.167 HD
ENDBRANCH  23  25
ENDBRANCH  22  23
ENDBRANCH  18  21
ENDBRANCH   4  17
TORSDOF 6
