REMARK  5 active torsions:
REMARK  status: ('A' for Active; 'I' for Inactive)
REMARK    1  A    between atoms: C_3  and  C_1 
REMARK    2  A    between atoms: C_4  and  C_1 
REMARK    3  A    between atoms: C_8  and  C_2 
REMARK    4  A    between atoms: N_14  and  C_3 
REMARK    5  A    between atoms: N_5  and  C_4 
ROOT
ATOM      1  C   UNL d   1       0.988   0.039  -0.091  0.00  0.00     0.065 C 
ATOM      2  C   UNL d   1       0.349   0.060  -1.283  0.00  0.00     0.043 C 
ENDROOT
BRANCH   1   3
ATOM      3  C   UNL d   1       0.245   0.040   1.212  0.00  0.00     0.114 C 
ATOM      4  S   UNL d   1      -1.416   0.045   1.448  0.00  0.00    -0.059 SA
BRANCH   3   5
ATOM      5  N   UNL d   1       1.013   0.026   2.346  0.00  0.00    -0.389 N 
ATOM      6  H   UNL d   1       2.029   0.023   2.376  0.00  0.00     0.157 HD
ATOM      7  H   UNL d   1       0.541   0.025   3.246  0.00  0.00     0.157 HD
ENDBRANCH   3   5
ENDBRANCH   1   3
BRANCH   1   8
ATOM      8  C   UNL d   1       2.508   0.039  -0.091  0.00  0.00    -0.034 C 
BRANCH   8   9
ATOM      9  N   UNL d   1       3.769   0.039  -0.091  0.00  0.00    -0.365 N 
ATOM     10  HN2 UNL d   1       2.749   0.039  -0.091  1.00  0.00     0.165 HD
ATOM     11  HN1 UNL d   1       4.789   0.039  -0.091  1.00  0.00     0.165 HD
ENDBRANCH   8   9
ENDBRANCH   1   8
BRANCH   2  12
ATOM     12  C   UNL d   1       1.063   0.026  -2.519  0.00  0.00     0.006 A 
ATOM     13  S   UNL d   1       1.575   1.484  -3.276  0.00  0.00    -0.102 SA
ATOM     14  C   UNL d   1       2.371   0.638  -4.532  0.00  0.00     0.050 A 
ATOM     15  C   UNL d   1       2.214  -0.724  -4.415  0.00  0.00     0.008 A 
ATOM     16  C   UNL d   1       1.445  -1.074  -3.267  0.00  0.00     0.019 A 
ENDBRANCH   2  12
TORSDOF 5
