REMARK  4 active torsions:
REMARK  status: ('A' for Active; 'I' for Inactive)
REMARK       I    between atoms: C_2  and  N_1 
REMARK    1  A    between atoms: C_10  and  C_2 
REMARK    2  A    between atoms: C_4  and  N_3 
REMARK    3  A    between atoms: C_11  and  C_4 
REMARK    4  A    between atoms: C_12  and  C_4 
ROOT
ATOM      1  N   UNL d   1      -1.172   0.195   0.477  0.00  0.00    -0.348 N 
ATOM      2  C   UNL d   1      -2.488   0.226   0.926  0.00  0.00     0.224 C 
ATOM      3  N   UNL d   1       1.726   0.287  -0.192  0.00  0.00     0.105 N 
ATOM      4  C   UNL d   1      -0.425  -1.016   0.142  0.00  0.00     0.156 C 
ATOM      5  C   UNL d   1      -0.559   1.451   0.018  0.00  0.00     0.156 C 
ATOM      6  C   UNL d   1       1.071  -0.873   0.450  0.00  0.00     0.293 C 
ATOM      7  C   UNL d   1       0.971   1.498   0.238  0.00  0.00     0.293 C 
ATOM      8  O   UNL d   1      -3.098   1.295   1.032  0.00  0.00    -0.273 OA
ENDROOT
BRANCH   3   9
ATOM      9  C   UNL d   1       1.820   0.179  -1.680  0.00  0.00     0.289 C 
BRANCH   9  10
ATOM     10  C   UNL d   1       2.570   1.376  -2.281  0.00  0.00    -0.021 A 
ATOM     11  C   UNL d   1       3.892   1.670  -1.907  0.00  0.00     0.010 A 
ATOM     12  C   UNL d   1       4.553   2.782  -2.428  0.00  0.00     0.001 A 
ATOM     13  C   UNL d   1       3.899   3.623  -3.324  0.00  0.00     0.000 A 
ATOM     14  C   UNL d   1       2.588   3.347  -3.709  0.00  0.00     0.001 A 
ATOM     15  C   UNL d   1       1.928   2.227  -3.196  0.00  0.00     0.010 A 
ENDBRANCH   9  10
BRANCH   9  16
ATOM     16  C   UNL d   1       2.436  -1.133  -2.195  0.00  0.00    -0.021 A 
ATOM     17  C   UNL d   1       1.931  -1.723  -3.368  0.00  0.00     0.010 A 
ATOM     18  C   UNL d   1       2.483  -2.903  -3.873  0.00  0.00     0.001 A 
ATOM     19  C   UNL d   1       3.552  -3.511  -3.218  0.00  0.00     0.000 A 
ATOM     20  C   UNL d   1       4.074  -2.937  -2.062  0.00  0.00     0.001 A 
ATOM     21  C   UNL d   1       3.528  -1.753  -1.561  0.00  0.00     0.010 A 
ENDBRANCH   9  16
ENDBRANCH   3   9
BRANCH   2  22
ATOM     22  C   UNL d   1      -3.168  -1.109   1.299  0.00  0.00     0.078 C 
ATOM     23  C   UNL d   1      -3.542  -1.944   0.070  0.00  0.00     0.014 C 
ATOM     24  C   UNL d   1      -4.712  -1.348  -0.708  0.00  0.00     0.001 C 
ATOM     25  C   UNL d   1      -5.941  -1.147   0.167  0.00  0.00     0.000 C 
ATOM     26  C   UNL d   1      -5.642  -0.399   1.462  0.00  0.00     0.001 C 
ATOM     27  C   UNL d   1      -4.404  -0.920   2.194  0.00  0.00     0.014 C 
ENDBRANCH   2  22
TORSDOF 4
