REMARK  7 active torsions:
REMARK  status: ('A' for Active; 'I' for Inactive)
REMARK    1  A    between atoms: C_6  and  C_1 
REMARK    2  A    between atoms: C_8  and  C_2 
REMARK    3  A    between atoms: C_13  and  N_3 
REMARK       I    between atoms: N_11  and  C_8 
REMARK    4  A    between atoms: C_9  and  O_15 
REMARK       I    between atoms: C_10  and  N_12 
REMARK    5  A    between atoms: C_14  and  C_10 
REMARK    6  A    between atoms: N_12  and  N_11 
REMARK    7  A    between atoms: O_15  and  C_28 
ROOT
ATOM      1  C   UNL d   1      -0.721  -2.635  -0.067  0.00  0.00     0.273 C 
ATOM      2  N   UNL d   1       0.163  -3.692  -0.025  0.00  0.00    -0.263 N 
ATOM      3  O   UNL d   1      -1.934  -2.829  -0.107  0.00  0.00    -0.266 OA
ATOM      4  H   UNL d   1       1.163  -3.599   0.155  0.00  0.00     0.190 HD
ENDROOT
BRANCH   1   5
ATOM      5  C   UNL d   1      -0.174  -1.274  -0.054  0.00  0.00     0.084 A 
ATOM      6  C   UNL d   1       1.097  -0.743   0.188  0.00  0.00     0.157 A 
ATOM      7  N   UNL d   1       0.983   0.643   0.111  0.00  0.00    -0.251 N 
ATOM      8  N   UNL d   1      -0.308   1.004  -0.108  0.00  0.00    -0.303 N 
ATOM      9  C   UNL d   1      -0.974  -0.133  -0.255  0.00  0.00     0.127 A 
ATOM     10  HN  UNL d   1      -0.685   1.951  -0.151  1.00  0.00     0.186 HD
BRANCH   6  11
ATOM     11  C   UNL d   1       2.360  -1.390   0.569  0.00  0.00     0.435 C 
ATOM     12  F   UNL d   1       2.172  -2.665   0.987  0.00  0.00    -0.165 F 
ATOM     13  F   UNL d   1       3.215  -1.468  -0.480  0.00  0.00    -0.165 F 
ATOM     14  F   UNL d   1       2.997  -0.761   1.581  0.00  0.00    -0.165 F 
ENDBRANCH   6  11
BRANCH   7  15
ATOM     15  C   UNL d   1       1.947   1.704   0.222  0.00  0.00     0.057 A 
ATOM     16  C   UNL d   1       3.313   1.535  -0.030  0.00  0.00     0.033 A 
ATOM     17  C   UNL d   1       4.196   2.621   0.067  0.00  0.00     0.026 A 
ATOM     18  C   UNL d   1       3.723   3.884   0.408  0.00  0.00     0.034 A 
ATOM     19  C   UNL d   1       2.370   4.075   0.660  0.00  0.00     0.026 A 
ATOM     20 CL   UNL d   1       4.811   5.213   0.493  0.00  0.00    -0.084 Cl
ATOM     21  C   UNL d   1       1.486   2.994   0.559  0.00  0.00     0.033 A 
ENDBRANCH   7  15
ENDBRANCH   1   5
BRANCH   2  22
ATOM     22  N   UNL d   1      -0.344  -4.996   0.167  0.00  0.00    -0.263 N 
ATOM     23  C   UNL d   1       0.567  -5.978   0.514  0.00  0.00     0.270 C 
ATOM     24  O   UNL d   1       1.778  -5.778   0.547  0.00  0.00    -0.266 OA
ATOM     25  H   UNL d   1      -1.338  -5.064   0.366  0.00  0.00     0.190 HD
BRANCH  23  26
ATOM     26  C   UNL d   1       0.004  -7.295   0.913  0.00  0.00     0.033 A 
ATOM     27  C   UNL d   1      -1.197  -7.779   0.383  0.00  0.00     0.020 A 
ATOM     28  C   UNL d   1      -1.705  -9.013   0.805  0.00  0.00     0.038 A 
ATOM     29  C   UNL d   1      -1.040  -9.753   1.784  0.00  0.00     0.078 A 
ATOM     30  C   UNL d   1       0.195  -9.303   2.260  0.00  0.00     0.038 A 
ATOM     31  C   UNL d   1       0.717  -8.080   1.827  0.00  0.00     0.020 A 
BRANCH  29  32
ATOM     32  O   UNL d   1      -1.452 -10.960   2.255  0.00  0.00    -0.255 OA
BRANCH  32  33
ATOM     33  C   UNL d   1      -2.831 -11.129   2.573  0.00  0.00     0.530 C 
ATOM     34  F   UNL d   1      -3.617 -10.089   2.225  0.00  0.00    -0.144 F 
ATOM     35  F   UNL d   1      -3.288 -12.236   1.946  0.00  0.00    -0.144 F 
ATOM     36  F   UNL d   1      -2.955 -11.319   3.905  0.00  0.00    -0.144 F 
ENDBRANCH  32  33
ENDBRANCH  29  32
ENDBRANCH  23  26
ENDBRANCH   2  22
TORSDOF 7
