REMARK  7 active torsions:
REMARK  status: ('A' for Active; 'I' for Inactive)
REMARK    1  A    between atoms: C_2  and  S_1 
REMARK    2  A    between atoms: N_9  and  S_1 
REMARK    3  A    between atoms: O_18  and  C_8 
REMARK    4  A    between atoms: C_17  and  N_9 
REMARK    5  A    between atoms: O_19  and  C_10 
REMARK    6  A    between atoms: O_20  and  C_11 
REMARK    7  A    between atoms: C_16  and  C_17 
ROOT
ATOM      1  N   UNL d   1       0.152   1.331   0.696  0.00  0.00    -0.311 N 
ATOM      2  H   UNL d   1      -0.850   1.381   0.843  0.00  0.00     0.172 HD
ENDROOT
BRANCH   1   3
ATOM      3  S   UNL d   1       0.673  -0.234   0.427  0.00  0.00     0.263 S 
ATOM      4  O   UNL d   1      -0.417  -0.910  -0.249  0.00  0.00    -0.200 OA
ATOM      5  O   UNL d   1       2.007  -0.192  -0.099  0.00  0.00    -0.200 OA
BRANCH   3   6
ATOM      6  C   UNL d   1       0.778  -1.056   1.921  0.00  0.00     0.134 A 
ATOM      7  C   UNL d   1      -0.246  -1.298   2.806  0.00  0.00     0.098 A 
ATOM      8  O   UNL d   1       0.243  -2.011   3.856  0.00  0.00    -0.241 OA
ATOM      9  C   UNL d   1      -1.685  -0.988   2.869  0.00  0.00     0.081 C 
ATOM     10  N   UNL d   1       1.594  -2.232   3.677  0.00  0.00    -0.264 N 
ATOM     11  C   UNL d   1       1.915  -1.654   2.511  0.00  0.00     0.054 A 
ATOM     12  HN  UNL d   1       2.222  -2.733   4.306  1.00  0.00     0.194 HD
ATOM     13  C   UNL d   1       3.318  -1.718   2.035  0.00  0.00     0.072 C 
ENDBRANCH   3   6
ENDBRANCH   1   3
BRANCH   1  14
ATOM     14  C   UNL d   1       1.021   2.239   1.448  0.00  0.00     0.171 C 
BRANCH  14  15
ATOM     15  C   UNL d   1       0.416   3.611   1.661  0.00  0.00    -0.034 A 
ATOM     16  C   UNL d   1      -0.952   3.805   1.863  0.00  0.00     0.048 A 
ATOM     17  C   UNL d   1      -1.507   5.083   2.067  0.00  0.00     0.104 A 
ATOM     18  C   UNL d   1      -0.673   6.221   2.106  0.00  0.00     0.135 A 
ATOM     19  C   UNL d   1       0.715   6.026   1.927  0.00  0.00     0.104 A 
ATOM     20  C   UNL d   1       1.238   4.737   1.723  0.00  0.00     0.048 A 
BRANCH  17  21
ATOM     21  O   UNL d   1      -2.874   5.215   2.142  0.00  0.00    -0.353 OA
ATOM     22  C   UNL d   1      -3.556   4.170   2.840  0.00  0.00     0.210 C 
ENDBRANCH  17  21
BRANCH  18  23
ATOM     23  O   UNL d   1      -1.063   7.514   2.318  0.00  0.00    -0.351 OA
ATOM     24  C   UNL d   1      -2.338   7.853   2.839  0.00  0.00     0.210 C 
ENDBRANCH  18  23
BRANCH  19  25
ATOM     25  O   UNL d   1       1.720   6.958   2.006  0.00  0.00    -0.353 OA
ATOM     26  C   UNL d   1       1.475   8.293   1.593  0.00  0.00     0.210 C 
ENDBRANCH  19  25
ENDBRANCH  14  15
ENDBRANCH   1  14
TORSDOF 7
