REMARK  3 active torsions:
REMARK  status: ('A' for Active; 'I' for Inactive)
REMARK    1  A    between atoms: N_10  and  C_3 
REMARK    2  A    between atoms: N_11  and  C_6 
REMARK    3  A    between atoms: C_12  and  N_10 
ROOT
ATOM      1  N   UNL d   1      -0.077  -1.236   0.029  0.00  0.00    -0.166 N 
ATOM      2  HN  UNL d   1      -0.511  -2.159   0.040  1.00  0.00     0.187 HD
ATOM      3  C   UNL d   1      -0.804  -0.123  -0.024  0.00  0.00     0.685 A 
ATOM      4  N   UNL d   1      -0.274   1.096  -0.070  0.00  0.00    -0.188 N 
ATOM      5  HN  UNL d   1      -0.841   1.941  -0.130  1.00  0.00     0.185 HD
ATOM      6  C   UNL d   1       1.234  -1.087   0.066  0.00  0.00     0.170 A 
ATOM      7  N   UNL d   1       1.865   0.072   0.026  0.00  0.00    -0.328 N 
ATOM      8  HN  UNL d   1       2.881   0.152   0.039  1.00  0.00     0.169 HD
ATOM      9  C   UNL d   1       1.056   1.124  -0.031  0.00  0.00     0.200 A 
ENDROOT
BRANCH   3  10
ATOM     10  N   UNL d   1      -2.196  -0.196  -0.082  0.00  0.00    -0.192 N 
ATOM     11  H   UNL d   1      -2.597   0.719  -0.229  0.00  0.00     0.184 HD
BRANCH  10  12
ATOM     12  C   UNL d   1      -3.074  -1.268   0.119  0.00  0.00     0.049 A 
ATOM     13  C   UNL d   1      -2.688  -2.462   0.745  0.00  0.00     0.032 A 
ATOM     14  C   UNL d   1      -3.561  -3.548   0.849  0.00  0.00     0.026 A 
ATOM     15  C   UNL d   1      -4.840  -3.455   0.316  0.00  0.00     0.034 A 
ATOM     16  C   UNL d   1      -5.252  -2.283  -0.311  0.00  0.00     0.026 A 
ATOM     17 CL   UNL d   1      -5.910  -4.797   0.423  0.00  0.00    -0.084 Cl
ATOM     18  C   UNL d   1      -4.371  -1.198  -0.409  0.00  0.00     0.032 A 
ENDBRANCH  10  12
ENDBRANCH   3  10
BRANCH   6  19
ATOM     19  N   UNL d   1       1.991  -2.241   0.107  0.00  0.00    -0.273 NA
ATOM     20  H   UNL d   1       1.454  -3.012  -0.266  0.00  0.00     0.127 HD
ATOM     21  H   UNL d   1       2.904  -2.077  -0.295  0.00  0.00     0.127 HD
ENDBRANCH   6  19
TORSDOF 3
