REMARK  4 active torsions:
REMARK  status: ('A' for Active; 'I' for Inactive)
REMARK    1  A    between atoms: C_4  and  C_1 
REMARK    2  A    between atoms: C_8  and  C_1 
REMARK    3  A    between atoms: O_7  and  N_2 
REMARK    4  A    between atoms: C_11  and  C_8 
ROOT
ATOM      1  C   UNL d   1       0.846  -0.071   0.040  0.00  0.00     0.058 C 
ATOM      2  N   UNL d   1       0.043  -0.634   0.904  0.00  0.00    -0.271 N 
ATOM      3  HN  UNL d   1      -0.972  -0.525   0.890  1.00  0.00     0.194 HD
ENDROOT
BRANCH   1   4
ATOM      4  C   UNL d   1       0.255   0.774  -1.051  0.00  0.00     0.056 A 
ATOM      5  N   UNL d   1       1.124   1.360  -1.912  0.00  0.00    -0.364 N 
ATOM      6  C   UNL d   1       0.591   2.107  -2.903  0.00  0.00     0.088 A 
ATOM      7  HN  UNL d   1       2.133   1.242  -1.816  1.00  0.00     0.165 HD
ATOM      8  C   UNL d   1      -0.769   2.302  -3.080  0.00  0.00     0.017 A 
ATOM      9  C   UNL d   1      -1.643   1.696  -2.185  0.00  0.00     0.004 A 
ATOM     10  C   UNL d   1      -1.126   0.919  -1.152  0.00  0.00     0.031 A 
ENDBRANCH   1   4
BRANCH   1  11
ATOM     11  C   UNL d   1       2.368  -0.225   0.071  0.00  0.00     0.061 C 
BRANCH  11  12
ATOM     12  C   UNL d   1       3.070   0.921   0.800  0.00  0.00     0.002 C 
ATOM     13  C   UNL d   1       2.803   0.945   2.298  0.00  0.00     0.005 C 
ENDBRANCH  11  12
ENDBRANCH   1  11
BRANCH   2  14
ATOM     14  O   UNL d   1       0.730  -1.399   1.849  0.00  0.00    -0.290 OA
ATOM     15  H   UNL d   1       0.010  -1.729   2.418  0.00  0.00     0.244 HD
ENDBRANCH   2  14
TORSDOF 4
