REMARK  4 active torsions:
REMARK  status: ('A' for Active; 'I' for Inactive)
REMARK       I    between atoms: N_4  and  C_1 
REMARK    1  A    between atoms: C_5  and  C_1 
REMARK       I    between atoms: C_2  and  N_3 
REMARK    2  A    between atoms: C_6  and  C_2 
REMARK    3  A    between atoms: C_7  and  C_10 
REMARK    4  A    between atoms: C_8  and  C_9 
ROOT
ATOM      1  C   UNL d   1       0.965   0.177  -0.097  0.00  0.00     0.253 C 
ATOM      2  C   UNL d   1      -0.605   4.824   2.342  0.00  0.00     0.253 C 
ATOM      3  N   UNL d   1       0.007   3.592   2.090  0.00  0.00    -0.345 N 
ATOM      4  N   UNL d   1       0.320   1.340   0.326  0.00  0.00    -0.345 N 
ATOM      5  C   UNL d   1      -0.502   2.281   2.467  0.00  0.00     0.146 C 
ATOM      6  C   UNL d   1      -0.809   1.417   1.251  0.00  0.00     0.146 C 
ATOM      7  C   UNL d   1       1.157   3.533   1.166  0.00  0.00     0.146 C 
ATOM      8  C   UNL d   1       0.848   2.657  -0.070  0.00  0.00     0.146 C 
ATOM      9  O   UNL d   1      -0.228   5.859   1.805  0.00  0.00    -0.267 OA
ATOM     10  O   UNL d   1       1.966   0.197  -0.812  0.00  0.00    -0.267 OA
ENDROOT
BRANCH   2  11
ATOM     11  C   UNL d   1      -1.772   4.919   3.275  0.00  0.00     0.032 A 
ATOM     12  C   UNL d   1      -1.922   4.140   4.428  0.00  0.00     0.017 A 
ATOM     13  C   UNL d   1      -3.103   4.192   5.179  0.00  0.00     0.009 A 
ATOM     14  C   UNL d   1      -4.127   5.105   4.871  0.00  0.00    -0.051 A 
ATOM     15  C   UNL d   1      -3.908   5.961   3.779  0.00  0.00     0.009 A 
ATOM     16  C   UNL d   1      -2.756   5.862   2.982  0.00  0.00     0.017 A 
BRANCH  14  17
ATOM     17  C   UNL d   1      -5.416   5.140   5.713  0.00  0.00    -0.024 C 
ATOM     18  C   UNL d   1      -6.386   6.264   5.287  0.00  0.00     0.019 C 
ATOM     19  C   UNL d   1      -6.167   3.799   5.569  0.00  0.00     0.019 C 
ATOM     20  C   UNL d   1      -5.082   5.364   7.204  0.00  0.00     0.019 C 
ENDBRANCH  14  17
ENDBRANCH   2  11
BRANCH   1  21
ATOM     21  C   UNL d   1       0.497  -1.148   0.398  0.00  0.00     0.032 C 
ATOM     22  C   UNL d   1      -0.850  -1.504   0.470  0.00  0.00     0.017 C 
ATOM     23  C   UNL d   1      -1.239  -2.651   1.169  0.00  0.00     0.009 C 
ATOM     24  C   UNL d   1      -0.288  -3.541   1.699  0.00  0.00    -0.051 C 
ATOM     25  C   UNL d   1       1.068  -3.234   1.490  0.00  0.00     0.009 C 
ATOM     26  C   UNL d   1       1.458  -2.047   0.859  0.00  0.00     0.017 C 
BRANCH  24  27
ATOM     27  C   UNL d   1      -0.746  -4.794   2.466  0.00  0.00    -0.024 C 
ATOM     28  C   UNL d   1       0.427  -5.712   2.876  0.00  0.00     0.019 C 
ATOM     29  C   UNL d   1      -1.487  -4.383   3.757  0.00  0.00     0.019 C 
ATOM     30  C   UNL d   1      -1.702  -5.631   1.589  0.00  0.00     0.019 C 
ENDBRANCH  24  27
ENDBRANCH   1  21
TORSDOF 4
