REMARK  7 active torsions:
REMARK  status: ('A' for Active; 'I' for Inactive)
REMARK    1  A    between atoms: C_2  and  C_1 
REMARK    2  A    between atoms: S_6  and  C_1 
REMARK    3  A    between atoms: C_8  and  C_3 
REMARK    4  A    between atoms: C_5  and  C_8 
REMARK    5  A    between atoms: C_7  and  C_5 
REMARK    6  A    between atoms: C_14  and  S_6 
REMARK    7  A    between atoms: O_15  and  C_7 
ROOT
ATOM      1  C   UNL d   1       0.098   0.512   1.177  0.00  0.00     0.034 A 
ATOM      2  C   UNL d   1       0.635   1.818   0.921  0.00  0.00    -0.041 A 
ATOM      3  C   UNL d   1      -0.959   0.377   2.115  0.00  0.00    -0.046 A 
ATOM      4  C   UNL d   1       0.134   2.915   1.663  0.00  0.00     0.015 A 
ATOM      5  C   UNL d   1      -1.407   1.507   2.827  0.00  0.00     0.014 A 
ATOM      6  C   UNL d   1      -0.867   2.769   2.621  0.00  0.00    -0.061 A 
ATOM      7  C   UNL d   1      -1.716  -0.874   2.480  0.00  0.00     0.049 C 
ATOM      8  C   UNL d   1      -1.356   3.939   3.420  0.00  0.00     0.048 C 
ENDROOT
BRANCH   1   9
ATOM      9  C   UNL d   1       0.632  -0.645   0.385  0.00  0.00     0.225 C 
ATOM     10  O   UNL d   1       0.854  -0.524  -0.810  0.00  0.00    -0.279 OA
BRANCH   9  11
ATOM     11  S   UNL d   1       0.969  -2.183   1.163  0.00  0.00    -0.048 SA
BRANCH  11  12
ATOM     12  C   UNL d   1      -0.110  -3.304   0.253  0.00  0.00     0.008 A 
ATOM     13  C   UNL d   1       0.106  -4.675   0.391  0.00  0.00     0.021 A 
ATOM     14  C   UNL d   1      -0.764  -5.608  -0.202  0.00  0.00     0.025 A 
ATOM     15  C   UNL d   1      -1.856  -5.163  -0.936  0.00  0.00     0.034 A 
ATOM     16  C   UNL d   1      -2.083  -3.800  -1.094  0.00  0.00     0.025 A 
ATOM     17 CL   UNL d   1      -2.941  -6.296  -1.639  0.00  0.00    -0.084 Cl
ATOM     18  C   UNL d   1      -1.209  -2.879  -0.511  0.00  0.00     0.021 A 
ENDBRANCH  11  12
ENDBRANCH   9  11
ENDBRANCH   1   9
BRANCH   2  19
ATOM     19  C   UNL d   1       1.820   2.115  -0.003  0.00  0.00     0.059 C 
BRANCH  19  20
ATOM     20  C   UNL d   1       1.619   2.689  -1.441  0.00  0.00     0.042 C 
ATOM     21  C   UNL d   1       3.038   2.927  -2.030  0.00  0.00     0.026 C 
ATOM     22  C   UNL d   1       0.907   1.753  -2.428  0.00  0.00     0.026 C 
BRANCH  20  23
ATOM     23  C   UNL d   1       0.898   4.041  -1.425  0.00  0.00     0.148 C 
ATOM     24  O   UNL d   1       1.446   5.119  -1.605  0.00  0.00    -0.649 OA
BRANCH  23  25
ATOM     25  O   UNL d   1      -0.431   3.973  -1.187  0.00  0.00    -0.776 OA
ATOM     26  H   UNL d   1      -0.764   3.076  -0.993  0.00  0.00     0.167 HD
ENDBRANCH  23  25
ENDBRANCH  20  23
ENDBRANCH  19  20
ENDBRANCH   2  19
TORSDOF 7
