REMARK  4 active torsions:
REMARK  status: ('A' for Active; 'I' for Inactive)
REMARK    1  A    between atoms: N_4  and  C_1 
REMARK    2  A    between atoms: N_5  and  C_2 
REMARK    3  A    between atoms: N_6  and  C_3 
REMARK    4  A    between atoms: C_8  and  C_11 
ROOT
ATOM      1  C   UNL d   1       1.324  -0.126   0.091  0.00  0.00     0.097 A 
ATOM      2  C   UNL d   1       0.447  -1.044   0.720  0.00  0.00     0.132 A 
ATOM      3  C   UNL d   1       0.630   0.902  -0.598  0.00  0.00     0.132 A 
ATOM      4  C   UNL d   1      -0.967  -0.931   0.716  0.00  0.00     0.054 A 
ATOM      5  C   UNL d   1      -0.772   1.065  -0.575  0.00  0.00     0.054 A 
ATOM      6  C   UNL d   1      -1.588   0.141   0.075  0.00  0.00     0.052 A 
ENDROOT
BRANCH   1   7
ATOM      7  N   UNL d   1       2.704  -0.319   0.121  0.00  0.00    -0.371 N 
ATOM      8  C   UNL d   1       3.570   0.298  -0.895  0.00  0.00     0.086 C 
ATOM      9  C   UNL d   1       4.109   1.522  -0.117  0.00  0.00     0.036 C 
ATOM     10  C   UNL d   1       4.582  -0.051  -1.968  0.00  0.00     0.034 C 
ATOM     11  C   UNL d   1       4.772   0.757   0.995  0.00  0.00    -0.025 C 
ATOM     12  C   UNL d   1       3.496  -0.122   1.425  0.00  0.00     0.133 C 
ATOM     13  C   UNL d   1       5.984  -0.030   0.326  0.00  0.00     0.019 C 
ATOM     14  C   UNL d   1       5.261   1.645   2.134  0.00  0.00     0.017 C 
ATOM     15  C   UNL d   1       6.023  -0.115  -1.291  0.00  0.00    -0.045 C 
ATOM     16  C   UNL d   1       6.704  -1.441  -1.683  0.00  0.00     0.015 C 
ATOM     17  C   UNL d   1       6.894   1.018  -1.884  0.00  0.00     0.015 C 
ENDBRANCH   1   7
BRANCH   2  18
ATOM     18  N   UNL d   1       0.963  -2.286   1.277  0.00  0.00    -0.113 N 
ATOM     19  O   UNL d   1       1.516  -2.222   2.384  0.00  0.00    -0.532 OA
ATOM     20  O   UNL d   1       0.710  -3.322   0.652  0.00  0.00    -0.532 OA
ENDBRANCH   2  18
BRANCH   3  21
ATOM     21  N   UNL d   1       1.284   1.847  -1.479  0.00  0.00    -0.113 N 
ATOM     22  O   UNL d   1       1.634   1.436  -2.592  0.00  0.00    -0.532 OA
ATOM     23  O   UNL d   1       1.366   3.020  -1.084  0.00  0.00    -0.532 OA
ENDBRANCH   3  21
BRANCH   6  24
ATOM     24  C   UNL d   1      -3.087   0.305   0.013  0.00  0.00     0.417 C 
ATOM     25  F   UNL d   1      -3.770  -0.766   0.493  0.00  0.00    -0.166 F 
ATOM     26  F   UNL d   1      -3.513   1.383   0.723  0.00  0.00    -0.166 F 
ATOM     27  F   UNL d   1      -3.525   0.496  -1.261  0.00  0.00    -0.166 F 
ENDBRANCH   6  24
TORSDOF 4
