REMARK  3 active torsions:
REMARK  status: ('A' for Active; 'I' for Inactive)
REMARK    1  A    between atoms: C_7  and  C_3 
REMARK    2  A    between atoms: C_9  and  C_4 
REMARK    3  A    between atoms: N_13  and  C_10 
ROOT
ATOM      1  N   UNL d   1       1.282   0.189  -0.016  0.00  0.00    -0.318 N 
ATOM      2  HN  UNL d   1       2.290   0.346  -0.029  1.00  0.00     0.169 HD
ATOM      3  C   UNL d   1       0.630  -0.955   0.012  0.00  0.00     0.184 A 
ATOM      4  C   UNL d   1       0.268   1.121  -0.024  0.00  0.00     0.138 A 
ATOM      5  N   UNL d   1      -0.963   0.586  -0.018  0.00  0.00    -0.242 N 
ATOM      6  HN  UNL d   1      -1.861   1.071  -0.029  1.00  0.00     0.196 HD
ATOM      7  O   UNL d   1      -0.726  -0.787   0.008  0.00  0.00    -0.217 OA
ENDROOT
BRANCH   3   8
ATOM      8  C   UNL d   1       1.143  -2.325   0.013  0.00  0.00     0.038 A 
ATOM      9  C   UNL d   1       2.530  -2.579   0.134  0.00  0.00     0.020 A 
ATOM     10  C   UNL d   1       2.983  -3.906   0.154  0.00  0.00     0.024 A 
ATOM     11  C   UNL d   1       2.100  -4.972  -0.021  0.00  0.00     0.002 A 
ATOM     12  C   UNL d   1       0.742  -4.727  -0.178  0.00  0.00     0.001 A 
ATOM     13  C   UNL d   1       0.265  -3.414  -0.155  0.00  0.00     0.018 A 
BRANCH   9  14
ATOM     14  N   UNL d   1       3.454  -1.566   0.463  0.00  0.00    -0.302 NA
ATOM     15  H   UNL d   1       3.125  -0.633   0.203  0.00  0.00     0.124 HD
ATOM     16  H   UNL d   1       4.401  -1.748   0.148  0.00  0.00     0.124 HD
ENDBRANCH   9  14
ENDBRANCH   3   8
BRANCH   4  17
ATOM     17  C   UNL d   1       0.542   2.555  -0.051  0.00  0.00     0.010 A 
ATOM     18  C   UNL d   1       1.868   3.018  -0.028  0.00  0.00     0.017 A 
ATOM     19  C   UNL d   1       2.147   4.387  -0.063  0.00  0.00     0.025 A 
ATOM     20  C   UNL d   1       1.102   5.305  -0.120  0.00  0.00     0.034 A 
ATOM     21  C   UNL d   1      -0.220   4.865  -0.139  0.00  0.00     0.025 A 
ATOM     22 CL   UNL d   1       1.444   6.989  -0.170  0.00  0.00    -0.084 Cl
ATOM     23  C   UNL d   1      -0.499   3.494  -0.104  0.00  0.00     0.017 A 
ENDBRANCH   4  17
TORSDOF 3
