REMARK  5 active torsions:
REMARK  status: ('A' for Active; 'I' for Inactive)
REMARK    1  A    between atoms: C_5  and  C_1 
REMARK    2  A    between atoms: C_8  and  C_2 
REMARK       I    between atoms: C_7  and  N_11 
REMARK    3  A    between atoms: C_10  and  C_7 
REMARK    4  A    between atoms: O_12  and  C_8 
REMARK    5  A    between atoms: N_11  and  O_12 
ROOT
ATOM      1  C   UNL d   1      -1.367  -0.642   0.063  0.00  0.00     0.088 A 
ATOM      2  C   UNL d   1      -0.056  -1.203   0.210  0.00  0.00     0.102 A 
ATOM      3  N   UNL d   1      -1.274   0.645  -0.310  0.00  0.00    -0.259 N 
ATOM      4  HN  UNL d   1      -2.051   1.275  -0.511  1.00  0.00     0.195 HD
ATOM      5  O   UNL d   1       0.058   0.952  -0.372  0.00  0.00    -0.241 OA
ATOM      6  C   UNL d   1       0.790  -0.148  -0.078  0.00  0.00     0.091 A 
ATOM      7  C   UNL d   1       2.255   0.052  -0.098  0.00  0.00     0.080 C 
ENDROOT
BRANCH   2   8
ATOM      8  C   UNL d   1       0.411  -2.517   0.593  0.00  0.00     0.320 C 
ATOM      9  O   UNL d   1       1.561  -2.910   0.412  0.00  0.00    -0.257 OA
BRANCH   8  10
ATOM     10  O   UNL d   1      -0.503  -3.263   1.292  0.00  0.00    -0.192 OA
BRANCH  10  11
ATOM     11  N   UNL d   1       0.134  -4.358   1.950  0.00  0.00    -0.220 N 
ATOM     12  C   UNL d   1      -0.381  -4.605   3.202  0.00  0.00     0.299 C 
ATOM     13  O   UNL d   1      -1.518  -4.264   3.532  0.00  0.00    -0.263 OA
ATOM     14  H   UNL d   1       1.141  -4.431   1.809  0.00  0.00     0.198 HD
BRANCH  12  15
ATOM     15  C   UNL d   1       0.543  -5.241   4.117  0.00  0.00     0.144 A 
ATOM     16  O   UNL d   1       1.862  -5.379   3.768  0.00  0.00    -0.317 OA
ATOM     17  C   UNL d   1       2.500  -5.931   4.837  0.00  0.00     0.143 A 
ATOM     18  C   UNL d   1       1.614  -6.167   5.861  0.00  0.00     0.027 A 
ATOM     19  C   UNL d   1       0.352  -5.726   5.397  0.00  0.00     0.045 A 
ENDBRANCH  12  15
ENDBRANCH  10  11
ENDBRANCH   8  10
ENDBRANCH   2   8
BRANCH   1  20
ATOM     20  C   UNL d   1      -2.697  -1.249   0.167  0.00  0.00     0.054 A 
ATOM     21  C   UNL d   1      -2.958  -2.451  -0.503  0.00  0.00     0.130 A 
ATOM     22  F   UNL d   1      -1.979  -3.083  -1.167  0.00  0.00    -0.205 F 
ATOM     23  C   UNL d   1      -4.234  -3.015  -0.535  0.00  0.00     0.043 A 
ATOM     24  C   UNL d   1      -5.296  -2.372   0.093  0.00  0.00     0.005 A 
ATOM     25  C   UNL d   1      -5.064  -1.178   0.775  0.00  0.00     0.025 A 
ATOM     26  C   UNL d   1      -3.776  -0.624   0.824  0.00  0.00     0.049 A 
ATOM     27 CL   UNL d   1      -3.606   0.829   1.753  0.00  0.00    -0.083 Cl
ENDBRANCH   1  20
TORSDOF 5
