REMARK  6 active torsions:
REMARK  status: ('A' for Active; 'I' for Inactive)
REMARK       I    between atoms: C_2  and  N_1 
REMARK    1  A    between atoms: C_5  and  N_1 
REMARK    2  A    between atoms: C_4  and  C_2 
REMARK    3  A    between atoms: C_3  and  C_6 
REMARK       I    between atoms: N_10  and  C_3 
REMARK    4  A    between atoms: O_11  and  C_7 
REMARK    5  A    between atoms: C_14  and  O_11 
REMARK    6  A    between atoms: C_15  and  C_14 
ROOT
ATOM      1  N   UNL d   1       1.205   0.114   0.475  0.00  0.00    -0.321 N 
ATOM      2  C   UNL d   1       0.841  -0.379   1.720  0.00  0.00     0.245 C 
ATOM      3  O   UNL d   1       1.559  -0.978   2.511  0.00  0.00    -0.268 OA
ATOM      4  H   UNL d   1       0.664   0.879   0.085  0.00  0.00     0.169 HD
ENDROOT
BRANCH   1   5
ATOM      5  C   UNL d   1       2.526  -0.013  -0.015  0.00  0.00     0.068 C 
ATOM      6  C   UNL d   1       3.125   1.037  -0.726  0.00  0.00     0.095 C 
ATOM      7  C   UNL d   1       4.513   1.001  -0.925  0.00  0.00     0.039 C 
ATOM      8  C   UNL d   1       5.262  -0.121  -0.565  0.00  0.00     0.003 C 
ATOM      9  C   UNL d   1       4.629  -1.230  -0.020  0.00  0.00     0.002 C 
ATOM     10  C   UNL d   1       3.270  -1.170   0.265  0.00  0.00     0.032 C 
BRANCH   6  11
ATOM     11  O   UNL d   1       2.327   2.085  -1.148  0.00  0.00    -0.349 OA
BRANCH  11  12
ATOM     12  C   UNL d   1       2.912   2.885  -2.191  0.00  0.00     0.175 C 
BRANCH  12  13
ATOM     13  C   UNL d   1       1.866   3.728  -2.913  0.00  0.00     0.022 C 
ATOM     14  C   UNL d   1       0.804   2.885  -3.598  0.00  0.00     0.007 C 
ENDBRANCH  12  13
ENDBRANCH  11  12
ENDBRANCH   6  11
ENDBRANCH   1   5
BRANCH   2  15
ATOM     15  C   UNL d   1      -0.542  -0.027   2.099  0.00  0.00     0.080 C 
ATOM     16  C   UNL d   1      -0.815   0.160   3.401  0.00  0.00     0.079 C 
BRANCH  16  17
ATOM     17  C   UNL d   1      -2.201   0.449   3.801  0.00  0.00     0.239 C 
ATOM     18  O   UNL d   1      -3.162   0.316   3.051  0.00  0.00    -0.269 OA
ATOM     19  N   UNL d   1      -2.332   0.902   5.072  0.00  0.00    -0.367 N 
ATOM     20  H   UNL d   1      -1.554   1.077   5.693  0.00  0.00     0.159 HD
ATOM     21  H   UNL d   1      -3.264   1.136   5.387  0.00  0.00     0.159 HD
ENDBRANCH  16  17
ENDBRANCH   2  15
TORSDOF 6
