REMARK  2 active torsions:
REMARK  status: ('A' for Active; 'I' for Inactive)
REMARK    1  A    between atoms: C_9  and  C_6 
REMARK    2  A    between atoms: C_8  and  C_9 
ROOT
ATOM      1  C   UNL d   1       0.748   2.503   0.016  0.00  0.00     0.121 C 
ENDROOT
BRANCH   1   2
ATOM      2  C   UNL d   1      -0.465   3.408   0.013  0.00  0.00    -0.008 A 
ATOM      3  C   UNL d   1      -0.739   4.265  -1.072  0.00  0.00     0.042 A 
ATOM      4 CL   UNL d   1       0.291   4.358  -2.461  0.00  0.00    -0.084 Cl
ATOM      5  C   UNL d   1      -1.880   5.078  -1.087  0.00  0.00     0.024 A 
ATOM      6  C   UNL d   1      -2.773   5.056  -0.022  0.00  0.00     0.003 A 
ATOM      7  C   UNL d   1      -2.519   4.228   1.065  0.00  0.00     0.024 A 
ATOM      8  C   UNL d   1      -1.377   3.418   1.089  0.00  0.00     0.042 A 
ATOM      9 CL   UNL d   1      -1.161   2.425   2.490  0.00  0.00    -0.084 Cl
ENDBRANCH   1   2
BRANCH   1  10
ATOM     10  C   UNL d   1       1.845   3.224   0.709  0.00  0.00     0.114 A 
ATOM     11  N   UNL d   1       2.391   4.396   0.253  0.00  0.00    -0.270 N 
ATOM     12  N   UNL d   1       3.389   4.692   1.073  0.00  0.00    -0.005 NA
ATOM     13  HN  UNL d   1       2.088   4.934  -0.558  1.00  0.00     0.185 HD
ATOM     14  N   UNL d   1       3.409   3.692   1.960  0.00  0.00    -0.225 N 
ATOM     15  N   UNL d   1       2.481   2.736   1.788  0.00  0.00    -0.275 N 
ATOM     16  H   UNL d   1       4.094   3.654   2.710  0.00  0.00     0.205 HD
ATOM     17  HN  UNL d   1       2.309   1.885   2.323  1.00  0.00     0.189 HD
ENDBRANCH   1  10
TORSDOF 2
