REMARK  4 active torsions:
REMARK  status: ('A' for Active; 'I' for Inactive)
REMARK    1  A    between atoms: S_2  and  C_1 
REMARK    2  A    between atoms: N_7  and  S_2 
REMARK    3  A    between atoms: C_8  and  C_3 
REMARK    4  A    between atoms: O_18  and  C_8 
ROOT
ATOM      1  C   UNL d   1      -0.167  -1.196  -0.318  0.00  0.00     0.115 A 
ATOM      2  C   UNL d   1       1.183  -0.693  -0.189  0.00  0.00     0.086 A 
ATOM      3  C   UNL d   1      -1.025  -0.099  -0.447  0.00  0.00     0.031 A 
ATOM      4  C   UNL d   1       1.078   0.702  -0.204  0.00  0.00     0.025 A 
ATOM      5  N   UNL d   1      -0.256   1.035  -0.298  0.00  0.00    -0.356 N 
ATOM      6  C   UNL d   1      -0.749   2.399  -0.198  0.00  0.00     0.156 C 
ATOM      7  C   UNL d   1       2.127   1.767  -0.090  0.00  0.00     0.069 C 
ATOM      8  C   UNL d   1      -2.504   0.003  -0.634  0.00  0.00     0.070 C 
ENDROOT
BRANCH   1   9
ATOM      9  S   UNL d   1      -0.615  -2.886  -0.228  0.00  0.00     0.246 S 
ATOM     10  O   UNL d   1       0.017  -3.349   0.989  0.00  0.00    -0.206 OA
ATOM     11  O   UNL d   1      -2.053  -2.935  -0.356  0.00  0.00    -0.206 OA
BRANCH   9  12
ATOM     12  N   UNL d   1       0.039  -3.721  -1.556  0.00  0.00    -0.202 NA
ATOM     13  C   UNL d   1      -0.528  -3.401  -2.901  0.00  0.00     0.134 C 
ATOM     14  C   UNL d   1      -1.793  -4.217  -3.206  0.00  0.00     0.183 C 
ATOM     15  O   UNL d   1      -1.567  -5.625  -3.045  0.00  0.00    -0.389 OA
ATOM     16  C   UNL d   1      -1.154  -5.913  -1.700  0.00  0.00     0.183 C 
ATOM     17  C   UNL d   1       0.161  -5.200  -1.375  0.00  0.00     0.134 C 
ENDBRANCH   9  12
ENDBRANCH   1   9
BRANCH   2  18
ATOM     18  C   UNL d   1       2.459  -1.409  -0.021  0.00  0.00     0.296 C 
ATOM     19  O   UNL d   1       3.509  -0.847   0.274  0.00  0.00    -0.259 OA
BRANCH  18  20
ATOM     20  O   UNL d   1       2.390  -2.747  -0.248  0.00  0.00    -0.322 OA
ATOM     21  C   UNL d   1       3.615  -3.439  -0.002  0.00  0.00     0.213 C 
ENDBRANCH  18  20
ENDBRANCH   2  18
TORSDOF 4
