REMARK  2 active torsions:
REMARK  status: ('A' for Active; 'I' for Inactive)
REMARK    1  A    between atoms: N_3  and  C_1 
REMARK       I    between atoms: C_4  and  N_3 
REMARK    2  A    between atoms: C_9  and  C_4 
ROOT
ATOM      1  C   UNL d   1      -1.236   1.005   0.264  0.00  0.00     0.141 A 
ATOM      2  C   UNL d   1      -0.676  -0.221  -0.039  0.00  0.00     0.073 A 
ATOM      3  N   UNL d   1      -2.868  -0.596   0.454  0.00  0.00    -0.309 N 
ATOM      4  HN  UNL d   1      -3.771  -1.042   0.612  1.00  0.00     0.186 HD
ATOM      5  N   UNL d   1      -2.550   0.701   0.565  0.00  0.00    -0.285 N 
ATOM      6  C   UNL d   1      -1.719  -1.162   0.087  0.00  0.00     0.130 A 
ATOM      7 BR   UNL d   1       1.030  -0.812  -0.533  0.00  0.00    -0.045 Br
ATOM      8  H   UNL d   1      -3.288   1.335   0.848  0.00  0.00     0.188 HD
ENDROOT
BRANCH   1   9
ATOM      9  N   UNL d   1      -0.771   2.319   0.308  0.00  0.00    -0.309 N 
ATOM     10  C   UNL d   1       0.550   2.814  -0.021  0.00  0.00     0.256 C 
ATOM     11  O   UNL d   1       1.447   2.053  -0.339  0.00  0.00    -0.270 OA
ATOM     12  H   UNL d   1      -1.445   3.034   0.575  0.00  0.00     0.170 HD
BRANCH  10  13
ATOM     13  C   UNL d   1       0.758   4.319   0.113  0.00  0.00     0.270 C 
ATOM     14 CL   UNL d   1      -0.798   5.168  -0.082  0.00  0.00    -0.098 Cl
ATOM     15 CL   UNL d   1       1.428   4.649   1.719  0.00  0.00    -0.098 Cl
ENDBRANCH  10  13
ENDBRANCH   1   9
TORSDOF 2
