REMARK  3 active torsions:
REMARK  status: ('A' for Active; 'I' for Inactive)
REMARK    1  A    between atoms: C_2  and  C_1 
REMARK    2  A    between atoms: C_7  and  C_6 
REMARK    3  A    between atoms: O_18  and  C_12 
ROOT
ATOM      1  C   UNL d   1      -3.727  -0.029  -0.001  0.00  0.00     0.089 C 
ATOM      2  C   UNL d   1      -4.432   1.127  -0.053  0.00  0.00     0.040 C 
ATOM      3  C   UNL d   1      -2.247  -0.018  -0.002  0.00  0.00     0.103 C 
ATOM      4  N   UNL d   1      -1.089  -0.004  -0.008  0.00  0.00    -0.191 NA
ENDROOT
BRANCH   1   5
ATOM      5  C   UNL d   1      -4.511  -1.242   0.016  0.00  0.00     0.127 A 
ATOM      6  N   UNL d   1      -5.829  -1.419  -0.015  0.00  0.00    -0.339 N 
ATOM      7  C   UNL d   1      -6.045  -2.779  -0.014  0.00  0.00     0.060 A 
ATOM      8  HN  UNL d   1      -6.542  -0.690  -0.036  1.00  0.00     0.167 HD
ATOM      9  C   UNL d   1      -7.246  -3.503  -0.046  0.00  0.00     0.032 A 
ATOM     10  C   UNL d   1      -4.838  -3.464   0.021  0.00  0.00     0.060 A 
ATOM     11  C   UNL d   1      -7.186  -4.902  -0.047  0.00  0.00     0.002 A 
ATOM     12  C   UNL d   1      -5.956  -5.564  -0.014  0.00  0.00     0.002 A 
ATOM     13  C   UNL d   1      -4.747  -4.858   0.022  0.00  0.00     0.032 A 
ATOM     14  N   UNL d   1      -3.884  -2.477   0.048  0.00  0.00    -0.339 N 
ATOM     15  H   UNL d   1      -2.890  -2.630   0.072  0.00  0.00     0.167 HD
ENDBRANCH   1   5
BRANCH   2  16
ATOM     16  C   UNL d   1      -3.795   2.455  -0.092  0.00  0.00    -0.000 A 
ATOM     17  C   UNL d   1      -3.411   3.075  -1.291  0.00  0.00     0.076 A 
ATOM     18  C   UNL d   1      -2.686   4.267  -1.284  0.00  0.00     0.039 A 
ATOM     19  C   UNL d   1      -2.363   4.877  -0.073  0.00  0.00     0.022 A 
ATOM     20  C   UNL d   1      -2.773   4.289   1.122  0.00  0.00     0.011 A 
ATOM     21  C   UNL d   1      -3.479   3.083   1.120  0.00  0.00     0.033 A 
ATOM     22 BR   UNL d   1      -2.364   5.130   2.766  0.00  0.00    -0.051 Br
BRANCH  17  23
ATOM     23  O   UNL d   1      -3.716   2.561  -2.521  0.00  0.00    -0.360 OA
ATOM     24  H   UNL d   1      -4.444   1.925  -2.425  0.00  0.00     0.217 HD
ENDBRANCH  17  23
ENDBRANCH   2  16
TORSDOF 3
