REMARK  4 active torsions:
REMARK  status: ('A' for Active; 'I' for Inactive)
REMARK    1  A    between atoms: O_9  and  N_1 
REMARK    2  A    between atoms: C_10  and  C_2 
REMARK    3  A    between atoms: C_3  and  C_6 
REMARK    4  A    between atoms: C_6  and  O_9 
ROOT
ATOM      1  C   UNL d   1       3.929   3.664  -0.674  0.00  0.00     0.087 A 
ATOM      2  C   UNL d   1       3.456   2.520   0.038  0.00  0.00     0.102 A 
ATOM      3  N   UNL d   1       3.534   4.793  -0.062  0.00  0.00    -0.259 N 
ATOM      4  HN  UNL d   1       3.766   5.748  -0.336  1.00  0.00     0.195 HD
ATOM      5  O   UNL d   1       2.757   4.410   1.004  0.00  0.00    -0.241 OA
ATOM      6  C   UNL d   1       2.700   3.058   1.063  0.00  0.00     0.091 A 
ATOM      7  C   UNL d   1       1.865   2.497   2.146  0.00  0.00     0.080 C 
ENDROOT
BRANCH   2   8
ATOM      8  C   UNL d   1       3.651   1.112  -0.230  0.00  0.00     0.320 C 
ATOM      9  O   UNL d   1       3.987   0.662  -1.320  0.00  0.00    -0.257 OA
BRANCH   8  10
ATOM     10  O   UNL d   1       3.391   0.351   0.877  0.00  0.00    -0.181 OA
BRANCH  10  11
ATOM     11  N   UNL d   1       3.150  -0.994   0.578  0.00  0.00    -0.136 N 
ATOM     12  C   UNL d   1       3.683  -1.948   1.387  0.00  0.00     0.286 C 
ATOM     13  C   UNL d   1       2.807  -3.119   1.232  0.00  0.00     0.050 A 
ATOM     14  O   UNL d   1       4.576  -1.881   2.211  0.00  0.00    -0.265 OA
ATOM     15  C   UNL d   1       2.873  -4.377   1.799  0.00  0.00     0.018 A 
ATOM     16  C   UNL d   1       1.719  -2.724   0.469  0.00  0.00     0.050 A 
ATOM     17  C   UNL d   1       1.805  -5.247   1.548  0.00  0.00     0.001 A 
ATOM     18  C   UNL d   1       0.705  -4.843   0.761  0.00  0.00     0.001 A 
ATOM     19  C   UNL d   1       0.648  -3.558   0.217  0.00  0.00     0.018 A 
ATOM     20  C   UNL d   1       1.891  -1.309   0.162  0.00  0.00     0.286 C 
ATOM     21  O   UNL d   1       0.992  -0.582  -0.225  0.00  0.00    -0.265 OA
ENDBRANCH  10  11
ENDBRANCH   8  10
ENDBRANCH   2   8
BRANCH   1  22
ATOM     22  C   UNL d   1       4.758   3.745  -1.875  0.00  0.00     0.037 A 
ATOM     23  C   UNL d   1       4.281   4.382  -3.039  0.00  0.00     0.048 A 
ATOM     24 CL   UNL d   1       2.671   5.011  -3.173  0.00  0.00    -0.083 Cl
ATOM     25  C   UNL d   1       5.098   4.520  -4.169  0.00  0.00     0.025 A 
ATOM     26  C   UNL d   1       6.392   4.011  -4.167  0.00  0.00     0.003 A 
ATOM     27  C   UNL d   1       6.876   3.367  -3.032  0.00  0.00     0.025 A 
ATOM     28  C   UNL d   1       6.073   3.244  -1.889  0.00  0.00     0.048 A 
ATOM     29 CL   UNL d   1       6.806   2.498  -0.506  0.00  0.00    -0.083 Cl
ENDBRANCH   1  22
TORSDOF 4
