REMARK  8 active torsions:
REMARK  status: ('A' for Active; 'I' for Inactive)
REMARK    1  A    between atoms: S_11  and  C_1 
REMARK    2  A    between atoms: S_10  and  C_2 
REMARK    3  A    between atoms: C_7  and  C_3 
REMARK    4  A    between atoms: C_8  and  C_4 
REMARK    5  A    between atoms: C_13  and  S_10 
REMARK    6  A    between atoms: C_12  and  S_11 
REMARK    7  A    between atoms: N_22  and  C_14 
REMARK    8  A    between atoms: N_23  and  C_15 
ROOT
ATOM      1  C   UNL d   1      -0.516   1.173   0.074  0.00  0.00     0.090 A 
ATOM      2  C   UNL d   1      -0.429  -1.187  -0.039  0.00  0.00     0.090 A 
ATOM      3  C   UNL d   1       0.860   1.274   0.122  0.00  0.00     0.082 A 
ATOM      4  C   UNL d   1       0.953  -1.185  -0.078  0.00  0.00     0.082 A 
ATOM      5  N   UNL d   1      -1.148  -0.032   0.017  0.00  0.00    -0.344 N 
ATOM      6  HN  UNL d   1      -2.167  -0.070   0.017  1.00  0.00     0.167 HD
ATOM      7  C   UNL d   1       1.587   0.070   0.024  0.00  0.00     0.038 A 
ENDROOT
BRANCH   1   8
ATOM      8  S   UNL d   1      -1.654   2.541   0.081  0.00  0.00    -0.070 SA
BRANCH   8   9
ATOM      9  C   UNL d   1      -1.744   2.907  -1.678  0.00  0.00     0.028 A 
ATOM     10  C   UNL d   1      -2.250   1.990  -2.624  0.00  0.00     0.023 A 
ATOM     11  C   UNL d   1      -2.323   2.380  -3.969  0.00  0.00     0.024 A 
ATOM     12  C   UNL d   1      -1.847   3.626  -4.384  0.00  0.00     0.002 A 
ATOM     13  C   UNL d   1      -1.332   4.519  -3.450  0.00  0.00     0.001 A 
ATOM     14  C   UNL d   1      -1.286   4.164  -2.101  0.00  0.00     0.021 A 
BRANCH  10  15
ATOM     15  N   UNL d   1      -2.901   0.804  -2.238  0.00  0.00    -0.302 NA
ATOM     16  H   UNL d   1      -2.595   0.452  -1.329  0.00  0.00     0.124 HD
ATOM     17  H   UNL d   1      -2.913   0.075  -2.944  0.00  0.00     0.124 HD
ENDBRANCH  10  15
ENDBRANCH   8   9
ENDBRANCH   1   8
BRANCH   3  18
ATOM     18  C   UNL d   1       1.631   2.555   0.263  0.00  0.00     0.420 C 
ATOM     19  F   UNL d   1       0.911   3.687   0.461  0.00  0.00    -0.166 F 
ATOM     20  F   UNL d   1       2.499   2.494   1.316  0.00  0.00    -0.166 F 
ATOM     21  F   UNL d   1       2.411   2.797  -0.828  0.00  0.00    -0.166 F 
ENDBRANCH   3  18
BRANCH   2  22
ATOM     22  S   UNL d   1      -1.461  -2.635  -0.065  0.00  0.00    -0.070 SA
BRANCH  22  23
ATOM     23  C   UNL d   1      -1.529  -3.025   1.689  0.00  0.00     0.028 A 
ATOM     24  C   UNL d   1      -2.111  -2.160   2.641  0.00  0.00     0.023 A 
ATOM     25  C   UNL d   1      -2.157  -2.569   3.982  0.00  0.00     0.024 A 
ATOM     26  C   UNL d   1      -1.585  -3.776   4.388  0.00  0.00     0.002 A 
ATOM     27  C   UNL d   1      -0.996  -4.616   3.449  0.00  0.00     0.001 A 
ATOM     28  C   UNL d   1      -0.974  -4.246   2.104  0.00  0.00     0.021 A 
BRANCH  24  29
ATOM     29  N   UNL d   1      -2.852  -1.026   2.264  0.00  0.00    -0.302 NA
ATOM     30  H   UNL d   1      -2.570  -0.642   1.360  0.00  0.00     0.124 HD
ATOM     31  H   UNL d   1      -2.924  -0.309   2.976  0.00  0.00     0.124 HD
ENDBRANCH  24  29
ENDBRANCH  22  23
ENDBRANCH   2  22
BRANCH   4  32
ATOM     32  C   UNL d   1       1.817  -2.403  -0.222  0.00  0.00     0.420 C 
ATOM     33  F   UNL d   1       1.184  -3.591  -0.392  0.00  0.00    -0.166 F 
ATOM     34  F   UNL d   1       2.656  -2.288  -1.294  0.00  0.00    -0.166 F 
ATOM     35  F   UNL d   1       2.636  -2.571   0.855  0.00  0.00    -0.166 F 
ENDBRANCH   4  32
TORSDOF 8
