REMARK  3 active torsions:
REMARK  status: ('A' for Active; 'I' for Inactive)
REMARK    1  A    between atoms: N_6  and  S_1 
REMARK    2  A    between atoms: C_14  and  S_1 
REMARK    3  A    between atoms: C_2  and  N_7 
ROOT
ATOM      1  N   UNL d   1       0.659  -0.794  -1.233  0.00  0.00    -0.304 N 
ATOM      2  N   UNL d   1       2.647  -1.705  -3.134  0.00  0.00    -0.358 N 
ATOM      3  C   UNL d   1       0.914  -2.256  -1.422  0.00  0.00     0.155 C 
ATOM      4  C   UNL d   1       0.970  -0.022  -2.464  0.00  0.00     0.155 C 
ATOM      5  C   UNL d   1       2.417  -0.262  -2.916  0.00  0.00     0.145 C 
ATOM      6  C   UNL d   1       2.347  -2.534  -1.944  0.00  0.00     0.145 C 
ENDROOT
BRANCH   2   7
ATOM      7  C   UNL d   1       3.666  -2.116  -3.956  0.00  0.00     0.148 A 
ATOM      8  N   UNL d   1       4.287  -3.272  -3.850  0.00  0.00    -0.336 N 
ATOM      9  C   UNL d   1       5.266  -3.414  -4.825  0.00  0.00     0.051 A 
ATOM     10  HN  UNL d   1       4.075  -3.974  -3.141  1.00  0.00     0.168 HD
ATOM     11  C   UNL d   1       6.135  -4.515  -4.990  0.00  0.00     0.032 A 
ATOM     12  C   UNL d   1       5.377  -2.348  -5.711  0.00  0.00     0.036 A 
ATOM     13  C   UNL d   1       7.090  -4.503  -6.018  0.00  0.00     0.026 A 
ATOM     14  C   UNL d   1       7.177  -3.415  -6.880  0.00  0.00     0.035 A 
ATOM     15  C   UNL d   1       6.323  -2.321  -6.750  0.00  0.00     0.045 A 
ATOM     16 CL   UNL d   1       8.361  -3.410  -8.130  0.00  0.00    -0.084 Cl
ATOM     17  S   UNL d   1       4.208  -1.169  -5.306  0.00  0.00    -0.052 SA
ENDBRANCH   2   7
BRANCH   1  18
ATOM     18  S   UNL d   1       1.116  -0.106   0.247  0.00  0.00     0.260 S 
ATOM     19  O   UNL d   1       1.390   1.301   0.042  0.00  0.00    -0.200 OA
ATOM     20  O   UNL d   1       2.082  -0.976   0.882  0.00  0.00    -0.200 OA
BRANCH  18  21
ATOM     21  C   UNL d   1      -0.413  -0.220   1.151  0.00  0.00     0.079 A 
ATOM     22  C   UNL d   1      -0.667  -1.334   1.956  0.00  0.00     0.025 A 
ATOM     23  C   UNL d   1      -1.871  -1.413   2.658  0.00  0.00     0.002 A 
ATOM     24  C   UNL d   1      -2.804  -0.378   2.567  0.00  0.00     0.000 A 
ATOM     25  C   UNL d   1      -2.535   0.746   1.784  0.00  0.00     0.002 A 
ATOM     26  C   UNL d   1      -1.335   0.831   1.077  0.00  0.00     0.025 A 
ENDBRANCH  18  21
ENDBRANCH   1  18
TORSDOF 3
