REMARK  9 active torsions:
REMARK  status: ('A' for Active; 'I' for Inactive)
REMARK    1  A    between atoms: C_3  and  C_1 
REMARK    2  A    between atoms: N_6  and  C_2 
REMARK    3  A    between atoms: O_9  and  C_3 
REMARK    4  A    between atoms: C_8  and  N_6 
REMARK    5  A    between atoms: C_12  and  N_6 
REMARK    6  A    between atoms: C_11  and  C_8 
REMARK    7  A    between atoms: C_13  and  O_9 
REMARK    8  A    between atoms: O_10  and  C_11 
REMARK    9  A    between atoms: C_14  and  C_11 
ROOT
ATOM      1  C   UNL d   1       0.737  -0.710  -0.655  0.00  0.00     0.134 C 
ATOM      2  C   UNL d   1       0.670  -1.121   0.629  0.00  0.00     0.114 C 
ATOM      3  C   UNL d   1       1.436  -1.491  -1.605  0.00  0.00     0.107 C 
ATOM      4  N   UNL d   1       2.030  -2.180  -2.332  0.00  0.00    -0.191 NA
ENDROOT
BRANCH   1   5
ATOM      5  C   UNL d   1       0.098   0.538  -1.167  0.00  0.00     0.305 C 
ATOM      6  O   UNL d   1       0.167   0.889  -2.335  0.00  0.00    -0.258 OA
BRANCH   5   7
ATOM      7  O   UNL d   1      -0.473   1.276  -0.173  0.00  0.00    -0.317 OA
BRANCH   7   8
ATOM      8  C   UNL d   1      -0.702   2.666  -0.482  0.00  0.00     0.174 C 
ATOM      9  C   UNL d   1       0.552   3.437  -0.106  0.00  0.00     0.034 C 
ENDBRANCH   7   8
ENDBRANCH   5   7
ENDBRANCH   1   5
BRANCH   2  10
ATOM     10  N   UNL d   1       1.232  -2.226   1.296  0.00  0.00    -0.386 N 
BRANCH  10  11
ATOM     11  C   UNL d   1       2.666  -2.686   1.173  0.00  0.00     0.153 C 
BRANCH  11  12
ATOM     12  C   UNL d   1       3.685  -1.532   1.329  0.00  0.00     0.135 C 
BRANCH  12  13
ATOM     13  O   UNL d   1       3.384  -0.811   2.538  0.00  0.00    -0.394 OA
ATOM     14  H   UNL d   1       2.417  -0.887   2.650  0.00  0.00     0.210 HD
ENDBRANCH  12  13
BRANCH  12  15
ATOM     15  C   UNL d   1       5.165  -1.940   1.437  0.00  0.00     0.029 C 
ATOM     16  C   UNL d   1       5.733  -2.769   0.296  0.00  0.00     0.007 C 
ENDBRANCH  12  15
ENDBRANCH  11  12
ENDBRANCH  10  11
BRANCH  10  17
ATOM     17  C   UNL d   1       0.307  -3.304   1.737  0.00  0.00     0.118 C 
ATOM     18  C   UNL d   1       0.120  -4.376   0.667  0.00  0.00     0.026 C 
ENDBRANCH  10  17
ENDBRANCH   2  10
TORSDOF 9
