REMARK  2 active torsions:
REMARK  status: ('A' for Active; 'I' for Inactive)
REMARK    1  A    between atoms: C_2  and  C_1 
REMARK       I    between atoms: N_9  and  C_2 
REMARK    2  A    between atoms: C_11  and  N_9 
ROOT
ATOM      1  C   UNL d   1      -0.064  -3.865   0.788  0.00  0.00     0.262 C 
ATOM      2  N   UNL d   1       0.739  -2.984   0.085  0.00  0.00    -0.352 N 
ATOM      3  O   UNL d   1       0.423  -4.788   1.439  0.00  0.00    -0.267 OA
ATOM      4  H   UNL d   1       0.278  -2.311  -0.511  0.00  0.00     0.163 HD
ENDROOT
BRANCH   1   5
ATOM      5  C   UNL d   1      -1.492  -3.628   0.697  0.00  0.00     0.114 A 
ATOM      6  C   UNL d   1      -2.569  -4.263   1.311  0.00  0.00     0.046 A 
ATOM      7  N   UNL d   1      -3.821  -3.768   0.945  0.00  0.00    -0.298 N 
ATOM      8  C   UNL d   1      -2.569  -5.371   2.300  0.00  0.00     0.071 C 
ATOM      9  N   UNL d   1      -3.732  -2.767   0.092  0.00  0.00    -0.269 N 
ATOM     10  HN  UNL d   1      -4.704  -4.139   1.297  1.00  0.00     0.187 HD
ATOM     11  S   UNL d   1      -2.159  -2.388  -0.292  0.00  0.00     0.009 SA
ATOM     12  HN  UNL d   1      -4.540  -2.277  -0.291  1.00  0.00     0.195 HD
ENDBRANCH   1   5
BRANCH   2  13
ATOM     13  C   UNL d   1       2.189  -3.126  -0.046  0.00  0.00     0.084 C 
ATOM     14  C   UNL d   1       2.856  -1.751  -0.196  0.00  0.00     0.025 C 
ATOM     15  C   UNL d   1       2.518  -1.079  -1.528  0.00  0.00     0.002 C 
ATOM     16  C   UNL d   1       2.860  -1.977  -2.713  0.00  0.00     0.000 C 
ATOM     17  C   UNL d   1       2.246  -3.369  -2.584  0.00  0.00     0.002 C 
ATOM     18  C   UNL d   1       2.558  -4.022  -1.236  0.00  0.00     0.025 C 
ENDBRANCH   2  13
TORSDOF 2
