REMARK  5 active torsions:
REMARK  status: ('A' for Active; 'I' for Inactive)
REMARK       I    between atoms: N_2  and  C_1 
REMARK    1  A    between atoms: C_3  and  C_1 
REMARK       I    between atoms: C_6  and  N_2 
REMARK    2  A    between atoms: C_4  and  C_8 
REMARK    3  A    between atoms: C_5  and  C_7 
REMARK    4  A    between atoms: O_11  and  C_6 
REMARK    5  A    between atoms: C_10  and  O_11 
ROOT
ATOM      1  O   UNL d   1       2.455  -0.583   2.455  0.00  0.00    -0.261 OA
ENDROOT
BRANCH   1   2
ATOM      2  C   UNL d   1       3.167  -0.300   1.278  0.00  0.00     0.082 A 
ATOM      3  C   UNL d   1       2.761   0.724   0.424  0.00  0.00     0.053 A 
ATOM      4  C   UNL d   1       3.518   1.022  -0.717  0.00  0.00     0.051 A 
ATOM      5  C   UNL d   1       4.701   0.298  -0.958  0.00  0.00     0.032 A 
ATOM      6  C   UNL d   1       5.125  -0.717  -0.081  0.00  0.00     0.051 A 
ATOM      7  C   UNL d   1       4.345  -1.006   1.050  0.00  0.00     0.053 A 
BRANCH   4   8
ATOM      8  C   UNL d   1       3.056   2.110  -1.655  0.00  0.00     0.417 C 
ATOM      9  F   UNL d   1       3.830   2.231  -2.769  0.00  0.00    -0.166 F 
ATOM     10  F   UNL d   1       1.787   1.908  -2.104  0.00  0.00    -0.166 F 
ATOM     11  F   UNL d   1       3.054   3.338  -1.066  0.00  0.00    -0.166 F 
ENDBRANCH   4   8
BRANCH   6  12
ATOM     12  C   UNL d   1       6.400  -1.487  -0.334  0.00  0.00     0.417 C 
ATOM     13  F   UNL d   1       7.019  -1.140  -1.497  0.00  0.00    -0.166 F 
ATOM     14  F   UNL d   1       7.324  -1.305   0.648  0.00  0.00    -0.166 F 
ATOM     15  F   UNL d   1       6.191  -2.830  -0.410  0.00  0.00    -0.166 F 
ENDBRANCH   6  12
ENDBRANCH   1   2
BRANCH   1  16
ATOM     16  C   UNL d   1       1.106  -0.892   2.327  0.00  0.00     0.372 C 
ATOM     17  N   UNL d   1       0.445  -1.036   3.526  0.00  0.00    -0.268 N 
ATOM     18  C   UNL d   1       0.759  -0.369   4.693  0.00  0.00     0.263 C 
ATOM     19  H   UNL d   1      -0.516  -1.317   3.388  0.00  0.00     0.174 HD
ATOM     20  O   UNL d   1       1.756   0.327   4.854  0.00  0.00    -0.267 OA
ATOM     21  O   UNL d   1       0.504  -1.037   1.266  0.00  0.00    -0.238 OA
BRANCH  18  22
ATOM     22  C   UNL d   1      -0.196  -0.518   5.822  0.00  0.00     0.075 A 
ATOM     23  C   UNL d   1       0.290  -0.820   7.108  0.00  0.00     0.051 A 
ATOM     24 CL   UNL d   1       1.943  -1.220   7.429  0.00  0.00    -0.083 Cl
ATOM     25  C   UNL d   1      -0.581  -0.865   8.205  0.00  0.00     0.025 A 
ATOM     26  C   UNL d   1      -1.942  -0.629   8.036  0.00  0.00     0.003 A 
ATOM     27  C   UNL d   1      -2.438  -0.355   6.764  0.00  0.00     0.025 A 
ATOM     28  C   UNL d   1      -1.574  -0.291   5.663  0.00  0.00     0.051 A 
ATOM     29 CL   UNL d   1      -2.296   0.102   4.141  0.00  0.00    -0.083 Cl
ENDBRANCH  18  22
ENDBRANCH   1  16
TORSDOF 5
