REMARK  3 active torsions:
REMARK  status: ('A' for Active; 'I' for Inactive)
REMARK    1  A    between atoms: C_2  and  C_1 
REMARK       I    between atoms: N_3  and  C_2 
REMARK    2  A    between atoms: C_13  and  C_6 
REMARK    3  A    between atoms: S_14  and  C_7 
ROOT
ATOM      1  C   UNL d   1      -0.200  -1.344  -0.021  0.00  0.00     0.093 A 
ATOM      2  N   UNL d   1      -1.303   0.645   0.131  0.00  0.00    -0.259 N 
ATOM      3  HN  UNL d   1      -2.043   1.345   0.176  1.00  0.00     0.195 HD
ATOM      4  C   UNL d   1      -1.455  -0.689   0.190  0.00  0.00     0.083 A 
ATOM      5  O   UNL d   1       0.043   0.881  -0.004  0.00  0.00    -0.241 OA
ATOM      6  C   UNL d   1       0.705  -0.298  -0.065  0.00  0.00     0.090 A 
ATOM      7  C   UNL d   1       2.177  -0.213  -0.151  0.00  0.00     0.080 C 
ENDROOT
BRANCH   1   8
ATOM      8  C   UNL d   1       0.199  -2.744  -0.065  0.00  0.00     0.264 C 
ATOM      9  N   UNL d   1      -0.495  -3.619  -0.912  0.00  0.00    -0.292 N 
ATOM     10  C   UNL d   1      -0.363  -5.004  -1.031  0.00  0.00     0.144 A 
ATOM     11  C   UNL d   1      -1.436  -3.226  -1.930  0.00  0.00     0.154 A 
ATOM     12  N   UNL d   1      -1.049  -5.582  -1.965  0.00  0.00    -0.369 N 
ATOM     13  C   UNL d   1      -1.773  -4.509  -2.663  0.00  0.00     0.142 A 
ATOM     14  HN  UNL d   1      -1.081  -6.579  -2.175  1.00  0.00     0.161 HD
ATOM     15  O   UNL d   1       1.187  -3.078   0.582  0.00  0.00    -0.267 OA
BRANCH  10  16
ATOM     16  S   UNL d   1       0.651  -5.921   0.032  0.00  0.00    -0.098 SA
ATOM     17  C   UNL d   1       0.628  -7.535  -0.772  0.00  0.00     0.099 C 
ENDBRANCH  10  16
ENDBRANCH   1   8
BRANCH   4  18
ATOM     18  C   UNL d   1      -2.780  -1.251   0.448  0.00  0.00    -0.006 A 
ATOM     19  C   UNL d   1      -3.912  -0.654  -0.132  0.00  0.00     0.014 A 
ATOM     20  C   UNL d   1      -5.178  -1.214   0.042  0.00  0.00     0.001 A 
ATOM     21  C   UNL d   1      -5.326  -2.373   0.801  0.00  0.00     0.000 A 
ATOM     22  C   UNL d   1      -4.214  -2.961   1.401  0.00  0.00     0.001 A 
ATOM     23  C   UNL d   1      -2.945  -2.399   1.234  0.00  0.00     0.014 A 
ENDBRANCH   4  18
TORSDOF 3
