REMARK  5 active torsions:
REMARK  status: ('A' for Active; 'I' for Inactive)
REMARK    1  A    between atoms: C_5  and  C_1 
REMARK       I    between atoms: C_2  and  N_3 
REMARK    2  A    between atoms: C_10  and  C_2 
REMARK    3  A    between atoms: N_3  and  C_4 
REMARK    4  A    between atoms: O_11  and  C_6 
REMARK    5  A    between atoms: C_21  and  O_11 
ROOT
ATOM      1  N   UNL d   1      -5.787  -3.265   7.873  0.00  0.00    -0.191 NA
ATOM      2  C   UNL d   1      -4.960  -2.586   7.419  0.00  0.00     0.099 C 
ATOM      3  C   UNL d   1      -3.937  -1.749   6.858  0.00  0.00     0.044 A 
ATOM      4  C   UNL d   1      -1.910  -0.141   5.752  0.00  0.00     0.076 A 
ATOM      5  C   UNL d   1      -2.915  -1.240   7.669  0.00  0.00     0.025 A 
ATOM      6  C   UNL d   1      -1.906  -0.438   7.117  0.00  0.00     0.039 A 
ATOM      7  C   UNL d   1      -2.958  -0.609   4.950  0.00  0.00     0.039 A 
ATOM      8  C   UNL d   1      -3.953  -1.431   5.496  0.00  0.00     0.025 A 
ENDROOT
BRANCH   4   9
ATOM      9  O   UNL d   1      -0.875   0.648   5.277  0.00  0.00    -0.309 OA
BRANCH   9  10
ATOM     10  C   UNL d   1      -0.304   0.338   4.051  0.00  0.00     0.102 A 
ATOM     11  C   UNL d   1      -0.244  -0.983   3.576  0.00  0.00     0.040 A 
ATOM     12  C   UNL d   1       0.231  -1.257   2.294  0.00  0.00     0.019 A 
ATOM     13  C   UNL d   1       0.714  -0.223   1.489  0.00  0.00     0.050 A 
ATOM     14  C   UNL d   1       0.760   1.079   2.012  0.00  0.00     0.048 A 
ATOM     15  C   UNL d   1       0.263   1.382   3.289  0.00  0.00     0.070 A 
BRANCH  13  16
ATOM     16  C   UNL d   1       1.145  -0.504   0.070  0.00  0.00     0.417 C 
ATOM     17  F   UNL d   1       1.671   0.572  -0.576  0.00  0.00    -0.166 F 
ATOM     18  F   UNL d   1       0.104  -0.927  -0.702  0.00  0.00    -0.166 F 
ATOM     19  F   UNL d   1       2.086  -1.485  -0.005  0.00  0.00    -0.166 F 
ENDBRANCH  13  16
BRANCH  15  20
ATOM     20  N   UNL d   1       0.288   2.706   3.812  0.00  0.00    -0.320 N 
ATOM     21  C   UNL d   1       0.859   3.820   3.207  0.00  0.00     0.256 C 
ATOM     22  O   UNL d   1       1.493   3.835   2.157  0.00  0.00    -0.267 OA
ATOM     23  H   UNL d   1      -0.188   2.822   4.699  0.00  0.00     0.169 HD
BRANCH  21  24
ATOM     24  C   UNL d   1       0.649   5.133   3.877  0.00  0.00     0.032 A 
ATOM     25  C   UNL d   1       0.616   5.276   5.270  0.00  0.00     0.020 A 
ATOM     26  C   UNL d   1       0.403   6.541   5.829  0.00  0.00     0.043 A 
ATOM     27  C   UNL d   1       0.235   7.649   5.001  0.00  0.00     0.116 A 
ATOM     28  C   UNL d   1       0.298   7.527   3.620  0.00  0.00     0.043 A 
ATOM     29  F   UNL d   1       0.016   8.852   5.546  0.00  0.00    -0.206 F 
ATOM     30  C   UNL d   1       0.514   6.269   3.057  0.00  0.00     0.020 A 
ENDBRANCH  21  24
ENDBRANCH  15  20
ENDBRANCH   9  10
ENDBRANCH   4   9
TORSDOF 5
