REMARK  7 active torsions:
REMARK  status: ('A' for Active; 'I' for Inactive)
REMARK    1  A    between atoms: N_2  and  C_1 
REMARK    2  A    between atoms: N_3  and  C_1 
REMARK    3  A    between atoms: C_5  and  N_2 
REMARK    4  A    between atoms: C_6  and  N_3 
REMARK    5  A    between atoms: C_13  and  C_5 
REMARK    6  A    between atoms: O_12  and  C_7 
REMARK    7  A    between atoms: C_16  and  O_12 
ROOT
ATOM      1  N   UNL d   1       0.192   0.590   0.901  0.00  0.00    -0.333 N 
ATOM      2  H   UNL d   1       0.639   1.141   1.616  0.00  0.00     0.168 HD
ENDROOT
BRANCH   1   3
ATOM      3  C   UNL d   1       1.076  -0.149   0.108  0.00  0.00     0.172 C 
ATOM      4  S   UNL d   1       0.698  -1.183  -1.148  0.00  0.00    -0.041 SA
BRANCH   3   5
ATOM      5  N   UNL d   1       2.378   0.108   0.543  0.00  0.00    -0.359 N 
ATOM      6  H   UNL d   1       2.445   0.291   1.534  0.00  0.00     0.162 HD
BRANCH   5   7
ATOM      7  C   UNL d   1       3.686  -0.221  -0.088  0.00  0.00     0.025 C 
ATOM      8  C   UNL d   1       4.791   0.432   0.777  0.00  0.00     0.038 C 
ATOM      9  C   UNL d   1       3.963  -1.738  -0.069  0.00  0.00     0.038 C 
BRANCH   7  10
ATOM     10  C   UNL d   1       3.800   0.332  -1.534  0.00  0.00     0.026 C 
ATOM     11  C   UNL d   1       3.453   1.811  -1.687  0.00  0.00     0.007 C 
ENDBRANCH   7  10
ENDBRANCH   5   7
ENDBRANCH   3   5
ENDBRANCH   1   3
BRANCH   1  12
ATOM     12  C   UNL d   1      -1.226   0.647   0.937  0.00  0.00     0.034 A 
ATOM     13  C   UNL d   1      -1.808   1.207   2.082  0.00  0.00     0.032 A 
ATOM     14  C   UNL d   1      -3.201   1.178   2.274  0.00  0.00     0.039 A 
ATOM     15  C   UNL d   1      -4.021   0.603   1.310  0.00  0.00     0.068 A 
ATOM     16  C   UNL d   1      -3.456   0.133   0.132  0.00  0.00     0.039 A 
ATOM     17  C   UNL d   1      -2.069   0.168  -0.057  0.00  0.00     0.032 A 
BRANCH  15  18
ATOM     18  O   UNL d   1      -5.375   0.448   1.379  0.00  0.00    -0.352 OA
BRANCH  18  19
ATOM     19  C   UNL d   1      -6.013   0.773   2.611  0.00  0.00     0.171 C 
ATOM     20  C   UNL d   1      -7.470   0.365   2.484  0.00  0.00     0.034 C 
ENDBRANCH  18  19
ENDBRANCH  15  18
ENDBRANCH   1  12
TORSDOF 7
