REMARK  4 active torsions:
REMARK  status: ('A' for Active; 'I' for Inactive)
REMARK    1  A    between atoms: C_13  and  C_3 
REMARK    2  A    between atoms: N_9  and  C_4 
REMARK    3  A    between atoms: C_12  and  N_9 
REMARK    4  A    between atoms: C_15  and  C_16 
ROOT
ATOM      1  C   UNL d   1      -0.015  -0.511  -0.088  0.00  0.00     0.076 A 
ATOM      2  S   UNL d   1       1.675  -0.810  -0.132  0.00  0.00    -0.084 SA
ATOM      3  C   UNL d   1       2.072   0.861  -0.066  0.00  0.00     0.018 A 
ATOM      4  C   UNL d   1      -1.087  -1.411  -0.044  0.00  0.00     0.126 A 
ATOM      5  C   UNL d   1       0.923   1.629  -0.067  0.00  0.00     0.050 A 
ATOM      6  C   UNL d   1      -0.273   0.854  -0.076  0.00  0.00     0.055 A 
ATOM      7  N   UNL d   1      -2.336  -0.884  -0.016  0.00  0.00    -0.337 N 
ATOM      8  HN  UNL d   1      -3.152  -1.494   0.018  1.00  0.00     0.168 HD
ATOM      9  N   UNL d   1      -1.526   1.368  -0.057  0.00  0.00    -0.351 N 
ATOM     10  HN  UNL d   1      -1.716   2.370  -0.060  1.00  0.00     0.166 HD
ATOM     11  C   UNL d   1      -2.488   0.445  -0.035  0.00  0.00     0.182 A 
ENDROOT
BRANCH   3  12
ATOM     12  C   UNL d   1       3.476   1.307  -0.045  0.00  0.00    -0.019 A 
ATOM     13  C   UNL d   1       3.845   2.513  -0.652  0.00  0.00     0.013 A 
ATOM     14  C   UNL d   1       5.178   2.945  -0.651  0.00  0.00     0.009 A 
ATOM     15  C   UNL d   1       6.198   2.188  -0.048  0.00  0.00    -0.051 A 
ATOM     16  C   UNL d   1       5.816   0.995   0.581  0.00  0.00     0.009 A 
ATOM     17  C   UNL d   1       4.482   0.565   0.585  0.00  0.00     0.013 A 
BRANCH  15  18
ATOM     18  C   UNL d   1       7.660   2.664  -0.107  0.00  0.00    -0.024 C 
ATOM     19  C   UNL d   1       8.656   1.699   0.574  0.00  0.00     0.019 C 
ATOM     20  C   UNL d   1       8.096   2.801  -1.583  0.00  0.00     0.019 C 
ATOM     21  C   UNL d   1       7.797   4.033   0.592  0.00  0.00     0.019 C 
ENDBRANCH  15  18
ENDBRANCH   3  12
BRANCH   4  22
ATOM     22  N   UNL d   1      -0.909  -2.804  -0.047  0.00  0.00    -0.341 N 
ATOM     23  H   UNL d   1       0.059  -3.089  -0.137  0.00  0.00     0.167 HD
BRANCH  22  24
ATOM     24  C   UNL d   1      -1.698  -3.762   0.623  0.00  0.00     0.034 A 
ATOM     25  C   UNL d   1      -1.713  -5.083   0.156  0.00  0.00     0.036 A 
ATOM     26  C   UNL d   1      -2.504  -6.061   0.780  0.00  0.00    -0.059 A 
ATOM     27  C   UNL d   1      -2.565  -7.462   0.250  0.00  0.00     0.048 C 
ATOM     28  C   UNL d   1      -3.267  -5.711   1.903  0.00  0.00     0.013 A 
ATOM     29  C   UNL d   1      -3.254  -4.402   2.394  0.00  0.00    -0.059 A 
ATOM     30  C   UNL d   1      -2.479  -3.437   1.739  0.00  0.00     0.036 A 
ATOM     31  C   UNL d   1      -4.065  -4.038   3.602  0.00  0.00     0.048 C 
ENDBRANCH  22  24
ENDBRANCH   4  22
TORSDOF 4
