REMARK  6 active torsions:
REMARK  status: ('A' for Active; 'I' for Inactive)
REMARK    1  A    between atoms: N_3  and  C_1 
REMARK    2  A    between atoms: C_2  and  C_6 
REMARK    3  A    between atoms: N_7  and  N_3 
REMARK    4  A    between atoms: C_6  and  O_19 
REMARK    5  A    between atoms: O_19  and  N_11 
REMARK    6  A    between atoms: C_15  and  C_13 
ROOT
ATOM      1  N   UNL d   1      -0.250   3.719  -0.082  0.00  0.00    -0.303 N 
ATOM      2  HN  UNL d   1       0.453   2.981  -0.034  1.00  0.00     0.186 HD
ATOM      3  C   UNL d   1       0.119   4.963  -0.093  0.00  0.00     0.039 C 
ATOM      4  C   UNL d   1      -0.766   6.178  -0.141  0.00  0.00     0.071 C 
ENDROOT
BRANCH   3   5
ATOM      5  C   UNL d   1       1.601   5.255  -0.127  0.00  0.00     0.140 C 
ATOM      6  N   UNL d   1       2.438   4.528   0.540  0.00  0.00    -0.267 N 
ATOM      7  HN  UNL d   1       2.182   3.752   1.151  1.00  0.00     0.194 HD
BRANCH   6   8
ATOM      8  O   UNL d   1       3.758   4.968   0.295  0.00  0.00    -0.195 OA
BRANCH   8   9
ATOM      9  C   UNL d   1       4.645   4.068   0.834  0.00  0.00     0.321 C 
ATOM     10  O   UNL d   1       4.377   3.053   1.453  0.00  0.00    -0.257 OA
BRANCH   9  11
ATOM     11  C   UNL d   1       6.038   4.502   0.608  0.00  0.00     0.118 A 
ATOM     12  C   UNL d   1       6.437   5.187  -0.537  0.00  0.00     0.135 A 
ATOM     13  F   UNL d   1       5.555   5.525  -1.488  0.00  0.00    -0.205 F 
ATOM     14  C   UNL d   1       7.781   5.523  -0.743  0.00  0.00     0.043 A 
ATOM     15  C   UNL d   1       8.742   5.169   0.203  0.00  0.00     0.006 A 
ATOM     16  C   UNL d   1       8.356   4.484   1.351  0.00  0.00     0.043 A 
ATOM     17  C   UNL d   1       7.012   4.154   1.546  0.00  0.00     0.135 A 
ATOM     18  F   UNL d   1       6.691   3.506   2.675  0.00  0.00    -0.205 F 
ENDBRANCH   9  11
ENDBRANCH   8   9
ENDBRANCH   6   8
ENDBRANCH   3   5
BRANCH   1  19
ATOM     19  N   UNL d   1      -1.568   3.394  -0.136  0.00  0.00    -0.297 N 
ATOM     20  H   UNL d   1      -2.243   4.000   0.332  0.00  0.00     0.187 HD
BRANCH  19  21
ATOM     21  C   UNL d   1      -1.903   2.018   0.045  0.00  0.00     0.091 A 
ATOM     22  C   UNL d   1      -3.104   1.692   0.723  0.00  0.00     0.065 A 
ATOM     23  C   UNL d   1      -3.528   0.369   0.892  0.00  0.00     0.050 A 
ATOM     24 CL   UNL d   1      -4.104   2.942   1.393  0.00  0.00    -0.082 Cl
ATOM     25  C   UNL d   1      -2.759  -0.663   0.375  0.00  0.00     0.037 A 
ATOM     26  C   UNL d   1      -1.571  -0.388  -0.291  0.00  0.00     0.050 A 
ATOM     27 CL   UNL d   1      -3.291  -2.291   0.536  0.00  0.00    -0.084 Cl
ATOM     28  C   UNL d   1      -1.144   0.938  -0.460  0.00  0.00     0.065 A 
ATOM     29 CL   UNL d   1       0.309   1.135  -1.387  0.00  0.00    -0.082 Cl
ENDBRANCH  19  21
ENDBRANCH   1  19
TORSDOF 6
