REMARK  7 active torsions:
REMARK  status: ('A' for Active; 'I' for Inactive)
REMARK    1  A    between atoms: O_15  and  C_1 
REMARK    2  A    between atoms: O_16  and  C_2 
REMARK    3  A    between atoms: O_17  and  C_3 
REMARK    4  A    between atoms: N_5  and  C_19 
REMARK    5  A    between atoms: O_20  and  C_9 
REMARK    6  A    between atoms: C_19  and  C_11 
REMARK    7  A    between atoms: C_14  and  C_13 
ROOT
ATOM      1  C   UNL d   1      -2.862   0.431  -0.147  0.00  0.00     0.157 C 
ENDROOT
BRANCH   1   2
ATOM      2  N   UNL d   1      -3.609  -0.824  -0.009  0.00  0.00    -0.394 N 
ATOM      3  C   UNL d   1      -4.747  -0.901  -0.602  0.00  0.00     0.094 C 
ATOM      4  HN  UNL d   1      -3.240  -1.604   0.536  1.00  0.00     0.159 HD
BRANCH   3   5
ATOM      5  C   UNL d   1      -5.488  -2.175  -0.608  0.00  0.00    -0.021 A 
ATOM      6  C   UNL d   1      -4.935  -3.304   0.011  0.00  0.00     0.022 A 
ATOM      7  C   UNL d   1      -5.550  -4.569  -0.079  0.00  0.00    -0.028 A 
ATOM      8  C   UNL d   1      -4.808  -5.720   0.538  0.00  0.00     0.051 C 
ATOM      9  C   UNL d   1      -6.758  -4.671  -0.785  0.00  0.00     0.074 A 
ATOM     10  C   UNL d   1      -7.307  -3.523  -1.390  0.00  0.00     0.038 A 
ATOM     11  C   UNL d   1      -6.677  -2.277  -1.304  0.00  0.00     0.015 A 
BRANCH   9  12
ATOM     12  O   UNL d   1      -7.478  -5.801  -1.060  0.00  0.00    -0.355 OA
ATOM     13  C   UNL d   1      -7.505  -6.835  -0.090  0.00  0.00     0.210 C 
ENDBRANCH   9  12
ENDBRANCH   3   5
ENDBRANCH   1   2
BRANCH   1  14
ATOM     14  C   UNL d   1      -1.384   0.144  -0.096  0.00  0.00    -0.035 A 
ATOM     15  C   UNL d   1      -0.533   0.484  -1.145  0.00  0.00     0.048 A 
ATOM     16  C   UNL d   1       0.839   0.179  -1.110  0.00  0.00     0.104 A 
ATOM     17  C   UNL d   1       1.382  -0.465   0.021  0.00  0.00     0.135 A 
ATOM     18  C   UNL d   1       0.538  -0.727   1.127  0.00  0.00     0.104 A 
ATOM     19  C   UNL d   1      -0.836  -0.482   1.027  0.00  0.00     0.048 A 
BRANCH  16  20
ATOM     20  O   UNL d   1       1.459   0.587  -2.262  0.00  0.00    -0.353 OA
ATOM     21  C   UNL d   1       2.856   0.406  -2.415  0.00  0.00     0.210 C 
ENDBRANCH  16  20
BRANCH  17  22
ATOM     22  O   UNL d   1       2.734  -0.698   0.068  0.00  0.00    -0.351 OA
ATOM     23  C   UNL d   1       3.133  -2.015   0.453  0.00  0.00     0.210 C 
ENDBRANCH  17  22
BRANCH  18  24
ATOM     24  O   UNL d   1       1.113  -1.190   2.288  0.00  0.00    -0.353 OA
ATOM     25  C   UNL d   1       0.342  -1.040   3.478  0.00  0.00     0.210 C 
ENDBRANCH  18  24
ENDBRANCH   1  14
TORSDOF 7
