REMARK  2 active torsions:
REMARK  status: ('A' for Active; 'I' for Inactive)
REMARK    1  A    between atoms: C_10  and  C_5 
REMARK    2  A    between atoms: O_17  and  C_12 
ROOT
ATOM      1  C   UNL d   1      -2.066   0.326   0.030  0.00  0.00    -0.006 C 
ATOM      2  C   UNL d   1      -1.092  -0.810  -0.011  0.00  0.00     0.189 C 
ATOM      3  C   UNL d   1       0.352  -0.434   0.003  0.00  0.00     0.021 A 
ATOM      4  C   UNL d   1       0.747   0.914  -0.034  0.00  0.00    -0.041 A 
ATOM      5  C   UNL d   1      -3.279   0.136  -0.523  0.00  0.00     0.022 C 
ATOM      6  C   UNL d   1       1.322  -1.442   0.017  0.00  0.00     0.019 A 
ATOM      7  C   UNL d   1      -1.549   1.588   0.659  0.00  0.00     0.047 C 
ATOM      8  O   UNL d   1      -1.448  -1.980  -0.067  0.00  0.00    -0.287 OA
ATOM      9  C   UNL d   1       2.112   1.225  -0.100  0.00  0.00     0.044 A 
ATOM     10  C   UNL d   1      -0.273   2.022  -0.050  0.00  0.00     0.044 C 
ATOM     11  C   UNL d   1       3.082   0.218  -0.093  0.00  0.00     0.068 A 
ATOM     12  C   UNL d   1       2.682  -1.117  -0.025  0.00  0.00     0.038 A 
ENDROOT
BRANCH   5  13
ATOM     13  C   UNL d   1      -4.275   1.201  -0.625  0.00  0.00    -0.034 A 
ATOM     14  C   UNL d   1      -4.275   2.050  -1.739  0.00  0.00     0.030 A 
ATOM     15  C   UNL d   1      -5.159   3.127  -1.788  0.00  0.00     0.011 A 
ATOM     16 BR   UNL d   1      -5.130   4.296  -3.273  0.00  0.00    -0.051 Br
ATOM     17  C   UNL d   1      -6.050   3.361  -0.741  0.00  0.00     0.019 A 
ATOM     18  C   UNL d   1      -6.062   2.506   0.361  0.00  0.00     0.002 A 
ATOM     19  C   UNL d   1      -5.175   1.429   0.420  0.00  0.00     0.011 A 
ENDBRANCH   5  13
BRANCH  11  20
ATOM     20  O   UNL d   1       4.369   0.674  -0.160  0.00  0.00    -0.356 OA
ATOM     21  C   UNL d   1       5.400  -0.305  -0.163  0.00  0.00     0.210 C 
ENDBRANCH  11  20
TORSDOF 2
