REMARK  2 active torsions:
REMARK  status: ('A' for Active; 'I' for Inactive)
REMARK    1  A    between atoms: N_8  and  N_5 
REMARK    2  A    between atoms: C_13  and  N_8 
ROOT
ATOM      1  C   UNL d   1       1.393   0.967  -0.009  0.00  0.00     0.129 A 
ATOM      2  C   UNL d   1      -0.028   0.394  -0.050  0.00  0.00     0.275 A 
ATOM      3  C   UNL d   1       2.289  -0.181  -0.064  0.00  0.00     0.027 A 
ATOM      4  N   UNL d   1       0.132  -0.974  -0.157  0.00  0.00    -0.321 N 
ATOM      5  N   UNL d   1       1.776   2.200   0.039  0.00  0.00    -0.294 N 
ATOM      6  HN  UNL d   1       2.764   2.454   0.065  1.00  0.00     0.187 HD
ATOM      7  C   UNL d   1       1.482  -1.314  -0.162  0.00  0.00     0.048 A 
ATOM      8  C   UNL d   1       3.666  -0.244  -0.039  0.00  0.00     0.058 A 
ATOM      9  O   UNL d   1      -1.052   1.038   0.014  0.00  0.00    -0.266 OA
ATOM     10  C   UNL d   1       2.030  -2.577  -0.244  0.00  0.00     0.033 A 
ATOM     11  C   UNL d   1       4.224  -1.515  -0.118  0.00  0.00     0.117 A 
ATOM     12  C   UNL d   1       3.427  -2.670  -0.221  0.00  0.00     0.044 A 
ATOM     13  F   UNL d   1       5.557  -1.646  -0.096  0.00  0.00    -0.206 F 
ATOM     14  H   UNL d   1      -0.645  -1.617  -0.206  0.00  0.00     0.169 HD
ENDROOT
BRANCH   5  15
ATOM     15  N   UNL d   1       0.800   3.139   0.054  0.00  0.00    -0.300 N 
ATOM     16  H   UNL d   1      -0.185   2.896   0.185  0.00  0.00     0.187 HD
BRANCH  15  17
ATOM     17  C   UNL d   1       1.141   4.500   0.085  0.00  0.00     0.048 A 
ATOM     18  C   UNL d   1       2.471   4.937   0.039  0.00  0.00     0.031 A 
ATOM     19  C   UNL d   1       2.787   6.298   0.028  0.00  0.00     0.009 A 
ATOM     20  C   UNL d   1       1.773   7.260   0.055  0.00  0.00    -0.062 A 
ATOM     21  C   UNL d   1       0.441   6.836   0.090  0.00  0.00     0.009 A 
ATOM     22  C   UNL d   1       2.125   8.717   0.026  0.00  0.00     0.048 C 
ATOM     23  C   UNL d   1       0.132   5.470   0.102  0.00  0.00     0.031 A 
ENDBRANCH  15  17
ENDBRANCH   5  15
TORSDOF 2
