REMARK  1 active torsions:
REMARK  status: ('A' for Active; 'I' for Inactive)
REMARK    1  A    between atoms: C_4  and  N_1 
ROOT
ATOM      1  N   UNL d   1       0.670   1.135  -0.573  0.00  0.00    -0.251 N 
ATOM      2  C   UNL d   1       1.434  -0.024  -0.347  0.00  0.00     0.239 C 
ATOM      3  C   UNL d   1      -0.681   1.286  -0.240  0.00  0.00     0.231 C 
ATOM      4  C   UNL d   1       0.639  -1.334  -0.242  0.00  0.00     0.035 C 
ATOM      5  O   UNL d   1       2.667  -0.054  -0.344  0.00  0.00    -0.272 OA
ATOM      6  C   UNL d   1      -1.480   0.017  -0.092  0.00  0.00     0.105 C 
ATOM      7  O   UNL d   1      -1.256   2.371  -0.117  0.00  0.00    -0.273 OA
ATOM      8  C   UNL d   1      -0.671  -1.106   0.512  0.00  0.00     0.028 C 
ATOM      9  C   UNL d   1       0.407  -1.839  -1.678  0.00  0.00     0.025 C 
ATOM     10  C   UNL d   1       1.452  -2.400   0.515  0.00  0.00     0.025 C 
ENDROOT
BRANCH   1  11
ATOM     11  C   UNL d   1       1.326   2.294  -1.104  0.00  0.00     0.057 A 
ATOM     12  C   UNL d   1       0.932   2.760  -2.389  0.00  0.00    -0.034 A 
ATOM     13  C   UNL d   1       1.555   3.888  -2.945  0.00  0.00     0.009 A 
ATOM     14  C   UNL d   1      -0.155   2.119  -3.212  0.00  0.00     0.050 C 
ATOM     15  C   UNL d   1       2.575   4.539  -2.266  0.00  0.00     0.001 A 
ATOM     16  C   UNL d   1       2.969   4.087  -1.010  0.00  0.00     0.009 A 
ATOM     17  C   UNL d   1       2.351   2.976  -0.406  0.00  0.00    -0.034 A 
ATOM     18  C   UNL d   1       2.801   2.632   0.988  0.00  0.00     0.050 C 
ENDBRANCH   1  11
TORSDOF 1
