REMARK  7 active torsions:
REMARK  status: ('A' for Active; 'I' for Inactive)
REMARK    1  A    between atoms: C_2  and  S_1 
REMARK    2  A    between atoms: N_10  and  S_1 
REMARK    3  A    between atoms: O_20  and  C_9 
REMARK    4  A    between atoms: C_21  and  N_10 
REMARK    5  A    between atoms: O_22  and  C_11 
REMARK    6  A    between atoms: C_17  and  C_23 
REMARK    7  A    between atoms: C_23  and  C_21 
ROOT
ATOM      1  N   UNL d   1       2.738  -0.902   2.123  0.00  0.00    -0.315 N 
ATOM      2  H   UNL d   1       3.220  -1.802   2.094  0.00  0.00     0.172 HD
ENDROOT
BRANCH   1   3
ATOM      3  S   UNL d   1       1.076  -1.047   2.302  0.00  0.00     0.260 S 
ATOM      4  O   UNL d   1       0.802  -2.166   3.167  0.00  0.00    -0.200 OA
ATOM      5  O   UNL d   1       0.556   0.275   2.582  0.00  0.00    -0.200 OA
BRANCH   3   6
ATOM      6  C   UNL d   1       0.560  -1.492   0.661  0.00  0.00     0.102 A 
ATOM      7  C   UNL d   1       1.003  -2.675   0.045  0.00  0.00     0.080 A 
ATOM      8  C   UNL d   1       0.584  -2.960  -1.271  0.00  0.00     0.079 A 
ATOM      9 CL   UNL d   1       2.096  -3.763   0.849  0.00  0.00    -0.081 Cl
ATOM     10 CL   UNL d   1       1.125  -4.403  -2.079  0.00  0.00    -0.081 Cl
ATOM     11  C   UNL d   1      -0.264  -2.064  -1.944  0.00  0.00     0.057 A 
ATOM     12  C   UNL d   1      -0.700  -0.896  -1.315  0.00  0.00     0.027 A 
ATOM     13 CL   UNL d   1      -0.800  -2.327  -3.568  0.00  0.00    -0.082 Cl
ATOM     14  C   UNL d   1      -0.294  -0.611  -0.015  0.00  0.00     0.029 A 
ENDBRANCH   3   6
ENDBRANCH   1   3
BRANCH   1  15
ATOM     15  C   UNL d   1       3.277   0.215   1.336  0.00  0.00     0.137 C 
BRANCH  15  16
ATOM     16  C   UNL d   1       4.807   0.183   1.316  0.00  0.00     0.059 C 
BRANCH  16  17
ATOM     17  C   UNL d   1       5.434   0.351   2.679  0.00  0.00    -0.054 A 
ATOM     18  C   UNL d   1       5.654   1.632   3.213  0.00  0.00     0.046 A 
ATOM     19  C   UNL d   1       6.251   1.807   4.473  0.00  0.00     0.102 A 
ATOM     20  C   UNL d   1       6.598   0.669   5.221  0.00  0.00     0.101 A 
ATOM     21  C   UNL d   1       6.373  -0.607   4.689  0.00  0.00     0.040 A 
ATOM     22  C   UNL d   1       5.796  -0.768   3.432  0.00  0.00     0.010 A 
BRANCH  19  23
ATOM     23  O   UNL d   1       6.547   3.036   5.000  0.00  0.00    -0.353 OA
ATOM     24  C   UNL d   1       6.229   4.191   4.236  0.00  0.00     0.210 C 
ENDBRANCH  19  23
BRANCH  20  25
ATOM     25  O   UNL d   1       7.213   0.630   6.447  0.00  0.00    -0.353 OA
ATOM     26  C   UNL d   1       6.936   1.698   7.342  0.00  0.00     0.210 C 
ENDBRANCH  20  25
ENDBRANCH  16  17
ENDBRANCH  15  16
ENDBRANCH   1  15
TORSDOF 7
