REMARK  4 active torsions:
REMARK  status: ('A' for Active; 'I' for Inactive)
REMARK       I    between atoms: N_3  and  C_1 
REMARK    1  A    between atoms: C_8  and  C_1 
REMARK    2  A    between atoms: C_5  and  N_2 
REMARK    3  A    between atoms: C_9  and  N_3 
REMARK    4  A    between atoms: C_4  and  C_5 
ROOT
ATOM      1  N   UNL d   1       1.178  -5.208  -0.449  0.00  0.00     0.092 N 
ATOM      2  C   UNL d   1       1.361  -2.333  -0.182  0.00  0.00     0.088 C 
ATOM      3  C   UNL d   1       1.199  -3.003  -1.553  0.00  0.00     0.055 C 
ATOM      4  C   UNL d   1       1.284  -3.243   1.051  0.00  0.00     0.055 C 
ATOM      5  C   UNL d   1       0.680  -4.621   0.809  0.00  0.00     0.275 C 
ATOM      6  C   UNL d   1       0.610  -4.411  -1.546  0.00  0.00     0.275 C 
ENDROOT
BRANCH   2   7
ATOM      7  N   UNL d   1       0.599  -1.087  -0.065  0.00  0.00    -0.352 N 
ATOM      8  C   UNL d   1      -0.739  -0.989   0.242  0.00  0.00     0.252 C 
ATOM      9  O   UNL d   1      -1.458  -1.962   0.435  0.00  0.00    -0.268 OA
ATOM     10  H   UNL d   1       1.061  -0.268  -0.430  0.00  0.00     0.163 HD
BRANCH   8  11
ATOM     11  C   UNL d   1      -1.298   0.405   0.329  0.00  0.00     0.032 A 
ATOM     12  C   UNL d   1      -2.691   0.573   0.317  0.00  0.00     0.017 A 
ATOM     13  C   UNL d   1      -3.253   1.853   0.396  0.00  0.00     0.001 A 
ATOM     14  C   UNL d   1      -2.434   2.974   0.492  0.00  0.00     0.000 A 
ATOM     15  C   UNL d   1      -1.049   2.819   0.523  0.00  0.00     0.001 A 
ATOM     16  C   UNL d   1      -0.484   1.543   0.453  0.00  0.00     0.017 A 
ENDBRANCH   8  11
ENDBRANCH   2   7
BRANCH   1  17
ATOM     17  C   UNL d   1       0.741  -6.620  -0.528  0.00  0.00     0.312 C 
BRANCH  17  18
ATOM     18  C   UNL d   1       1.318  -7.402  -1.697  0.00  0.00    -0.008 A 
ATOM     19  C   UNL d   1       0.519  -8.026  -2.668  0.00  0.00     0.042 A 
ATOM     20 CL   UNL d   1      -1.205  -7.891  -2.678  0.00  0.00    -0.084 Cl
ATOM     21  C   UNL d   1       1.098  -8.799  -3.683  0.00  0.00     0.024 A 
ATOM     22  C   UNL d   1       2.481  -8.960  -3.746  0.00  0.00     0.002 A 
ATOM     23  C   UNL d   1       3.290  -8.339  -2.799  0.00  0.00     0.001 A 
ATOM     24  C   UNL d   1       2.715  -7.566  -1.785  0.00  0.00     0.011 A 
ENDBRANCH  17  18
ENDBRANCH   1  17
TORSDOF 4
