REMARK  4 active torsions:
REMARK  status: ('A' for Active; 'I' for Inactive)
REMARK    1  A    between atoms: N_3  and  S_1 
REMARK    2  A    between atoms: C_9  and  S_1 
REMARK    3  A    between atoms: N_2  and  C_4 
REMARK    4  A    between atoms: C_6  and  N_5 
ROOT
ATOM      1  N   UNL d   1       0.472  -1.614   0.428  0.00  0.00    -0.205 NA
ATOM      2  N   UNL d   1      -1.238  -4.112   0.363  0.00  0.00    -0.366 N 
ATOM      3  C   UNL d   1      -1.037  -1.619   0.366  0.00  0.00     0.127 C 
ATOM      4  C   UNL d   1      -1.658  -2.868   1.015  0.00  0.00     0.140 C 
ATOM      5  C   UNL d   1       1.243  -4.014   0.338  0.00  0.00     0.035 C 
ATOM      6  C   UNL d   1       1.039  -2.717  -0.435  0.00  0.00     0.109 C 
ATOM      7  C   UNL d   1      -0.007  -4.714   0.870  0.00  0.00     0.125 C 
ENDROOT
BRANCH   1   8
ATOM      8  S   UNL d   1       1.158  -0.093  -0.025  0.00  0.00     0.243 S 
ATOM      9  O   UNL d   1       0.571   0.265  -1.302  0.00  0.00    -0.206 OA
ATOM     10  O   UNL d   1       2.595  -0.182   0.140  0.00  0.00    -0.206 OA
BRANCH   8  11
ATOM     11  C   UNL d   1       0.586   1.072   1.189  0.00  0.00     0.074 A 
ATOM     12  C   UNL d   1       0.992   0.936   2.521  0.00  0.00     0.026 A 
ATOM     13  C   UNL d   1       0.659   1.930   3.446  0.00  0.00     0.025 A 
ATOM     14  C   UNL d   1      -0.067   3.050   3.036  0.00  0.00     0.034 A 
ATOM     15  C   UNL d   1      -0.479   3.181   1.710  0.00  0.00     0.025 A 
ATOM     16 CL   UNL d   1      -0.435   4.293   4.168  0.00  0.00    -0.084 Cl
ATOM     17  C   UNL d   1      -0.153   2.191   0.781  0.00  0.00     0.026 A 
ENDBRANCH   8  11
ENDBRANCH   1   8
BRANCH   2  18
ATOM     18  C   UNL d   1      -2.004  -4.784  -0.565  0.00  0.00     0.103 A 
ATOM     19  N   UNL d   1      -1.768  -6.102  -0.767  0.00  0.00    -0.350 N 
ATOM     20  C   UNL d   1      -2.531  -6.797  -1.652  0.00  0.00     0.125 A 
ATOM     21  HN  UNL d   1      -1.019  -6.572  -0.258  1.00  0.00     0.166 HD
ATOM     22  C   UNL d   1      -3.538  -6.216  -2.394  0.00  0.00     0.118 A 
ATOM     23  C   UNL d   1      -3.780  -4.858  -2.228  0.00  0.00     0.041 A 
ATOM     24  C   UNL d   1      -3.008  -4.148  -1.302  0.00  0.00     0.051 A 
BRANCH  22  25
ATOM     25  N   UNL d   1      -4.320  -7.016  -3.325  0.00  0.00    -0.114 N 
ATOM     26  O   UNL d   1      -4.069  -8.226  -3.398  0.00  0.00    -0.532 OA
ATOM     27  O   UNL d   1      -5.193  -6.436  -3.987  0.00  0.00    -0.532 OA
ENDBRANCH  22  25
ENDBRANCH   2  18
TORSDOF 4
