REMARK  7 active torsions:
REMARK  status: ('A' for Active; 'I' for Inactive)
REMARK    1  A    between atoms: C_2  and  S_1 
REMARK    2  A    between atoms: N_7  and  S_1 
REMARK    3  A    between atoms: O_17  and  C_6 
REMARK    4  A    between atoms: C_18  and  N_7 
REMARK    5  A    between atoms: O_19  and  C_9 
REMARK    6  A    between atoms: C_14  and  C_22 
REMARK    7  A    between atoms: C_22  and  C_18 
ROOT
ATOM      1  N   UNL d   1       2.693  -0.374  -0.180  0.00  0.00    -0.315 N 
ATOM      2  H   UNL d   1       3.186  -1.244   0.033  0.00  0.00     0.172 HD
ENDROOT
BRANCH   1   3
ATOM      3  S   UNL d   1       1.013  -0.564  -0.118  0.00  0.00     0.260 S 
ATOM      4  O   UNL d   1       0.709  -1.563   0.880  0.00  0.00    -0.200 OA
ATOM      5  O   UNL d   1       0.440   0.764  -0.058  0.00  0.00    -0.200 OA
BRANCH   3   6
ATOM      6  C   UNL d   1       0.634  -1.244  -1.716  0.00  0.00     0.102 A 
ATOM      7  C   UNL d   1       1.205  -2.448  -2.153  0.00  0.00     0.079 A 
ATOM      8  C   UNL d   1       0.939  -2.877  -3.465  0.00  0.00     0.057 A 
ATOM      9 CL   UNL d   1       2.264  -3.385  -1.148  0.00  0.00    -0.081 Cl
ATOM     10 CL   UNL d   1       1.618  -4.325  -4.127  0.00  0.00    -0.083 Cl
ATOM     11  C   UNL d   1       0.118  -2.121  -4.312  0.00  0.00     0.026 A 
ATOM     12  C   UNL d   1      -0.454  -0.935  -3.862  0.00  0.00     0.003 A 
ATOM     13  C   UNL d   1      -0.201  -0.496  -2.565  0.00  0.00     0.027 A 
ENDBRANCH   3   6
ENDBRANCH   1   3
BRANCH   1  14
ATOM     14  C   UNL d   1       3.216   0.481  -1.254  0.00  0.00     0.137 C 
BRANCH  14  15
ATOM     15  C   UNL d   1       4.725   0.707  -1.122  0.00  0.00     0.059 C 
BRANCH  15  16
ATOM     16  C   UNL d   1       5.317   1.529  -2.253  0.00  0.00    -0.054 A 
ATOM     17  C   UNL d   1       4.579   2.527  -2.916  0.00  0.00     0.046 A 
ATOM     18  C   UNL d   1       5.124   3.292  -3.956  0.00  0.00     0.102 A 
ATOM     19  C   UNL d   1       6.469   3.095  -4.300  0.00  0.00     0.101 A 
ATOM     20  C   UNL d   1       7.213   2.103  -3.650  0.00  0.00     0.040 A 
ATOM     21  C   UNL d   1       6.647   1.331  -2.632  0.00  0.00     0.010 A 
BRANCH  18  22
ATOM     22  O   UNL d   1       4.402   4.211  -4.670  0.00  0.00    -0.353 OA
ATOM     23  C   UNL d   1       3.012   4.333  -4.395  0.00  0.00     0.210 C 
ENDBRANCH  18  22
BRANCH  19  24
ATOM     24  O   UNL d   1       7.169   3.763  -5.274  0.00  0.00    -0.353 OA
ATOM     25  C   UNL d   1       6.849   5.143  -5.428  0.00  0.00     0.210 C 
ENDBRANCH  19  24
ENDBRANCH  15  16
ENDBRANCH  14  15
ENDBRANCH   1  14
TORSDOF 7
