REMARK  1 active torsions:
REMARK  status: ('A' for Active; 'I' for Inactive)
REMARK    1  A    between atoms: O_12  and  C_8 
ROOT
ATOM      1  C   UNL d   1       1.170   0.649  -0.028  0.00  0.00     0.090 A 
ATOM      2  C   UNL d   1       0.630  -0.628   0.048  0.00  0.00     0.056 A 
ATOM      3  S   UNL d   1      -0.013   1.872  -0.083  0.00  0.00    -0.075 SA
ATOM      4  C   UNL d   1      -0.816  -0.573   0.021  0.00  0.00    -0.028 A 
ATOM      5  C   UNL d   1      -1.271   0.734  -0.004  0.00  0.00    -0.008 A 
ATOM      6  N   UNL d   1       2.471   0.975  -0.048  0.00  0.00    -0.346 N 
ATOM      7  HN  UNL d   1       2.814   1.934  -0.110  1.00  0.00     0.167 HD
ATOM      8  C   UNL d   1       1.577  -1.659   0.145  0.00  0.00     0.156 A 
ATOM      9  N   UNL d   1       2.898  -1.377   0.123  0.00  0.00    -0.332 N 
ATOM     10  HN  UNL d   1       3.595  -2.120   0.182  1.00  0.00     0.168 HD
ATOM     11  C   UNL d   1       3.267  -0.093   0.021  0.00  0.00     0.183 A 
ATOM     12  C   UNL d   1      -1.770  -1.734   0.063  0.00  0.00     0.041 C 
ATOM     13  C   UNL d   1      -2.707   1.159  -0.000  0.00  0.00     0.047 C 
ATOM     14  C   UNL d   1      -3.216  -1.309  -0.261  0.00  0.00     0.005 C 
ATOM     15  C   UNL d   1      -3.603  -0.004   0.447  0.00  0.00     0.005 C 
ENDROOT
BRANCH   8  16
ATOM     16  O   UNL d   1       1.173  -2.977   0.268  0.00  0.00    -0.340 OA
ATOM     17  C   UNL d   1       2.238  -3.833   0.682  0.00  0.00     0.211 C 
ENDBRANCH   8  16
TORSDOF 1
