REMARK  8 active torsions:
REMARK  status: ('A' for Active; 'I' for Inactive)
REMARK    1  A    between atoms: N_2  and  C_1 
REMARK    2  A    between atoms: C_3  and  C_1 
REMARK    3  A    between atoms: C_4  and  C_1 
REMARK    4  A    between atoms: N_6  and  C_1 
REMARK       I    between atoms: C_5  and  N_2 
REMARK    5  A    between atoms: C_7  and  C_5 
REMARK    6  A    between atoms: C_17  and  N_6 
REMARK    7  A    between atoms: C_20  and  C_17 
REMARK    8  A    between atoms: O_25  and  C_21 
ROOT
ATOM      1  C   UNL d   1       1.026  -0.236  -0.091  0.00  0.00     0.426 C 
ENDROOT
BRANCH   1   2
ATOM      2  N   UNL d   1       0.737   0.737  -1.201  0.00  0.00    -0.307 N 
ATOM      3  C   UNL d   1       0.694   0.465  -2.551  0.00  0.00     0.254 C 
ATOM      4  O   UNL d   1       0.870  -0.655  -3.006  0.00  0.00    -0.268 OA
ATOM      5  H   UNL d   1       0.538   1.678  -0.886  0.00  0.00     0.166 HD
BRANCH   3   6
ATOM      6  C   UNL d   1       0.411   1.612  -3.465  0.00  0.00     0.032 A 
ATOM      7  C   UNL d   1       0.527   2.953  -3.071  0.00  0.00     0.020 A 
ATOM      8  C   UNL d   1       0.180   3.983  -3.954  0.00  0.00     0.038 A 
ATOM      9  C   UNL d   1      -0.270   3.684  -5.239  0.00  0.00     0.068 A 
ATOM     10  C   UNL d   1      -0.312   2.356  -5.662  0.00  0.00     0.038 A 
ATOM     11  C   UNL d   1       0.019   1.324  -4.779  0.00  0.00     0.020 A 
BRANCH   9  12
ATOM     12  O   UNL d   1      -0.643   4.617  -6.167  0.00  0.00    -0.356 OA
ATOM     13  C   UNL d   1      -1.294   5.766  -5.629  0.00  0.00     0.210 C 
ENDBRANCH   9  12
ENDBRANCH   3   6
ENDBRANCH   1   2
BRANCH   1  14
ATOM     14  C   UNL d   1       0.224  -1.605  -0.150  0.00  0.00     0.452 C 
ATOM     15  F   UNL d   1      -0.577  -1.707  -1.236  0.00  0.00    -0.166 F 
ATOM     16  F   UNL d   1       1.076  -2.664  -0.185  0.00  0.00    -0.166 F 
ATOM     17  F   UNL d   1      -0.580  -1.851   0.905  0.00  0.00    -0.166 F 
ENDBRANCH   1  14
BRANCH   1  18
ATOM     18  C   UNL d   1       0.585   0.488   1.265  0.00  0.00     0.452 C 
ATOM     19  F   UNL d   1       0.225   1.782   0.987  0.00  0.00    -0.166 F 
ATOM     20  F   UNL d   1      -0.446  -0.029   1.949  0.00  0.00    -0.166 F 
ATOM     21  F   UNL d   1       1.623   0.584   2.139  0.00  0.00    -0.166 F 
ENDBRANCH   1  18
BRANCH   1  22
ATOM     22  N   UNL d   1       2.546  -0.339  -0.074  0.00  0.00     0.136 N 
ATOM     23  H   UNL d   1       2.797  -0.903   0.743  0.00  0.00     0.320 HD
BRANCH  22  24
ATOM     24  C   UNL d   1       3.159  -0.975  -1.247  0.00  0.00     0.313 C 
BRANCH  24  25
ATOM     25  C   UNL d   1       4.625  -1.281  -1.047  0.00  0.00    -0.015 A 
ATOM     26  C   UNL d   1       5.194  -2.386  -1.676  0.00  0.00     0.096 A 
ATOM     27  N   UNL d   1       6.509  -2.702  -1.626  0.00  0.00    -0.375 N 
ATOM     28  C   UNL d   1       7.305  -1.866  -0.929  0.00  0.00     0.087 A 
ATOM     29  HN  UNL d   1       6.879  -3.530  -2.092  1.00  0.00     0.164 HD
ATOM     30  C   UNL d   1       6.848  -0.733  -0.278  0.00  0.00     0.018 A 
ATOM     31  C   UNL d   1       5.489  -0.434  -0.346  0.00  0.00     0.011 A 
ENDBRANCH  24  25
ENDBRANCH  22  24
ENDBRANCH   1  22
TORSDOF 8
