REMARK  5 active torsions:
REMARK  status: ('A' for Active; 'I' for Inactive)
REMARK    1  A    between atoms: C_3  and  C_1 
REMARK    2  A    between atoms: C_4  and  C_2 
REMARK       I    between atoms: N_7  and  C_3 
REMARK    3  A    between atoms: C_5  and  N_7 
REMARK    4  A    between atoms: C_6  and  C_12 
REMARK    5  A    between atoms: O_24  and  C_8 
ROOT
ATOM      1  C   UNL d   1       1.500  -0.415   0.118  0.00  0.00     0.080 C 
ATOM      2  C   UNL d   1       0.599  -1.495   0.133  0.00  0.00     0.067 C 
ATOM      3  C   UNL d   1       1.052   0.863  -0.258  0.00  0.00     0.085 C 
ATOM      4  C   UNL d   1      -1.241   0.071  -0.307  0.00  0.00     0.051 C 
ATOM      5  C   UNL d   1      -0.772  -1.232  -0.074  0.00  0.00     0.033 C 
ATOM      6  C   UNL d   1      -0.310   1.107  -0.442  0.00  0.00     0.053 C 
ENDROOT
BRANCH   1   7
ATOM      7  C   UNL d   1       2.806  -0.512   0.803  0.00  0.00     0.260 C 
ATOM      8  N   UNL d   1       3.794  -1.228   0.175  0.00  0.00    -0.307 N 
ATOM      9  H   UNL d   1       3.631  -1.733  -0.687  0.00  0.00     0.170 HD
ATOM     10  O   UNL d   1       2.900   0.055   1.888  0.00  0.00    -0.267 OA
BRANCH   8  11
ATOM     11  C   UNL d   1       5.078  -1.356   0.671  0.00  0.00     0.130 A 
ATOM     12  N   UNL d   1       5.994  -2.056  -0.009  0.00  0.00    -0.245 N 
ATOM     13  O   UNL d   1       7.169  -1.953   0.717  0.00  0.00    -0.241 OA
ATOM     14  HN  UNL d   1       5.855  -2.562  -0.883  1.00  0.00     0.196 HD
ATOM     15  C   UNL d   1       6.950  -1.202   1.828  0.00  0.00     0.076 A 
ATOM     16  C   UNL d   1       5.634  -0.815   1.852  0.00  0.00     0.084 A 
ATOM     17  C   UNL d   1       8.101  -0.949   2.712  0.00  0.00     0.079 C 
ENDBRANCH   8  11
ENDBRANCH   1   7
BRANCH   2  18
ATOM     18  C   UNL d   1       1.046  -2.905   0.418  0.00  0.00     0.418 C 
ATOM     19  F   UNL d   1       2.195  -3.229  -0.232  0.00  0.00    -0.166 F 
ATOM     20  F   UNL d   1       1.257  -3.146   1.736  0.00  0.00    -0.166 F 
ATOM     21  F   UNL d   1       0.135  -3.833   0.006  0.00  0.00    -0.166 F 
ENDBRANCH   2  18
BRANCH   3  22
ATOM     22  O   UNL d   1       1.872   1.956  -0.387  0.00  0.00    -0.355 OA
ATOM     23  C   UNL d   1       2.838   1.789  -1.427  0.00  0.00     0.210 C 
ENDBRANCH   3  22
BRANCH   4  24
ATOM     24  C   UNL d   1      -2.721   0.379  -0.365  0.00  0.00     0.417 C 
ATOM     25  F   UNL d   1      -3.506  -0.724  -0.231  0.00  0.00    -0.166 F 
ATOM     26  F   UNL d   1      -3.106   1.234   0.620  0.00  0.00    -0.166 F 
ATOM     27  F   UNL d   1      -3.085   0.961  -1.538  0.00  0.00    -0.166 F 
ENDBRANCH   4  24
TORSDOF 5
