REMARK  4 active torsions:
REMARK  status: ('A' for Active; 'I' for Inactive)
REMARK    1  A    between atoms: O_10  and  S_1 
REMARK    2  A    between atoms: C_11  and  S_1 
REMARK    3  A    between atoms: C_18  and  O_10 
REMARK    4  A    between atoms: C_16  and  C_18 
ROOT
ATOM      1  C   UNL d   1      -1.474  -1.150   5.143  0.00  0.00     0.105 A 
ATOM      2  O   UNL d   1      -0.996  -0.985   3.863  0.00  0.00    -0.339 OA
ATOM      3  C   UNL d   1      -0.632  -1.327   6.261  0.00  0.00     0.105 A 
ATOM      4  C   UNL d   1      -2.862  -1.158   5.299  0.00  0.00     0.079 A 
ATOM      5  C   UNL d   1      -1.160  -1.478   7.545  0.00  0.00     0.079 A 
ATOM      6  C   UNL d   1      -3.359  -1.339   6.575  0.00  0.00     0.107 A 
ATOM      7  C   UNL d   1      -2.531  -1.490   7.666  0.00  0.00     0.107 A 
ATOM      8  O   UNL d   1       0.735  -1.373   6.162  0.00  0.00    -0.346 OA
ATOM      9  O   UNL d   1      -3.224  -1.666   8.823  0.00  0.00    -0.323 OA
ATOM     10  O   UNL d   1      -4.675  -1.399   6.917  0.00  0.00    -0.323 OA
ATOM     11  C   UNL d   1       0.419  -0.709   3.843  0.00  0.00     0.178 C 
ATOM     12  C   UNL d   1      -4.577  -1.706   8.324  0.00  0.00     0.352 A 
ATOM     13  C   UNL d   1       1.139  -1.641   4.818  0.00  0.00     0.210 C 
ENDROOT
BRANCH  11  14
ATOM     14  C   UNL d   1       0.966  -0.947   2.434  0.00  0.00     0.225 C 
BRANCH  14  15
ATOM     15  O   UNL d   1       0.460   0.000   1.494  0.00  0.00    -0.269 OA
BRANCH  15  16
ATOM     16  S   UNL d   1       1.051  -0.138  -0.024  0.00  0.00     0.298 S 
ATOM     17  O   UNL d   1       0.551  -1.377  -0.588  0.00  0.00    -0.193 OA
ATOM     18  O   UNL d   1       2.474   0.128   0.050  0.00  0.00    -0.193 OA
BRANCH  16  19
ATOM     19  C   UNL d   1       0.324   1.181  -0.957  0.00  0.00     0.086 A 
ATOM     20  C   UNL d   1       1.045   1.715  -2.030  0.00  0.00     0.026 A 
ATOM     21  C   UNL d   1       0.538   2.813  -2.724  0.00  0.00     0.008 A 
ATOM     22  C   UNL d   1      -0.686   3.383  -2.348  0.00  0.00    -0.062 A 
ATOM     23  C   UNL d   1      -1.415   2.814  -1.293  0.00  0.00     0.008 A 
ATOM     24  C   UNL d   1      -1.172   4.620  -3.047  0.00  0.00     0.048 C 
ATOM     25  C   UNL d   1      -0.913   1.713  -0.593  0.00  0.00     0.026 A 
ENDBRANCH  16  19
ENDBRANCH  15  16
ENDBRANCH  14  15
ENDBRANCH  11  14
TORSDOF 4
