REMARK  8 active torsions:
REMARK  status: ('A' for Active; 'I' for Inactive)
REMARK    1  A    between atoms: C_4  and  C_1 
REMARK    2  A    between atoms: C_2  and  C_5 
REMARK       I    between atoms: N_3  and  C_2 
REMARK    3  A    between atoms: C_14  and  N_3 
REMARK    4  A    between atoms: C_5  and  O_6 
REMARK    5  A    between atoms: O_6  and  C_15 
REMARK    6  A    between atoms: O_11  and  C_16 
REMARK    7  A    between atoms: C_17  and  O_11 
REMARK    8  A    between atoms: O_29  and  C_18 
ROOT
ATOM      1  C   UNL d   1      -0.800  -4.881   6.852  0.00  0.00     0.070 A 
ATOM      2  C   UNL d   1      -0.471  -2.277   5.895  0.00  0.00     0.076 A 
ATOM      3  C   UNL d   1       0.043  -4.635   5.769  0.00  0.00     0.039 A 
ATOM      4  C   UNL d   1      -1.549  -3.830   7.389  0.00  0.00     0.039 A 
ATOM      5  C   UNL d   1      -1.398  -2.532   6.906  0.00  0.00     0.040 A 
ATOM      6  C   UNL d   1       0.206  -3.331   5.289  0.00  0.00     0.040 A 
ENDROOT
BRANCH   1   7
ATOM      7  O   UNL d   1      -0.980  -6.071   7.496  0.00  0.00    -0.337 OA
BRANCH   7   8
ATOM      8  C   UNL d   1      -0.050  -7.133   7.301  0.00  0.00     0.217 C 
ATOM      9  C   UNL d   1      -0.863  -8.427   7.303  0.00  0.00     0.050 C 
BRANCH   8  10
ATOM     10  C   UNL d   1       1.054  -7.222   8.383  0.00  0.00     0.251 C 
ATOM     11  N   UNL d   1       1.248  -6.051   9.094  0.00  0.00    -0.325 N 
ATOM     12  H   UNL d   1       0.566  -5.319   8.929  0.00  0.00     0.169 HD
ATOM     13  O   UNL d   1       1.701  -8.259   8.525  0.00  0.00    -0.270 OA
BRANCH  11  14
ATOM     14  C   UNL d   1       2.195  -5.813  10.114  0.00  0.00     0.035 A 
ATOM     15  C   UNL d   1       3.212  -6.706  10.453  0.00  0.00     0.032 A 
ATOM     16  C   UNL d   1       4.093  -6.428  11.509  0.00  0.00     0.039 A 
ATOM     17  C   UNL d   1       3.966  -5.251  12.240  0.00  0.00     0.068 A 
ATOM     18  C   UNL d   1       2.975  -4.336  11.877  0.00  0.00     0.039 A 
ATOM     19  C   UNL d   1       2.099  -4.610  10.822  0.00  0.00     0.032 A 
BRANCH  17  20
ATOM     20  O   UNL d   1       4.738  -4.884  13.306  0.00  0.00    -0.356 OA
ATOM     21  C   UNL d   1       5.586  -5.891  13.850  0.00  0.00     0.210 C 
ENDBRANCH  17  20
ENDBRANCH  11  14
ENDBRANCH   8  10
ENDBRANCH   7   8
ENDBRANCH   1   7
BRANCH   2  22
ATOM     22  O   UNL d   1      -0.190  -1.006   5.446  0.00  0.00    -0.311 OA
BRANCH  22  23
ATOM     23  C   UNL d   1       0.013  -0.037   6.407  0.00  0.00     0.076 A 
ATOM     24  C   UNL d   1       0.690  -0.275   7.607  0.00  0.00     0.038 A 
ATOM     25  C   UNL d   1       0.785   0.733   8.567  0.00  0.00     0.019 A 
ATOM     26  C   UNL d   1       0.241   2.003   8.320  0.00  0.00     0.048 A 
ATOM     27  C   UNL d   1      -0.373   2.250   7.081  0.00  0.00     0.019 A 
ATOM     28  C   UNL d   1      -0.481   1.236   6.127  0.00  0.00     0.038 A 
BRANCH  26  29
ATOM     29  C   UNL d   1       0.292   3.062   9.394  0.00  0.00     0.417 C 
ATOM     30  F   UNL d   1      -0.085   4.296   8.961  0.00  0.00    -0.166 F 
ATOM     31  F   UNL d   1       1.538   3.215   9.923  0.00  0.00    -0.166 F 
ATOM     32  F   UNL d   1      -0.525   2.768  10.443  0.00  0.00    -0.166 F 
ENDBRANCH  26  29
ENDBRANCH  22  23
ENDBRANCH   2  22
TORSDOF 8
