REMARK  5 active torsions:
REMARK  status: ('A' for Active; 'I' for Inactive)
REMARK    1  A    between atoms: C_8  and  N_1 
REMARK    2  A    between atoms: S_9  and  C_2 
REMARK    3  A    between atoms: O_16  and  C_3 
REMARK    4  A    between atoms: C_14  and  S_9 
REMARK    5  A    between atoms: C_12  and  C_14 
ROOT
ATOM      1  N   UNL d   1      -0.202  -1.318  -0.035  0.00  0.00    -0.255 N 
ATOM      2  C   UNL d   1       1.049  -0.713   0.004  0.00  0.00     0.169 A 
ATOM      3  C   UNL d   1      -1.070  -0.236  -0.174  0.00  0.00     0.245 A 
ATOM      4  N   UNL d   1       0.927   0.593  -0.092  0.00  0.00    -0.276 N 
ATOM      5  HN  UNL d   1       1.692   1.268  -0.073  1.00  0.00     0.189 HD
ATOM      6  N   UNL d   1      -0.401   0.890  -0.223  0.00  0.00    -0.263 N 
ATOM      7  HN  UNL d   1      -0.800   1.822  -0.337  1.00  0.00     0.190 HD
ENDROOT
BRANCH   2   8
ATOM      8  S   UNL d   1       2.591  -1.524  -0.032  0.00  0.00    -0.087 SA
BRANCH   8   9
ATOM      9  C   UNL d   1       3.712  -0.091   0.086  0.00  0.00     0.122 C 
BRANCH   9  10
ATOM     10  C   UNL d   1       5.174  -0.485   0.088  0.00  0.00    -0.027 A 
ATOM     11  C   UNL d   1       5.866  -0.842   1.260  0.00  0.00     0.042 A 
ATOM     12  C   UNL d   1       7.233  -1.137   1.225  0.00  0.00     0.048 A 
ATOM     13 CL   UNL d   1       5.077  -0.920   2.796  0.00  0.00    -0.084 Cl
ATOM     14  C   UNL d   1       7.920  -1.089   0.016  0.00  0.00     0.035 A 
ATOM     15  C   UNL d   1       7.253  -0.762  -1.161  0.00  0.00     0.024 A 
ATOM     16 CL   UNL d   1       9.607  -1.427  -0.023  0.00  0.00    -0.084 Cl
ATOM     17  C   UNL d   1       5.888  -0.466  -1.125  0.00  0.00     0.011 A 
ENDBRANCH   9  10
ENDBRANCH   8   9
ENDBRANCH   2   8
BRANCH   1  18
ATOM     18  C   UNL d   1      -0.582  -2.689   0.077  0.00  0.00     0.046 A 
ATOM     19  C   UNL d   1      -1.728  -3.158  -0.588  0.00  0.00     0.054 A 
ATOM     20  C   UNL d   1      -2.164  -4.470  -0.392  0.00  0.00     0.036 A 
ATOM     21 CL   UNL d   1      -3.599  -5.016  -1.169  0.00  0.00    -0.084 Cl
ATOM     22  C   UNL d   1      -1.460  -5.333   0.441  0.00  0.00     0.024 A 
ATOM     23  C   UNL d   1      -0.304  -4.884   1.076  0.00  0.00     0.004 A 
ATOM     24  C   UNL d   1       0.135  -3.567   0.899  0.00  0.00     0.030 A 
ENDBRANCH   1  18
BRANCH   3  25
ATOM     25  O   UNL d   1      -2.397  -0.260  -0.157  0.00  0.00    -0.331 OA
ATOM     26  H   UNL d   1      -2.693  -1.048   0.326  0.00  0.00     0.221 HD
ENDBRANCH   3  25
TORSDOF 5
