REMARK  3 active torsions:
REMARK  status: ('A' for Active; 'I' for Inactive)
REMARK    1  A    between atoms: N_2  and  C_1 
REMARK    2  A    between atoms: C_11  and  C_3 
REMARK    3  A    between atoms: C_6  and  C_10 
ROOT
ATOM      1  C   UNL d   1       2.317  -0.832   0.066  0.00  0.00     0.115 C 
ATOM      2  C   UNL d   1       2.314   0.601  -0.371  0.00  0.00     0.218 C 
ATOM      3  C   UNL d   1       1.206  -1.524   0.370  0.00  0.00     0.049 C 
ATOM      4  O   UNL d   1       1.161   1.328   0.139  0.00  0.00    -0.334 OA
ATOM      5  C   UNL d   1      -0.013   0.617   0.156  0.00  0.00     0.080 A 
ATOM      6  C   UNL d   1      -0.046  -0.783   0.232  0.00  0.00    -0.001 A 
ATOM      7  C   UNL d   1      -1.191   1.355   0.086  0.00  0.00     0.037 A 
ATOM      8  C   UNL d   1      -1.276  -1.442   0.163  0.00  0.00     0.014 A 
ATOM      9  C   UNL d   1      -2.455  -0.703   0.037  0.00  0.00     0.001 A 
ATOM     10  C   UNL d   1      -2.414   0.692   0.016  0.00  0.00     0.003 A 
ENDROOT
BRANCH   2  11
ATOM     11  C   UNL d   1       2.362   0.803  -1.888  0.00  0.00    -0.023 A 
ATOM     12  C   UNL d   1       1.751  -0.093  -2.783  0.00  0.00     0.011 A 
ATOM     13  C   UNL d   1       1.804   0.115  -4.161  0.00  0.00     0.017 A 
ATOM     14  C   UNL d   1       2.459   1.234  -4.686  0.00  0.00     0.047 A 
ATOM     15  C   UNL d   1       3.043   2.150  -3.800  0.00  0.00     0.017 A 
ATOM     16  C   UNL d   1       2.991   1.940  -2.418  0.00  0.00     0.011 A 
BRANCH  14  17
ATOM     17  C   UNL d   1       2.521   1.428  -6.180  0.00  0.00     0.417 C 
ATOM     18  F   UNL d   1       3.184   2.555  -6.560  0.00  0.00    -0.166 F 
ATOM     19  F   UNL d   1       3.149   0.396  -6.811  0.00  0.00    -0.166 F 
ATOM     20  F   UNL d   1       1.285   1.512  -6.747  0.00  0.00    -0.166 F 
ENDBRANCH  14  17
ENDBRANCH   2  11
BRANCH   1  21
ATOM     21  N   UNL d   1       3.604  -1.490   0.124  0.00  0.00    -0.117 N 
ATOM     22  O   UNL d   1       4.604  -0.815  -0.147  0.00  0.00    -0.532 OA
ATOM     23  O   UNL d   1       3.634  -2.688   0.443  0.00  0.00    -0.532 OA
ENDBRANCH   1  21
TORSDOF 3
