REMARK  5 active torsions:
REMARK  status: ('A' for Active; 'I' for Inactive)
REMARK    1  A    between atoms: C_2  and  C_1 
REMARK    2  A    between atoms: N_13  and  C_7 
REMARK    3  A    between atoms: N_14  and  C_8 
REMARK    4  A    between atoms: C_9  and  C_15 
REMARK    5  A    between atoms: C_10  and  C_16 
ROOT
ATOM      1  C   UNL d   1       1.318  -0.600   1.736  0.00  0.00     0.036 A 
ATOM      2  N   UNL d   1       1.442  -2.475   1.829  0.00  0.00    -0.367 N 
ATOM      3  HN  UNL d   1       0.662  -3.045   2.156  1.00  0.00     0.165 HD
ATOM      4  C   UNL d   1       2.658   0.454   1.107  0.00  0.00     0.039 A 
ATOM      5  C   UNL d   1       4.163  -0.403   0.623  0.00  0.00    -0.032 A 
ATOM      6  C   UNL d   1       2.968  -3.202   1.325  0.00  0.00     0.089 A 
ATOM      7  C   UNL d   1       4.308  -2.199   0.721  0.00  0.00     0.028 A 
ENDROOT
BRANCH   1   8
ATOM      8  C   UNL d   1       0.232  -0.420   2.450  0.00  0.00     0.155 C 
ATOM      9  N   UNL d   1      -0.356  -0.710   0.955  0.00  0.00    -0.386 N 
ATOM     10  C   UNL d   1       0.676  -1.258  -0.109  0.00  0.00     0.084 C 
ATOM     11  HN  UNL d   1      -1.335  -0.546   0.720  1.00  0.00     0.160 HD
ATOM     12  C   UNL d   1       2.289  -1.491   0.373  0.00  0.00     0.028 C 
ATOM     13  C   UNL d   1       2.942  -1.286   2.267  0.00  0.00    -0.035 C 
ATOM     14  C   UNL d   1       1.643  -0.730   3.278  0.00  0.00     0.015 C 
BRANCH  13  15
ATOM     15  C   UNL d   1       4.181  -1.356   3.168  0.00  0.00     0.028 C 
ATOM     16  C   UNL d   1       4.732  -0.327   3.839  0.00  0.00     0.085 C 
BRANCH  16  17
ATOM     17  N   UNL d   1       4.334   1.004   3.928  0.00  0.00    -0.398 N 
ATOM     18  C   UNL d   1       3.532   1.421   5.085  0.00  0.00     0.148 C 
ATOM     19  C   UNL d   1       5.269   2.054   3.503  0.00  0.00     0.148 C 
ENDBRANCH  16  17
ENDBRANCH  13  15
ENDBRANCH   1   8
BRANCH   5  20
ATOM     20  C   UNL d   1       5.239   0.430   0.067  0.00  0.00     0.028 C 
ATOM     21  C   UNL d   1       6.580   0.430   0.138  0.00  0.00     0.085 C 
BRANCH  21  22
ATOM     22  N   UNL d   1       7.608  -0.296   0.726  0.00  0.00    -0.398 N 
ATOM     23  C   UNL d   1       8.982   0.229   0.712  0.00  0.00     0.148 C 
ATOM     24  C   UNL d   1       7.466  -1.392   1.672  0.00  0.00     0.148 C 
ENDBRANCH  21  22
ENDBRANCH   5  20
TORSDOF 5
