REMARK  2 active torsions:
REMARK  status: ('A' for Active; 'I' for Inactive)
REMARK    1  A    between atoms: C_8  and  C_4 
REMARK    2  A    between atoms: C_10  and  C_7 
ROOT
ATOM      1  N   UNL d   1      -1.270   0.088  -0.311  0.00  0.00    -0.346 N 
ATOM      2  HN  UNL d   1      -2.286   0.110  -0.228  1.00  0.00     0.167 HD
ATOM      3  S   UNL d   1       1.173  -0.779  -0.761  0.00  0.00    -0.027 SA
ATOM      4  C   UNL d   1      -0.578  -0.919  -0.756  0.00  0.00     0.088 A 
ATOM      5  C   UNL d   1      -0.425   1.119   0.032  0.00  0.00     0.092 A 
ATOM      6  C   UNL d   1       1.026   0.835  -0.120  0.00  0.00     0.241 A 
ATOM      7  C   UNL d   1      -0.795   2.335   0.461  0.00  0.00     0.045 C 
ATOM      8  O   UNL d   1       1.963   1.569   0.138  0.00  0.00    -0.278 OA
ENDROOT
BRANCH   7   9
ATOM      9  C   UNL d   1      -2.181   2.756   0.656  0.00  0.00    -0.034 A 
ATOM     10  C   UNL d   1      -2.798   2.568   1.898  0.00  0.00     0.013 A 
ATOM     11  C   UNL d   1      -4.112   2.996   2.102  0.00  0.00     0.024 A 
ATOM     12  C   UNL d   1      -4.808   3.611   1.064  0.00  0.00     0.034 A 
ATOM     13  C   UNL d   1      -4.204   3.802  -0.177  0.00  0.00     0.024 A 
ATOM     14 CL   UNL d   1      -6.426   4.141   1.319  0.00  0.00    -0.084 Cl
ATOM     15  C   UNL d   1      -2.889   3.374  -0.382  0.00  0.00     0.013 A 
ENDBRANCH   7   9
BRANCH   4  16
ATOM     16  C   UNL d   1      -1.201  -2.172  -1.242  0.00  0.00    -0.002 A 
ATOM     17  C   UNL d   1      -2.437  -2.563  -0.709  0.00  0.00     0.014 A 
ATOM     18  C   UNL d   1      -3.061  -3.728  -1.165  0.00  0.00     0.001 A 
ATOM     19  C   UNL d   1      -2.463  -4.498  -2.162  0.00  0.00     0.000 A 
ATOM     20  C   UNL d   1      -1.238  -4.111  -2.701  0.00  0.00     0.001 A 
ATOM     21  C   UNL d   1      -0.606  -2.953  -2.243  0.00  0.00     0.014 A 
ENDBRANCH   4  16
TORSDOF 2
