REMARK  3 active torsions:
REMARK  status: ('A' for Active; 'I' for Inactive)
REMARK       I    between atoms: C_10  and  N_2 
REMARK    1  A    between atoms: N_9  and  C_3 
REMARK    2  A    between atoms: C_6  and  C_5 
REMARK    3  A    between atoms: C_15  and  N_7 
REMARK       I    between atoms: C_13  and  N_9 
ROOT
ATOM      1  C   UNL d   1      -0.118  -1.258   0.002  0.00  0.00     0.161 C 
ATOM      2  N   UNL d   1      -1.212  -0.376  -0.004  0.00  0.00    -0.259 N 
ATOM      3  C   UNL d   1       0.515   1.168   0.134  0.00  0.00     0.108 C 
ATOM      4  S   UNL d   1       1.335  -0.334   0.347  0.00  0.00    -0.033 SA
ATOM      5  C   UNL d   1      -0.817   0.974   0.006  0.00  0.00     0.088 C 
ATOM      6  N   UNL d   1      -0.205  -2.523  -0.251  0.00  0.00    -0.336 N 
ATOM      7  HN  UNL d   1      -1.123  -2.918  -0.456  1.00  0.00     0.168 HD
ATOM      8  C   UNL d   1      -2.531  -0.775  -0.235  0.00  0.00     0.226 C 
ATOM      9  O   UNL d   1      -3.348  -0.128  -0.900  0.00  0.00    -0.273 OA
ATOM     10  C   UNL d   1      -2.990  -2.077   0.377  0.00  0.00     0.118 C 
ENDROOT
BRANCH   6  11
ATOM     11  C   UNL d   1       0.911  -3.379  -0.257  0.00  0.00     0.034 A 
ATOM     12  C   UNL d   1       0.842  -4.567   0.481  0.00  0.00     0.036 A 
ATOM     13  C   UNL d   1       1.899  -5.498   0.487  0.00  0.00    -0.054 A 
ATOM     14  C   UNL d   1       1.749  -6.784   1.251  0.00  0.00     0.049 C 
ATOM     15  C   UNL d   1       3.070  -5.214  -0.241  0.00  0.00    -0.056 A 
ATOM     16  C   UNL d   1       3.129  -4.040  -1.002  0.00  0.00     0.009 A 
ATOM     17  C   UNL d   1       4.245  -6.153  -0.248  0.00  0.00     0.049 C 
ATOM     18  C   UNL d   1       2.049  -3.154  -1.034  0.00  0.00     0.030 A 
ENDBRANCH   6  11
BRANCH   5  19
ATOM     19  C   UNL d   1      -1.793   2.075  -0.047  0.00  0.00    -0.003 A 
ATOM     20  C   UNL d   1      -2.322   2.580   1.152  0.00  0.00     0.053 A 
ATOM     21  C   UNL d   1      -3.314   3.535   1.069  0.00  0.00     0.105 A 
ATOM     22  O   UNL d   1      -3.961   4.097   2.126  0.00  0.00    -0.323 OA
ATOM     23  C   UNL d   1      -3.775   4.003  -0.138  0.00  0.00     0.105 A 
ATOM     24  C   UNL d   1      -4.925   4.926   1.442  0.00  0.00     0.352 A 
ATOM     25  O   UNL d   1      -4.779   4.909   0.007  0.00  0.00    -0.323 OA
ATOM     26  C   UNL d   1      -3.255   3.557  -1.334  0.00  0.00     0.040 A 
ATOM     27  C   UNL d   1      -2.245   2.588  -1.285  0.00  0.00     0.017 A 
ENDBRANCH   5  19
BRANCH   3  28
ATOM     28  N   UNL d   1       1.164   2.384   0.111  0.00  0.00    -0.320 N 
ATOM     29  C   UNL d   1       2.534   2.609   0.129  0.00  0.00     0.218 C 
ATOM     30  O   UNL d   1       3.418   1.762   0.209  0.00  0.00    -0.274 OA
ATOM     31  C   UNL d   1       2.898   4.069   0.058  0.00  0.00     0.117 C 
ATOM     32  H   UNL d   1       0.575   3.200  -0.000  0.00  0.00     0.169 HD
ENDBRANCH   3  28
TORSDOF 3
