REMARK  6 active torsions:
REMARK  status: ('A' for Active; 'I' for Inactive)
REMARK    1  A    between atoms: O_9  and  C_1 
REMARK       I    between atoms: C_2  and  N_3 
REMARK    2  A    between atoms: C_7  and  C_2 
REMARK    3  A    between atoms: N_3  and  N_6 
REMARK    4  A    between atoms: C_4  and  C_5 
REMARK       I    between atoms: N_6  and  C_4 
REMARK    5  A    between atoms: C_8  and  C_17 
REMARK    6  A    between atoms: C_18  and  O_9 
ROOT
ATOM      1  C   UNL d   1       3.267  -8.406   0.618  0.00  0.00     0.259 C 
ATOM      2  N   UNL d   1       2.235  -9.268   0.904  0.00  0.00    -0.264 N 
ATOM      3  O   UNL d   1       4.364  -8.773   0.209  0.00  0.00    -0.267 OA
ATOM      4  H   UNL d   1       1.341  -8.986   1.303  0.00  0.00     0.190 HD
ENDROOT
BRANCH   1   5
ATOM      5  C   UNL d   1       2.908  -6.980   0.838  0.00  0.00     0.076 C 
ATOM      6  C   UNL d   1       3.817  -6.020   0.616  0.00  0.00     0.017 C 
BRANCH   6   7
ATOM      7  C   UNL d   1       3.548  -4.577   0.732  0.00  0.00    -0.036 A 
ATOM      8  C   UNL d   1       2.700  -4.035   1.710  0.00  0.00     0.014 A 
ATOM      9  C   UNL d   1       2.477  -2.650   1.780  0.00  0.00     0.038 A 
ATOM     10  C   UNL d   1       3.083  -1.796   0.863  0.00  0.00     0.078 A 
ATOM     11  C   UNL d   1       3.972  -2.325  -0.072  0.00  0.00     0.038 A 
ATOM     12  C   UNL d   1       4.202  -3.703  -0.140  0.00  0.00     0.014 A 
BRANCH  10  13
ATOM     13  O   UNL d   1       2.933  -0.444   0.797  0.00  0.00    -0.255 OA
BRANCH  13  14
ATOM     14  C   UNL d   1       1.707   0.135   1.221  0.00  0.00     0.530 C 
ATOM     15  F   UNL d   1       0.678  -0.740   1.259  0.00  0.00    -0.144 F 
ATOM     16  F   UNL d   1       1.378   1.116   0.351  0.00  0.00    -0.144 F 
ATOM     17  F   UNL d   1       1.862   0.687   2.442  0.00  0.00    -0.144 F 
ENDBRANCH  13  14
ENDBRANCH  10  13
ENDBRANCH   6   7
ENDBRANCH   1   5
BRANCH   2  18
ATOM     18  N   UNL d   1       2.417 -10.641   0.714  0.00  0.00    -0.263 N 
ATOM     19  C   UNL d   1       1.556 -11.497   1.370  0.00  0.00     0.270 C 
ATOM     20  O   UNL d   1       0.650 -11.102   2.100  0.00  0.00    -0.266 OA
ATOM     21  H   UNL d   1       3.302 -10.933   0.300  0.00  0.00     0.190 HD
BRANCH  19  22
ATOM     22  C   UNL d   1       1.766 -12.950   1.149  0.00  0.00     0.033 A 
ATOM     23  C   UNL d   1       1.465 -13.839   2.190  0.00  0.00     0.019 A 
ATOM     24  C   UNL d   1       1.581 -15.217   1.990  0.00  0.00     0.025 A 
ATOM     25  C   UNL d   1       1.979 -15.705   0.746  0.00  0.00     0.034 A 
ATOM     26  C   UNL d   1       2.275 -14.827  -0.297  0.00  0.00     0.025 A 
ATOM     27 CL   UNL d   1       2.084 -17.402   0.487  0.00  0.00    -0.084 Cl
ATOM     28  C   UNL d   1       2.171 -13.446  -0.097  0.00  0.00     0.019 A 
ENDBRANCH  19  22
ENDBRANCH   2  18
TORSDOF 6
