REMARK  1 active torsions:
REMARK  status: ('A' for Active; 'I' for Inactive)
REMARK    1  A    between atoms: C_5  and  C_8 
ROOT
ATOM      1  N   UNL d   1      -0.932   0.509  -0.004  0.00  0.00    -0.319 N 
ATOM      2  N   UNL d   1       0.240  -2.034  -0.004  0.00  0.00    -0.362 N 
ATOM      3  HN  UNL d   1       0.680  -2.954  -0.006  1.00  0.00     0.165 HD
ATOM      4  C   UNL d   1       0.474   0.439  -0.004  0.00  0.00     0.066 A 
ATOM      5  C   UNL d   1       1.023  -0.857  -0.003  0.00  0.00     0.060 A 
ATOM      6  C   UNL d   1      -1.693  -0.636  -0.002  0.00  0.00     0.054 A 
ATOM      7  C   UNL d   1       3.251   0.137   0.005  0.00  0.00     0.050 A 
ATOM      8  C   UNL d   1      -1.052  -1.916  -0.004  0.00  0.00     0.118 A 
ATOM      9  C   UNL d   1       2.411  -0.990   0.002  0.00  0.00     0.048 A 
ATOM     10  C   UNL d   1       1.285   1.576  -0.003  0.00  0.00     0.033 A 
ATOM     11  C   UNL d   1      -1.767   1.599  -0.002  0.00  0.00     0.098 A 
ATOM     12  C   UNL d   1      -3.070   1.141   0.001  0.00  0.00     0.020 A 
ATOM     13  C   UNL d   1      -3.024  -0.275   0.001  0.00  0.00     0.033 A 
ATOM     14  C   UNL d   1       2.674   1.419   0.002  0.00  0.00     0.018 A 
ENDROOT
BRANCH   7  15
ATOM     15  C   UNL d   1       4.750  -0.035   0.013  0.00  0.00     0.417 C 
ATOM     16  F   UNL d   1       5.149  -1.338   0.017  0.00  0.00    -0.166 F 
ATOM     17  F   UNL d   1       5.345   0.531  -1.074  0.00  0.00    -0.166 F 
ATOM     18  F   UNL d   1       5.337   0.536   1.101  0.00  0.00    -0.166 F 
ENDBRANCH   7  15
TORSDOF 1
