REMARK  9 active torsions:
REMARK  status: ('A' for Active; 'I' for Inactive)
REMARK    1  A    between atoms: S_8  and  C_1 
REMARK    2  A    between atoms: N_3  and  C_2 
REMARK       I    between atoms: C_6  and  N_10 
REMARK    3  A    between atoms: C_11  and  C_6 
REMARK       I    between atoms: C_7  and  N_9 
REMARK    4  A    between atoms: C_12  and  C_7 
REMARK    5  A    between atoms: C_15  and  S_8 
REMARK    6  A    between atoms: N_9  and  C_17 
REMARK    7  A    between atoms: N_10  and  C_16 
REMARK    8  A    between atoms: S_14  and  C_13 
REMARK    9  A    between atoms: C_21  and  S_14 
ROOT
ATOM      1  C   UNL d   1       0.448   1.258   0.549  0.00  0.00     0.109 A 
ATOM      2  C   UNL d   1       1.840   1.338   0.620  0.00  0.00     0.136 A 
ATOM      3  N   UNL d   1      -0.168   0.174  -0.013  0.00  0.00    -0.343 N 
ATOM      4  HN  UNL d   1      -1.182   0.154  -0.123  1.00  0.00     0.167 HD
ATOM      5  C   UNL d   1       0.589  -0.873  -0.422  0.00  0.00     0.075 A 
ATOM      6  C   UNL d   1       2.604   0.229   0.229  0.00  0.00     0.042 A 
ATOM      7  C   UNL d   1       1.966  -0.902  -0.262  0.00  0.00     0.040 A 
ENDROOT
BRANCH   1   8
ATOM      8  S   UNL d   1      -0.696   2.466   1.245  0.00  0.00    -0.068 SA
BRANCH   8   9
ATOM      9  C   UNL d   1      -1.625   1.401   2.352  0.00  0.00     0.034 A 
ATOM     10  C   UNL d   1      -1.010   0.720   3.419  0.00  0.00     0.052 A 
ATOM     11  C   UNL d   1      -1.710  -0.300   4.075  0.00  0.00     0.031 A 
ATOM     12  C   UNL d   1      -3.037  -0.575   3.738  0.00  0.00     0.002 A 
ATOM     13  C   UNL d   1      -3.672   0.161   2.741  0.00  0.00     0.002 A 
ATOM     14  C   UNL d   1      -2.964   1.135   2.038  0.00  0.00     0.021 A 
BRANCH  10  15
ATOM     15  N   UNL d   1       0.248   1.146   3.902  0.00  0.00    -0.321 N 
ATOM     16  C   UNL d   1       1.184   0.324   4.499  0.00  0.00     0.263 C 
ATOM     17  O   UNL d   1       1.232  -0.886   4.275  0.00  0.00    -0.267 OA
ATOM     18  H   UNL d   1       0.455   2.136   3.829  0.00  0.00     0.169 HD
BRANCH  16  19
ATOM     19  C   UNL d   1       2.151   0.979   5.366  0.00  0.00     0.072 A 
ATOM     20  S   UNL d   1       1.805   2.458   6.159  0.00  0.00    -0.097 SA
ATOM     21  C   UNL d   1       3.235   2.368   7.094  0.00  0.00     0.050 A 
ATOM     22  C   UNL d   1       4.004   1.278   6.757  0.00  0.00     0.009 A 
ATOM     23  C   UNL d   1       3.384   0.483   5.751  0.00  0.00     0.025 A 
ENDBRANCH  16  19
ENDBRANCH  10  15
ENDBRANCH   8   9
ENDBRANCH   1   8
BRANCH   2  24
ATOM     24  N   UNL d   1       2.558   2.526   1.069  0.00  0.00    -0.113 N 
ATOM     25  O   UNL d   1       1.989   3.622   1.039  0.00  0.00    -0.532 OA
ATOM     26  O   UNL d   1       3.738   2.375   1.420  0.00  0.00    -0.532 OA
ENDBRANCH   2  24
BRANCH   5  27
ATOM     27  S   UNL d   1      -0.189  -2.260  -1.228  0.00  0.00    -0.070 SA
BRANCH  27  28
ATOM     28  C   UNL d   1      -0.950  -1.515  -2.677  0.00  0.00     0.033 C 
ATOM     29  C   UNL d   1      -0.426  -0.470  -3.465  0.00  0.00     0.052 C 
ATOM     30  C   UNL d   1      -1.283   0.232  -4.328  0.00  0.00     0.031 C 
ATOM     31  C   UNL d   1      -2.595  -0.193  -4.536  0.00  0.00     0.002 C 
ATOM     32  C   UNL d   1      -3.068  -1.320  -3.877  0.00  0.00     0.002 C 
ATOM     33  C   UNL d   1      -2.258  -1.964  -2.942  0.00  0.00     0.021 C 
BRANCH  29  34
ATOM     34  N   UNL d   1       0.921  -0.039  -3.477  0.00  0.00    -0.321 N 
ATOM     35  C   UNL d   1       2.034  -0.869  -3.453  0.00  0.00     0.263 C 
ATOM     36  O   UNL d   1       1.980  -2.095  -3.471  0.00  0.00    -0.267 OA
ATOM     37  H   UNL d   1       1.101   0.891  -3.835  0.00  0.00     0.169 HD
BRANCH  35  38
ATOM     38  C   UNL d   1       3.311  -0.164  -3.414  0.00  0.00     0.072 A 
ATOM     39  S   UNL d   1       3.432   1.547  -3.492  0.00  0.00    -0.097 SA
ATOM     40  C   UNL d   1       5.126   1.514  -3.286  0.00  0.00     0.050 A 
ATOM     41  C   UNL d   1       5.608   0.230  -3.178  0.00  0.00     0.009 A 
ATOM     42  C   UNL d   1       4.570  -0.738  -3.271  0.00  0.00     0.025 A 
ENDBRANCH  35  38
ENDBRANCH  29  34
ENDBRANCH  27  28
ENDBRANCH   5  27
TORSDOF 9
