REMARK  4 active torsions:
REMARK  status: ('A' for Active; 'I' for Inactive)
REMARK    1  A    between atoms: C_2  and  S_1 
REMARK    2  A    between atoms: C_7  and  S_1 
REMARK    3  A    between atoms: N_3  and  C_4 
REMARK    4  A    between atoms: C_15  and  C_7 
ROOT
ATOM      1  C   UNL d   1       0.490  -0.225   1.532  0.00  0.00     0.154 C 
ATOM      2  C   UNL d   1      -0.141   0.885   1.961  0.00  0.00     0.120 C 
ATOM      3  C   UNL d   1       0.877  -0.432   0.189  0.00  0.00     0.113 C 
ATOM      4  N   UNL d   1       1.168  -0.536  -0.931  0.00  0.00    -0.191 NA
ENDROOT
BRANCH   1   5
ATOM      5  S   UNL d   1       0.969  -1.449   2.688  0.00  0.00     0.190 S 
ATOM      6  O   UNL d   1       1.563  -0.785   3.834  0.00  0.00    -0.222 OA
ATOM      7  O   UNL d   1       1.691  -2.503   2.000  0.00  0.00    -0.222 OA
BRANCH   5   8
ATOM      8  C   UNL d   1      -0.615  -2.111   3.193  0.00  0.00     0.185 C 
BRANCH   8   9
ATOM      9  C   UNL d   1      -0.449  -3.243   4.182  0.00  0.00    -0.044 A 
ATOM     10  C   UNL d   1      -0.323  -2.979   5.556  0.00  0.00     0.010 A 
ATOM     11  C   UNL d   1      -0.290  -4.026   6.482  0.00  0.00     0.024 A 
ATOM     12  C   UNL d   1      -0.374  -5.345   6.045  0.00  0.00     0.034 A 
ATOM     13  C   UNL d   1      -0.456  -5.627   4.683  0.00  0.00     0.024 A 
ATOM     14 CL   UNL d   1      -0.398  -6.629   7.190  0.00  0.00    -0.084 Cl
ATOM     15  C   UNL d   1      -0.488  -4.580   3.755  0.00  0.00     0.010 A 
ENDBRANCH   8   9
ENDBRANCH   5   8
ENDBRANCH   1   5
BRANCH   2  16
ATOM     16  N   UNL d   1      -0.689   1.966   1.270  0.00  0.00    -0.383 N 
ATOM     17  C   UNL d   1      -1.228   1.927  -0.110  0.00  0.00     0.153 C 
ATOM     18  C   UNL d   1      -0.357   2.787  -1.047  0.00  0.00     0.136 C 
ATOM     19  C   UNL d   1      -0.937   2.816  -2.454  0.00  0.00     0.041 C 
ATOM     20  O   UNL d   1      -0.296   4.145  -0.564  0.00  0.00    -0.378 OA
ATOM     21  C   UNL d   1       0.269   4.191   0.764  0.00  0.00     0.136 C 
ATOM     22  C   UNL d   1      -0.585   3.364   1.760  0.00  0.00     0.153 C 
ATOM     23  C   UNL d   1       0.350   5.656   1.169  0.00  0.00     0.041 C 
ENDBRANCH   2  16
TORSDOF 4
