REMARK  6 active torsions:
REMARK  status: ('A' for Active; 'I' for Inactive)
REMARK    1  A    between atoms: C_9  and  C_3 
REMARK    2  A    between atoms: O_14  and  C_4 
REMARK    3  A    between atoms: S_13  and  C_5 
REMARK    4  A    between atoms: C_8  and  C_9 
REMARK    5  A    between atoms: C_17  and  C_10 
REMARK    6  A    between atoms: C_22  and  C_17 
ROOT
ATOM      1  N   UNL d   1      -0.173  -1.300  -0.086  0.00  0.00    -0.317 N 
ATOM      2  HN  UNL d   1      -0.656  -2.197  -0.135  1.00  0.00     0.170 HD
ATOM      3  C   UNL d   1      -0.246   1.111  -0.022  0.00  0.00     0.020 A 
ATOM      4  C   UNL d   1      -0.832  -0.140  -0.089  0.00  0.00     0.150 A 
ATOM      5  C   UNL d   1       1.158  -1.213  -0.015  0.00  0.00     0.146 A 
ATOM      6  N   UNL d   1       1.848  -0.057   0.032  0.00  0.00    -0.340 N 
ATOM      7  HN  UNL d   1       2.866  -0.054   0.086  1.00  0.00     0.168 HD
ATOM      8  C   UNL d   1       1.144   1.101   0.003  0.00  0.00     0.022 A 
ENDROOT
BRANCH   3   9
ATOM      9  C   UNL d   1      -1.089   2.354   0.049  0.00  0.00     0.087 C 
BRANCH   9  10
ATOM     10  C   UNL d   1      -1.450   3.148  -1.201  0.00  0.00    -0.010 A 
ATOM     11  C   UNL d   1      -1.110   2.835  -2.532  0.00  0.00     0.042 A 
ATOM     12 CL   UNL d   1      -0.302   1.396  -3.037  0.00  0.00    -0.084 Cl
ATOM     13  C   UNL d   1      -1.450   3.696  -3.592  0.00  0.00     0.024 A 
ATOM     14  C   UNL d   1      -2.159   4.867  -3.363  0.00  0.00     0.003 A 
ATOM     15  C   UNL d   1      -2.547   5.181  -2.071  0.00  0.00     0.024 A 
ATOM     16  C   UNL d   1      -2.202   4.338  -1.009  0.00  0.00     0.042 A 
ATOM     17 CL   UNL d   1      -2.764   4.829   0.559  0.00  0.00    -0.084 Cl
ENDBRANCH   9  10
ENDBRANCH   3   9
BRANCH   4  18
ATOM     18  O   UNL d   1      -2.186  -0.268  -0.203  0.00  0.00    -0.346 OA
ATOM     19  H   UNL d   1      -2.415   0.166  -1.039  0.00  0.00     0.219 HD
ENDBRANCH   4  18
BRANCH   8  20
ATOM     20  C   UNL d   1       1.944   2.387   0.057  0.00  0.00     0.057 C 
BRANCH  20  21
ATOM     21  C   UNL d   1       3.377   2.320  -0.490  0.00  0.00     0.002 C 
ATOM     22  C   UNL d   1       3.444   2.069  -1.990  0.00  0.00     0.005 C 
ENDBRANCH  20  21
ENDBRANCH   8  20
BRANCH   5  23
ATOM     23  S   UNL d   1       2.027  -2.763  -0.002  0.00  0.00    -0.098 SA
ATOM     24  C   UNL d   1       3.723  -2.197   0.251  0.00  0.00     0.099 C 
ENDBRANCH   5  23
TORSDOF 6
