REMARK  12 active torsions:
REMARK  status: ('A' for Active; 'I' for Inactive)
REMARK    1  A    between atoms: O_5  and  N_2 
REMARK    2  A    between atoms: C_7  and  C_4 
REMARK    3  A    between atoms: C_9  and  C_7 
REMARK    4  A    between atoms: C_17  and  C_9 
REMARK    5  A    between atoms: C_10  and  C_11 
REMARK    6  A    between atoms: C_11  and  C_16 
REMARK    7  A    between atoms: C_12  and  C_18 
REMARK    8  A    between atoms: C_13  and  C_12 
REMARK    9  A    between atoms: C_14  and  C_13 
REMARK   10  A    between atoms: C_15  and  C_14 
REMARK   11  A    between atoms: C_16  and  C_15 
REMARK   12  A    between atoms: C_18  and  C_17 
ROOT
ATOM      1  C   UNL d   1       1.591  -0.022   1.725  0.00  0.00     0.010 C 
ENDROOT
BRANCH   1   2
ATOM      2  C   UNL d   1       1.511  -0.068   0.194  0.00  0.00     0.033 C 
ATOM      3  C   UNL d   1       0.758   1.142  -0.354  0.00  0.00     0.014 C 
ATOM      4  N   UNL d   1       1.275   2.104  -1.066  0.00  0.00    -0.277 N 
ATOM      5  C   UNL d   1      -0.716   1.228  -0.012  0.00  0.00     0.055 C 
ATOM      6  HN  UNL d   1       0.746   2.903  -1.414  1.00  0.00     0.193 HD
ATOM      7  C   UNL d   1      -1.410  -0.054  -0.455  0.00  0.00     0.006 C 
ATOM      8  C   UNL d   1      -0.718  -1.311   0.074  0.00  0.00     0.001 C 
ATOM      9  C   UNL d   1       0.771  -1.327  -0.282  0.00  0.00     0.010 C 
BRANCH   4  10
ATOM     10  O   UNL d   1       2.641   1.910  -1.295  0.00  0.00    -0.290 OA
ATOM     11  H   UNL d   1       2.869   2.692  -1.834  0.00  0.00     0.244 HD
ENDBRANCH   4  10
ENDBRANCH   1   2
BRANCH   1  12
ATOM     12  C   UNL d   1       2.309   1.224   2.229  0.00  0.00     0.001 C 
BRANCH  12  13
ATOM     13  C   UNL d   1       2.345   1.225   3.750  0.00  0.00     0.000 C 
BRANCH  13  14
ATOM     14  C   UNL d   1       3.052   2.473   4.251  0.00  0.00     0.000 C 
BRANCH  14  15
ATOM     15  C   UNL d   1       3.092   2.481   5.770  0.00  0.00     0.000 C 
BRANCH  15  16
ATOM     16  C   UNL d   1       3.804   3.730   6.263  0.00  0.00     0.000 C 
BRANCH  16  17
ATOM     17  C   UNL d   1       3.850   3.745   7.782  0.00  0.00     0.000 C 
BRANCH  17  18
ATOM     18  C   UNL d   1       4.565   4.994   8.275  0.00  0.00     0.000 C 
BRANCH  18  19
ATOM     19  C   UNL d   1       4.613   5.014   9.797  0.00  0.00     0.000 C 
BRANCH  19  20
ATOM     20  C   UNL d   1       5.330   6.265  10.291  0.00  0.00    -0.000 C 
BRANCH  20  21
ATOM     21  C   UNL d   1       5.385   6.295  11.814  0.00  0.00    -0.005 C 
ATOM     22  C   UNL d   1       6.099   7.542  12.304  0.00  0.00     0.005 C 
ENDBRANCH  20  21
ENDBRANCH  19  20
ENDBRANCH  18  19
ENDBRANCH  17  18
ENDBRANCH  16  17
ENDBRANCH  15  16
ENDBRANCH  14  15
ENDBRANCH  13  14
ENDBRANCH  12  13
ENDBRANCH   1  12
TORSDOF 12
