REMARK  7 active torsions:
REMARK  status: ('A' for Active; 'I' for Inactive)
REMARK    1  A    between atoms: C_4  and  S_1 
REMARK    2  A    between atoms: C_9  and  S_1 
REMARK       I    between atoms: C_2  and  N_5 
REMARK    3  A    between atoms: C_6  and  C_2 
REMARK    4  A    between atoms: C_8  and  C_3 
REMARK       I    between atoms: N_5  and  C_7 
REMARK       I    between atoms: C_7  and  N_10 
REMARK    5  A    between atoms: O_23  and  C_8 
REMARK    6  A    between atoms: C_22  and  C_9 
REMARK    7  A    between atoms: N_10  and  C_18 
ROOT
ATOM      1  C   UNL d   1      -0.403   1.578  -2.164  0.00  0.00     0.063 A 
ATOM      2  C   UNL d   1      -0.018   0.422  -1.471  0.00  0.00     0.075 A 
ATOM      3  C   UNL d   1      -0.749   1.454  -3.549  0.00  0.00     0.048 A 
ATOM      4  C   UNL d   1       0.146  -0.770  -2.224  0.00  0.00     0.027 A 
ATOM      5  C   UNL d   1      -0.654   0.234  -4.253  0.00  0.00     0.037 A 
ATOM      6  C   UNL d   1      -0.128  -0.857  -3.594  0.00  0.00     0.031 A 
ENDROOT
BRANCH   5   7
ATOM      7  N   UNL d   1      -1.155   0.028  -5.574  0.00  0.00    -0.309 N 
ATOM      8  C   UNL d   1      -2.330   0.593  -5.955  0.00  0.00     0.327 C 
ATOM      9  N   UNL d   1      -3.080   0.011  -6.936  0.00  0.00    -0.275 N 
ATOM     10  O   UNL d   1      -2.874   1.556  -5.390  0.00  0.00    -0.247 OA
ATOM     11  C   UNL d   1      -3.035  -0.982  -7.926  0.00  0.00     0.263 C 
ATOM     12  H   UNL d   1      -3.969   0.492  -6.870  0.00  0.00     0.173 HD
ATOM     13  O   UNL d   1      -2.031  -1.591  -8.261  0.00  0.00    -0.267 OA
ATOM     14  H   UNL d   1      -0.917  -0.837  -6.054  0.00  0.00     0.170 HD
BRANCH  11  15
ATOM     15  C   UNL d   1      -4.422  -1.239  -8.486  0.00  0.00     0.075 C 
ATOM     16  C   UNL d   1      -5.286  -0.145  -8.709  0.00  0.00     0.051 C 
ATOM     17 CL   UNL d   1      -4.701   1.455  -9.014  0.00  0.00    -0.083 Cl
ATOM     18  C   UNL d   1      -6.674  -0.303  -8.639  0.00  0.00     0.025 C 
ATOM     19  C   UNL d   1      -7.218  -1.567  -8.451  0.00  0.00     0.003 C 
ATOM     20  C   UNL d   1      -6.377  -2.678  -8.420  0.00  0.00     0.025 C 
ATOM     21  C   UNL d   1      -4.979  -2.522  -8.437  0.00  0.00     0.051 C 
ATOM     22 CL   UNL d   1      -4.033  -3.962  -8.355  0.00  0.00    -0.083 Cl
ENDBRANCH  11  15
ENDBRANCH   5   7
BRANCH   1  23
ATOM     23  C   UNL d   1      -0.415   2.930  -1.544  0.00  0.00     0.294 C 
ATOM     24  O   UNL d   1      -0.296   3.122  -0.353  0.00  0.00    -0.259 OA
BRANCH  23  25
ATOM     25  O   UNL d   1      -0.530   3.914  -2.473  0.00  0.00    -0.322 OA
ATOM     26  C   UNL d   1      -0.473   5.245  -1.945  0.00  0.00     0.213 C 
ENDBRANCH  23  25
ENDBRANCH   1  23
BRANCH   2  27
ATOM     27  S   UNL d   1       0.571   0.267   0.220  0.00  0.00     0.180 S 
ATOM     28  O   UNL d   1       1.968   0.664   0.113  0.00  0.00    -0.222 OA
ATOM     29  O   UNL d   1       0.293  -1.126   0.562  0.00  0.00    -0.222 OA
BRANCH  27  30
ATOM     30  C   UNL d   1      -0.101   1.200   1.550  0.00  0.00     0.184 C 
BRANCH  30  31
ATOM     31  C   UNL d   1      -1.575   1.130   1.887  0.00  0.00    -0.044 A 
ATOM     32  C   UNL d   1      -2.322  -0.055   1.932  0.00  0.00     0.010 A 
ATOM     33  C   UNL d   1      -3.635  -0.061   2.430  0.00  0.00     0.024 A 
ATOM     34  C   UNL d   1      -4.209   1.111   2.917  0.00  0.00     0.034 A 
ATOM     35  C   UNL d   1      -3.474   2.289   2.929  0.00  0.00     0.024 A 
ATOM     36 CL   UNL d   1      -5.819   1.098   3.525  0.00  0.00    -0.084 Cl
ATOM     37  C   UNL d   1      -2.170   2.294   2.422  0.00  0.00     0.010 A 
ENDBRANCH  30  31
ENDBRANCH  27  30
ENDBRANCH   2  27
TORSDOF 7
