REMARK  5 active torsions:
REMARK  status: ('A' for Active; 'I' for Inactive)
REMARK       I    between atoms: N_2  and  C_1 
REMARK    1  A    between atoms: C_3  and  C_1 
REMARK       I    between atoms: C_4  and  N_2 
REMARK    2  A    between atoms: O_8  and  C_4 
REMARK    3  A    between atoms: C_10  and  C_5 
REMARK    4  A    between atoms: C_6  and  O_8 
REMARK    5  A    between atoms: C_12  and  C_9 
ROOT
ATOM      1  O   UNL d   1       1.962  -2.181  -1.134  0.00  0.00    -0.261 OA
ENDROOT
BRANCH   1   2
ATOM      2  C   UNL d   1       3.009  -1.414  -0.542  0.00  0.00     0.088 C 
ATOM      3  C   UNL d   1       2.816  -0.843   0.735  0.00  0.00    -0.016 C 
ATOM      4  C   UNL d   1       3.636   0.277   1.044  0.00  0.00     0.018 C 
ATOM      5  C   UNL d   1       4.622   0.790   0.168  0.00  0.00    -0.050 C 
ATOM      6  C   UNL d   1       4.885   0.057  -0.991  0.00  0.00     0.011 C 
ATOM      7  C   UNL d   1       4.084  -1.024  -1.349  0.00  0.00     0.038 C 
BRANCH   3   8
ATOM      8  C   UNL d   1       1.819  -1.344   1.812  0.00  0.00    -0.021 C 
ATOM      9  C   UNL d   1       0.904  -2.507   1.375  0.00  0.00     0.019 C 
ATOM     10  C   UNL d   1       2.629  -1.853   3.034  0.00  0.00     0.019 C 
ATOM     11  C   UNL d   1       0.890  -0.210   2.309  0.00  0.00     0.019 C 
ENDBRANCH   3   8
BRANCH   5  12
ATOM     12  C   UNL d   1       5.257   2.178   0.382  0.00  0.00    -0.024 C 
ATOM     13  C   UNL d   1       4.284   3.218  -0.219  0.00  0.00     0.019 C 
ATOM     14  C   UNL d   1       5.484   2.513   1.870  0.00  0.00     0.019 C 
ATOM     15  C   UNL d   1       6.620   2.357  -0.328  0.00  0.00     0.019 C 
ENDBRANCH   5  12
ENDBRANCH   1   2
BRANCH   1  16
ATOM     16  C   UNL d   1       2.106  -2.896  -2.322  0.00  0.00     0.372 C 
ATOM     17  N   UNL d   1       1.024  -2.831  -3.183  0.00  0.00    -0.268 N 
ATOM     18  C   UNL d   1       0.091  -1.804  -3.274  0.00  0.00     0.264 C 
ATOM     19  H   UNL d   1       1.184  -3.393  -4.007  0.00  0.00     0.174 HD
ATOM     20  O   UNL d   1       0.053  -0.866  -2.489  0.00  0.00    -0.267 OA
ATOM     21  O   UNL d   1       3.105  -3.540  -2.635  0.00  0.00    -0.238 OA
BRANCH  18  22
ATOM     22  C   UNL d   1      -0.879  -1.852  -4.423  0.00  0.00     0.092 A 
ATOM     23  C   UNL d   1      -0.560  -2.555  -5.593  0.00  0.00     0.133 A 
ATOM     24  F   UNL d   1       0.573  -3.271  -5.667  0.00  0.00    -0.205 F 
ATOM     25  C   UNL d   1      -1.384  -2.543  -6.721  0.00  0.00     0.043 A 
ATOM     26  C   UNL d   1      -2.571  -1.816  -6.708  0.00  0.00     0.005 A 
ATOM     27  C   UNL d   1      -2.933  -1.130  -5.540  0.00  0.00     0.025 A 
ATOM     28  C   UNL d   1      -2.103  -1.161  -4.407  0.00  0.00     0.052 A 
ATOM     29 CL   UNL d   1      -2.744  -0.360  -3.012  0.00  0.00    -0.083 Cl
ENDBRANCH  18  22
ENDBRANCH   1  16
TORSDOF 5
