REMARK  4 active torsions:
REMARK  status: ('A' for Active; 'I' for Inactive)
REMARK    1  A    between atoms: C_9  and  N_3 
REMARK    2  A    between atoms: C_8  and  C_4 
REMARK    3  A    between atoms: O_16  and  C_7 
REMARK    4  A    between atoms: C_10  and  C_11 
ROOT
ATOM      1  N   UNL d   1       0.694   0.534   0.443  0.00  0.00    -0.305 N 
ATOM      2  HN  UNL d   1       1.290   1.146   0.999  1.00  0.00     0.171 HD
ATOM      3  N   UNL d   1      -0.203  -1.191  -0.601  0.00  0.00    -0.236 N 
ATOM      4  C   UNL d   1       0.967  -0.663  -0.045  0.00  0.00     0.141 C 
ATOM      5  N   UNL d   1      -1.149  -0.216  -0.678  0.00  0.00    -0.256 N 
ATOM      6  HN  UNL d   1      -2.055  -0.225  -1.146  1.00  0.00     0.191 HD
ATOM      7  C   UNL d   1      -0.569   0.746   0.022  0.00  0.00     0.238 C 
ENDROOT
BRANCH   4   8
ATOM      8  C   UNL d   1       2.303  -1.278  -0.079  0.00  0.00     0.010 A 
ATOM      9  C   UNL d   1       2.735  -2.052  -1.161  0.00  0.00     0.016 A 
ATOM     10  C   UNL d   1       3.984  -2.677  -1.147  0.00  0.00     0.009 A 
ATOM     11  C   UNL d   1       4.877  -2.504  -0.077  0.00  0.00    -0.051 A 
ATOM     12  C   UNL d   1       4.460  -1.671   0.975  0.00  0.00     0.009 A 
ATOM     13  C   UNL d   1       3.194  -1.068   0.974  0.00  0.00     0.016 A 
BRANCH  11  14
ATOM     14  C   UNL d   1       6.245  -3.208  -0.101  0.00  0.00    -0.024 C 
ATOM     15  C   UNL d   1       7.146  -2.848   1.099  0.00  0.00     0.019 C 
ATOM     16  C   UNL d   1       6.035  -4.737  -0.082  0.00  0.00     0.019 C 
ATOM     17  C   UNL d   1       7.012  -2.820  -1.384  0.00  0.00     0.019 C 
ENDBRANCH  11  14
ENDBRANCH   4   8
BRANCH   3  18
ATOM     18  C   UNL d   1      -0.467  -2.505  -1.063  0.00  0.00     0.058 A 
ATOM     19  C   UNL d   1       0.118  -3.612  -0.434  0.00  0.00     0.031 A 
ATOM     20  C   UNL d   1      -0.026  -4.883  -0.989  0.00  0.00     0.002 A 
ATOM     21  C   UNL d   1      -0.756  -5.049  -2.164  0.00  0.00     0.000 A 
ATOM     22  C   UNL d   1      -1.383  -3.955  -2.762  0.00  0.00     0.002 A 
ATOM     23  C   UNL d   1      -1.262  -2.682  -2.200  0.00  0.00     0.031 A 
ENDBRANCH   3  18
BRANCH   7  24
ATOM     24  O   UNL d   1      -1.309   1.830   0.216  0.00  0.00    -0.331 OA
ATOM     25  H   UNL d   1      -2.150   1.634  -0.224  0.00  0.00     0.221 HD
ENDBRANCH   7  24
TORSDOF 4
