REMARK  3 active torsions:
REMARK  status: ('A' for Active; 'I' for Inactive)
REMARK    1  A    between atoms: N_7  and  C_1 
REMARK       I    between atoms: C_6  and  N_8 
REMARK    2  A    between atoms: C_12  and  C_6 
REMARK    3  A    between atoms: C_18  and  C_9 
ROOT
ATOM      1  C   UNL d   1       2.418  -0.630   0.117  0.00  0.00     0.127 A 
ATOM      2  N   UNL d   1       1.315  -1.256  -0.370  0.00  0.00    -0.339 N 
ATOM      3  HN  UNL d   1       1.373  -2.217  -0.708  1.00  0.00     0.167 HD
ATOM      4  N   UNL d   1       1.112   1.373   0.553  0.00  0.00    -0.355 N 
ATOM      5  HN  UNL d   1       1.040   2.325   0.911  1.00  0.00     0.166 HD
ATOM      6  C   UNL d   1       2.302   0.705   0.552  0.00  0.00     0.053 A 
ATOM      7  C   UNL d   1       0.143  -0.593  -0.401  0.00  0.00     0.060 A 
ATOM      8  C   UNL d   1       0.040   0.729   0.065  0.00  0.00     0.059 A 
ATOM      9  C   UNL d   1      -0.993  -1.214  -0.913  0.00  0.00     0.032 A 
ATOM     10  C   UNL d   1      -1.180   1.387  -0.003  0.00  0.00     0.032 A 
ATOM     11  C   UNL d   1      -2.314   0.760  -0.524  0.00  0.00     0.002 A 
ATOM     12  C   UNL d   1      -2.219  -0.547  -0.982  0.00  0.00     0.002 A 
ENDROOT
BRANCH   1  13
ATOM     13  N   UNL d   1       3.587  -1.348   0.070  0.00  0.00    -0.363 N 
ATOM     14  C   UNL d   1       4.638  -1.372   1.091  0.00  0.00     0.144 C 
ATOM     15  C   UNL d   1       6.002  -1.101   0.418  0.00  0.00     0.145 C 
ATOM     16  N   UNL d   1       6.235  -1.997  -0.734  0.00  0.00    -0.348 N 
ATOM     17  C   UNL d   1       7.429  -2.695  -0.784  0.00  0.00     0.227 C 
ATOM     18  C   UNL d   1       5.125  -1.995  -1.703  0.00  0.00     0.145 C 
ATOM     19  O   UNL d   1       8.223  -2.580   0.157  0.00  0.00    -0.273 OA
ATOM     20  C   UNL d   1       3.781  -2.318  -1.015  0.00  0.00     0.144 C 
BRANCH  17  21
ATOM     21  C   UNL d   1       7.803  -3.620  -1.968  0.00  0.00     0.030 C 
ATOM     22  C   UNL d   1       7.907  -2.847  -3.292  0.00  0.00     0.025 C 
ATOM     23  C   UNL d   1       9.216  -4.192  -1.680  0.00  0.00     0.025 C 
ATOM     24  C   UNL d   1       6.862  -4.828  -2.082  0.00  0.00     0.025 C 
ENDBRANCH  17  21
ENDBRANCH   1  13
BRANCH   6  25
ATOM     25  C   UNL d   1       3.482   1.530   1.006  0.00  0.00     0.056 C 
ATOM     26  C   UNL d   1       3.408   3.008   0.644  0.00  0.00     0.011 C 
ENDBRANCH   6  25
TORSDOF 3
