REMARK  1 active torsions:
REMARK  status: ('A' for Active; 'I' for Inactive)
REMARK    1  A    between atoms: C_3  and  C_1 
REMARK       I    between atoms: N_5  and  C_3 
ROOT
ATOM      1  C   UNL d   1       2.044  -1.017   0.024  0.00  0.00     0.074 C 
ATOM      2  S   UNL d   1       1.566   0.340   0.952  0.00  0.00    -0.084 SA
ATOM      3  C   UNL d   1       1.013  -1.435  -0.793  0.00  0.00     0.037 C 
ATOM      4  C   UNL d   1      -0.062   0.256   0.399  0.00  0.00     0.016 A 
ATOM      5  C   UNL d   1      -0.230  -0.777  -0.524  0.00  0.00    -0.018 A 
ATOM      6  C   UNL d   1      -1.138   1.080   0.784  0.00  0.00     0.019 A 
ATOM      7  C   UNL d   1      -1.525  -1.014  -1.040  0.00  0.00     0.013 A 
ATOM      8  C   UNL d   1      -2.601  -0.217  -0.642  0.00  0.00     0.001 A 
ATOM      9  C   UNL d   1      -2.405   0.827   0.252  0.00  0.00     0.001 A 
ENDROOT
BRANCH   1  10
ATOM     10  C   UNL d   1       3.411  -1.513   0.144  0.00  0.00     0.260 C 
ATOM     11  N   UNL d   1       3.644  -2.893  -0.023  0.00  0.00    -0.347 N 
ATOM     12  C   UNL d   1       5.031  -3.352   0.095  0.00  0.00     0.126 C 
ATOM     13  C   UNL d   1       2.645  -3.928   0.266  0.00  0.00     0.126 C 
ATOM     14  C   UNL d   1       5.294  -4.618  -0.721  0.00  0.00     0.020 C 
ATOM     15  C   UNL d   1       4.250  -5.700  -0.462  0.00  0.00     0.003 C 
ATOM     16  C   UNL d   1       2.844  -5.138  -0.639  0.00  0.00     0.020 C 
ATOM     17  O   UNL d   1       4.357  -0.752   0.369  0.00  0.00    -0.267 OA
ENDBRANCH   1  10
TORSDOF 1
