REMARK  0 active torsions:
REMARK  status: ('A' for Active; 'I' for Inactive)
ROOT
ATOM      1  C   UNL d   1       0.388   1.162   0.038  0.00  0.00     0.708 A 
ATOM      2  N   UNL d   1       0.621   0.199  -0.921  0.00  0.00    -0.113 N 
ATOM      3  HN  UNL d   1       1.104   0.333  -1.810  1.00  0.00     0.203 HD
ATOM      4  N   UNL d   1      -0.270   0.671   1.094  0.00  0.00    -0.118 N 
ATOM      5  HN  UNL d   1      -0.576   1.138   1.947  1.00  0.00     0.207 HD
ATOM      6  N   UNL d   1       0.100  -0.932  -0.470  0.00  0.00     0.009 NA
ATOM      7  N   UNL d   1      -0.415  -0.605   0.717  0.00  0.00    -0.212 N 
ATOM      8  N   UNL d   1       0.837   2.433  -0.125  0.00  0.00    -0.215 N 
ATOM      9  C   UNL d   1       0.506   3.439   0.883  0.00  0.00     0.141 C 
ATOM     10  C   UNL d   1       1.017   2.946  -1.483  0.00  0.00     0.141 C 
ATOM     11  C   UNL d   1       2.121   4.001  -1.493  0.00  0.00     0.020 C 
ATOM     12  C   UNL d   1       1.601   4.507   0.917  0.00  0.00     0.020 C 
ATOM     13  C   UNL d   1       1.856   5.100  -0.467  0.00  0.00     0.003 C 
ATOM     14  H   UNL d   1      -0.892  -1.289   1.294  0.00  0.00     0.206 HD
ENDROOT
TORSDOF 0
