REMARK  6 active torsions:
REMARK  status: ('A' for Active; 'I' for Inactive)
REMARK    1  A    between atoms: C_9  and  C_3 
REMARK       I    between atoms: C_7  and  N_8 
REMARK    2  A    between atoms: C_12  and  C_7 
REMARK    3  A    between atoms: N_8  and  C_11 
REMARK    4  A    between atoms: C_14  and  C_9 
REMARK    5  A    between atoms: C_18  and  C_14 
REMARK    6  A    between atoms: C_19  and  C_18 
ROOT
ATOM      1  C   UNL d   1      -3.930   3.757   0.216  0.00  0.00     0.046 C 
ENDROOT
BRANCH   1   2
ATOM      2  C   UNL d   1      -2.501   3.195   0.256  0.00  0.00     0.088 C 
BRANCH   2   3
ATOM      3  C   UNL d   1      -2.410   1.699  -0.042  0.00  0.00     0.161 C 
ATOM      4  O   UNL d   1      -3.349   1.052  -0.498  0.00  0.00    -0.292 OA
BRANCH   3   5
ATOM      5  C   UNL d   1      -1.100   1.005   0.212  0.00  0.00     0.023 A 
ATOM      6  C   UNL d   1       0.069   1.417  -0.482  0.00  0.00    -0.041 A 
ATOM      7  C   UNL d   1       0.023   2.523  -1.516  0.00  0.00     0.050 C 
ATOM      8  C   UNL d   1       1.323   0.791  -0.211  0.00  0.00    -0.049 A 
ATOM      9  C   UNL d   1       1.391  -0.271   0.723  0.00  0.00    -0.049 A 
ATOM     10  C   UNL d   1       2.545   1.296  -0.952  0.00  0.00     0.049 C 
ATOM     11  C   UNL d   1       0.204  -0.715   1.376  0.00  0.00    -0.049 A 
ATOM     12  C   UNL d   1       2.685  -0.995   1.040  0.00  0.00     0.049 C 
ATOM     13  C   UNL d   1      -1.048  -0.092   1.109  0.00  0.00    -0.041 A 
ATOM     14  C   UNL d   1       0.310  -1.876   2.352  0.00  0.00     0.049 C 
ATOM     15  C   UNL d   1      -2.287  -0.629   1.794  0.00  0.00     0.050 C 
ENDBRANCH   3   5
ENDBRANCH   2   3
ENDBRANCH   1   2
BRANCH   1  16
ATOM     16  C   UNL d   1      -3.991   5.252  -0.070  0.00  0.00    -0.056 A 
ATOM     17  C   UNL d   1      -5.037   5.755  -0.859  0.00  0.00     0.036 A 
ATOM     18  C   UNL d   1      -5.126   7.110  -1.196  0.00  0.00     0.035 A 
ATOM     19  C   UNL d   1      -4.153   7.986  -0.701  0.00  0.00     0.029 A 
ATOM     20  C   UNL d   1      -3.118   7.507   0.112  0.00  0.00     0.003 A 
ATOM     21  C   UNL d   1      -3.043   6.153   0.435  0.00  0.00     0.007 A 
BRANCH  18  22
ATOM     22  N   UNL d   1      -6.139   7.662  -2.018  0.00  0.00    -0.327 N 
ATOM     23  C   UNL d   1      -7.147   6.968  -2.678  0.00  0.00     0.226 C 
ATOM     24  O   UNL d   1      -7.273   5.741  -2.670  0.00  0.00    -0.273 OA
ATOM     25  H   UNL d   1      -6.104   8.663  -2.158  0.00  0.00     0.169 HD
BRANCH  23  26
ATOM     26  C   UNL d   1      -8.139   7.841  -3.471  0.00  0.00     0.078 C 
ATOM     27  C   UNL d   1      -8.458   9.308  -3.074  0.00  0.00     0.014 C 
ATOM     28  C   UNL d   1      -9.921   9.032  -3.482  0.00  0.00     0.002 C 
ATOM     29  C   UNL d   1      -9.644   7.550  -3.187  0.00  0.00     0.014 C 
ENDBRANCH  23  26
ENDBRANCH  18  22
ENDBRANCH   1  16
TORSDOF 6
