REMARK  3 active torsions:
REMARK  status: ('A' for Active; 'I' for Inactive)
REMARK    1  A    between atoms: C_7  and  C_3 
REMARK    2  A    between atoms: C_8  and  C_4 
REMARK    3  A    between atoms: C_9  and  C_10 
ROOT
ATOM      1  N   UNL d   1       1.253  -0.526   0.464  0.00  0.00    -0.349 N 
ATOM      2  HN  UNL d   1       2.036  -1.021   0.891  1.00  0.00     0.166 HD
ATOM      3  C   UNL d   1       0.174  -1.106  -0.027  0.00  0.00     0.084 A 
ATOM      4  C   UNL d   1       1.173   0.852   0.318  0.00  0.00     0.050 A 
ATOM      5  S   UNL d   1      -1.010  -0.013  -0.647  0.00  0.00    -0.081 SA
ATOM      6  C   UNL d   1       0.016   1.302  -0.285  0.00  0.00     0.082 A 
ENDROOT
BRANCH   3   7
ATOM      7  C   UNL d   1      -0.069  -2.558  -0.045  0.00  0.00    -0.002 A 
ATOM      8  C   UNL d   1       0.449  -3.370   0.970  0.00  0.00     0.015 A 
ATOM      9  C   UNL d   1       0.234  -4.758   0.964  0.00  0.00     0.009 A 
ATOM     10  C   UNL d   1      -0.490  -5.386  -0.066  0.00  0.00    -0.051 A 
ATOM     11  C   UNL d   1      -1.004  -4.562  -1.078  0.00  0.00     0.009 A 
ATOM     12  C   UNL d   1      -0.795  -3.177  -1.069  0.00  0.00     0.015 A 
BRANCH  10  13
ATOM     13  C   UNL d   1      -0.674  -6.914  -0.081  0.00  0.00    -0.024 C 
ATOM     14  C   UNL d   1      -1.463  -7.431  -1.307  0.00  0.00     0.019 C 
ATOM     15  C   UNL d   1       0.710  -7.597  -0.110  0.00  0.00     0.019 C 
ATOM     16  C   UNL d   1      -1.440  -7.370   1.178  0.00  0.00     0.019 C 
ENDBRANCH  10  13
ENDBRANCH   3   7
BRANCH   4  17
ATOM     17  C   UNL d   1       2.255   1.737   0.737  0.00  0.00    -0.009 A 
ATOM     18  C   UNL d   1       3.579   1.282   0.714  0.00  0.00     0.014 A 
ATOM     19  C   UNL d   1       4.630   2.132   1.075  0.00  0.00     0.007 A 
ATOM     20  C   UNL d   1       4.375   3.449   1.475  0.00  0.00    -0.062 A 
ATOM     21  C   UNL d   1       3.053   3.900   1.518  0.00  0.00     0.007 A 
ATOM     22  C   UNL d   1       5.508   4.355   1.855  0.00  0.00     0.048 C 
ATOM     23  C   UNL d   1       2.003   3.052   1.154  0.00  0.00     0.014 A 
ENDBRANCH   4  17
TORSDOF 3
