REMARK  4 active torsions:
REMARK  status: ('A' for Active; 'I' for Inactive)
REMARK    1  A    between atoms: C_6  and  N_1 
REMARK    2  A    between atoms: S_7  and  C_4 
REMARK    3  A    between atoms: C_9  and  S_7 
REMARK    4  A    between atoms: N_14  and  C_12 
ROOT
ATOM      1  N   UNL d   1       0.055   0.847  -0.032  0.00  0.00    -0.251 N 
ATOM      2  C   UNL d   1      -1.073   0.095   0.201  0.00  0.00     0.232 C 
ATOM      3  C   UNL d   1       1.170   0.046  -0.157  0.00  0.00     0.245 C 
ATOM      4  C   UNL d   1       0.742  -1.403  -0.201  0.00  0.00     0.154 C 
ATOM      5  C   UNL d   1      -0.719  -1.363   0.193  0.00  0.00     0.129 C 
ATOM      6  O   UNL d   1      -2.220   0.471   0.401  0.00  0.00    -0.273 OA
ATOM      7  O   UNL d   1       2.348   0.388  -0.188  0.00  0.00    -0.271 OA
ENDROOT
BRANCH   4   8
ATOM      8  S   UNL d   1       1.046  -2.027  -1.898  0.00  0.00    -0.113 SA
BRANCH   8   9
ATOM      9  C   UNL d   1       0.556  -3.747  -1.725  0.00  0.00     0.022 A 
ATOM     10  C   UNL d   1      -0.455  -4.273  -2.557  0.00  0.00     0.022 A 
ATOM     11  C   UNL d   1      -0.852  -5.604  -2.385  0.00  0.00     0.024 A 
ATOM     12  C   UNL d   1      -0.185  -6.436  -1.485  0.00  0.00     0.002 A 
ATOM     13  C   UNL d   1       0.862  -5.934  -0.717  0.00  0.00     0.001 A 
ATOM     14  C   UNL d   1       1.230  -4.591  -0.831  0.00  0.00     0.020 A 
BRANCH  10  15
ATOM     15  N   UNL d   1      -1.222  -3.436  -3.394  0.00  0.00    -0.302 NA
ATOM     16  H   UNL d   1      -0.689  -2.614  -3.676  0.00  0.00     0.124 HD
ATOM     17  H   UNL d   1      -1.622  -3.921  -4.191  0.00  0.00     0.124 HD
ENDBRANCH  10  15
ENDBRANCH   8   9
ENDBRANCH   4   8
BRANCH   1  18
ATOM     18  C   UNL d   1       0.079   2.274  -0.110  0.00  0.00     0.046 A 
ATOM     19  C   UNL d   1      -0.930   3.064   0.465  0.00  0.00     0.049 A 
ATOM     20  C   UNL d   1      -0.906   4.458   0.348  0.00  0.00     0.013 A 
ATOM     21 BR   UNL d   1      -2.267   5.491   1.160  0.00  0.00    -0.051 Br
ATOM     22  C   UNL d   1       0.109   5.098  -0.355  0.00  0.00     0.019 A 
ATOM     23  C   UNL d   1       1.118   4.335  -0.932  0.00  0.00     0.004 A 
ATOM     24  C   UNL d   1       1.106   2.940  -0.802  0.00  0.00     0.030 A 
ENDBRANCH   1  18
TORSDOF 4
