REMARK  2 active torsions:
REMARK  status: ('A' for Active; 'I' for Inactive)
REMARK    1  A    between atoms: C_2  and  C_1 
REMARK    2  A    between atoms: C_7  and  C_6 
ROOT
ATOM      1  C   UNL d   1      -3.335  -1.333  -0.190  0.00  0.00     0.079 C 
ATOM      2  C   UNL d   1      -3.467  -2.666  -0.001  0.00  0.00     0.038 C 
ATOM      3  C   UNL d   1      -2.043  -0.754  -0.398  0.00  0.00     0.102 C 
ATOM      4  N   UNL d   1      -0.991  -0.295  -0.577  0.00  0.00    -0.191 NA
ENDROOT
BRANCH   1   5
ATOM      5  C   UNL d   1      -4.524  -0.520  -0.168  0.00  0.00     0.096 A 
ATOM      6  N   UNL d   1      -5.759  -0.960   0.008  0.00  0.00    -0.348 N 
ATOM      7  C   UNL d   1      -6.678   0.078  -0.004  0.00  0.00     0.050 A 
ATOM      8  HN  UNL d   1      -6.005  -1.942   0.137  1.00  0.00     0.166 HD
ATOM      9  C   UNL d   1      -8.072  -0.044   0.171  0.00  0.00     0.031 A 
ATOM     10  C   UNL d   1      -6.138   1.345  -0.209  0.00  0.00     0.033 A 
ATOM     11  C   UNL d   1      -8.881   1.097   0.134  0.00  0.00     0.002 A 
ATOM     12  C   UNL d   1      -8.319   2.352  -0.076  0.00  0.00     0.002 A 
ATOM     13  C   UNL d   1      -6.940   2.498  -0.250  0.00  0.00     0.021 A 
ATOM     14  S   UNL d   1      -4.438   1.204  -0.383  0.00  0.00    -0.069 SA
ENDBRANCH   1   5
BRANCH   2  15
ATOM     15  C   UNL d   1      -2.342  -3.618   0.043  0.00  0.00    -0.011 A 
ATOM     16  C   UNL d   1      -1.667  -3.939   1.240  0.00  0.00     0.066 A 
ATOM     17  C   UNL d   1      -0.561  -4.801   1.202  0.00  0.00     0.056 A 
ATOM     18 CL   UNL d   1      -2.219  -3.267   2.744  0.00  0.00    -0.082 Cl
ATOM     19 CL   UNL d   1       0.340  -5.221   2.618  0.00  0.00    -0.083 Cl
ATOM     20  C   UNL d   1      -0.141  -5.354  -0.011  0.00  0.00     0.026 A 
ATOM     21  C   UNL d   1      -0.821  -5.056  -1.191  0.00  0.00     0.003 A 
ATOM     22  C   UNL d   1      -1.915  -4.190  -1.165  0.00  0.00     0.013 A 
ENDBRANCH   2  15
TORSDOF 2
