REMARK  3 active torsions:
REMARK  status: ('A' for Active; 'I' for Inactive)
REMARK    1  A    between atoms: C_4  and  S_1 
REMARK    2  A    between atoms: N_5  and  S_1 
REMARK    3  A    between atoms: C_2  and  C_3 
REMARK       I    between atoms: C_3  and  N_6 
ROOT
ATOM      1  C   UNL d   1      -3.330   2.694  -1.242  0.00  0.00     0.257 C 
ATOM      2  N   UNL d   1       0.371   0.500  -1.469  0.00  0.00    -0.304 N 
ATOM      3  N   UNL d   1      -2.153   1.923  -1.298  0.00  0.00    -0.345 N 
ATOM      4  C   UNL d   1       0.326   1.948  -1.812  0.00  0.00     0.155 C 
ATOM      5  C   UNL d   1      -0.893  -0.180  -1.831  0.00  0.00     0.155 C 
ATOM      6  C   UNL d   1      -0.876   2.648  -1.146  0.00  0.00     0.146 C 
ATOM      7  C   UNL d   1      -2.077   0.466  -1.112  0.00  0.00     0.146 C 
ATOM      8  O   UNL d   1      -3.298   3.920  -1.333  0.00  0.00    -0.267 OA
ENDROOT
BRANCH   2   9
ATOM      9  S   UNL d   1       1.107   0.052  -0.015  0.00  0.00     0.261 S 
ATOM     10  O   UNL d   1       1.179   1.217   0.847  0.00  0.00    -0.200 OA
ATOM     11  O   UNL d   1       0.541  -1.195   0.441  0.00  0.00    -0.200 OA
BRANCH   9  12
ATOM     12  C   UNL d   1       2.748  -0.320  -0.575  0.00  0.00     0.083 A 
ATOM     13  C   UNL d   1       3.850   0.362  -0.059  0.00  0.00     0.049 A 
ATOM     14  C   UNL d   1       5.117   0.062  -0.555  0.00  0.00     0.037 A 
ATOM     15 CL   UNL d   1       6.490   0.892   0.064  0.00  0.00    -0.084 Cl
ATOM     16  C   UNL d   1       5.287  -0.900  -1.552  0.00  0.00     0.047 A 
ATOM     17  C   UNL d   1       4.176  -1.582  -2.044  0.00  0.00     0.037 A 
ATOM     18  C   UNL d   1       2.904  -1.308  -1.555  0.00  0.00     0.049 A 
ATOM     19 CL   UNL d   1       4.375  -2.765  -3.277  0.00  0.00    -0.084 Cl
ENDBRANCH   9  12
ENDBRANCH   2   9
BRANCH   1  20
ATOM     20  C   UNL d   1      -4.666   2.054  -1.062  0.00  0.00     0.070 A 
ATOM     21  C   UNL d   1      -5.774   2.560  -1.756  0.00  0.00     0.135 A 
ATOM     22  C   UNL d   1      -7.036   1.981  -1.619  0.00  0.00     0.085 A 
ATOM     23  F   UNL d   1      -5.659   3.606  -2.587  0.00  0.00    -0.205 F 
ATOM     24  C   UNL d   1      -7.189   0.873  -0.798  0.00  0.00     0.119 A 
ATOM     25  C   UNL d   1      -6.119   0.376  -0.069  0.00  0.00     0.043 A 
ATOM     26  F   UNL d   1      -8.386   0.283  -0.694  0.00  0.00    -0.206 F 
ATOM     27  C   UNL d   1      -4.873   0.999  -0.162  0.00  0.00     0.023 A 
ENDBRANCH   1  20
TORSDOF 3
