REMARK  7 active torsions:
REMARK  status: ('A' for Active; 'I' for Inactive)
REMARK    1  A    between atoms: N_2  and  S_1 
REMARK    2  A    between atoms: C_8  and  S_1 
REMARK       I    between atoms: C_3  and  N_2 
REMARK       I    between atoms: N_13  and  C_3 
REMARK    3  A    between atoms: C_4  and  C_6 
REMARK    4  A    between atoms: C_5  and  C_7 
REMARK    5  A    between atoms: C_10  and  O_17 
REMARK    6  A    between atoms: C_26  and  N_13 
REMARK    7  A    between atoms: O_17  and  C_27 
ROOT
ATOM      1  C   UNL d   1       2.269   2.164  -1.331  0.00  0.00     0.036 C 
ATOM      2  C   UNL d   1       3.512   2.693   1.146  0.00  0.00     0.076 C 
ATOM      3  C   UNL d   1       3.208   1.280  -0.787  0.00  0.00     0.032 C 
ATOM      4  C   UNL d   1       2.067   3.390  -0.678  0.00  0.00     0.032 C 
ATOM      5  C   UNL d   1       3.844   1.550   0.427  0.00  0.00     0.039 C 
ATOM      6  C   UNL d   1       2.684   3.651   0.561  0.00  0.00     0.039 C 
ENDROOT
BRANCH   1   7
ATOM      7  N   UNL d   1       1.490   1.860  -2.478  0.00  0.00    -0.308 N 
ATOM      8  C   UNL d   1       1.412   0.632  -3.102  0.00  0.00     0.334 C 
ATOM      9  N   UNL d   1       0.505   0.445  -4.131  0.00  0.00    -0.232 N 
ATOM     10  O   UNL d   1       2.070  -0.355  -2.811  0.00  0.00    -0.246 OA
ATOM     11  H   UNL d   1       0.592  -0.457  -4.593  0.00  0.00     0.183 HD
ATOM     12  H   UNL d   1       0.900   2.595  -2.853  0.00  0.00     0.170 HD
BRANCH   9  13
ATOM     13  S   UNL d   1      -0.575   1.451  -4.847  0.00  0.00     0.266 S 
ATOM     14  O   UNL d   1      -0.886   0.886  -6.137  0.00  0.00    -0.200 OA
ATOM     15  O   UNL d   1      -0.074   2.801  -4.686  0.00  0.00    -0.200 OA
BRANCH  13  16
ATOM     16  C   UNL d   1      -2.040   1.333  -3.854  0.00  0.00     0.080 A 
ATOM     17  C   UNL d   1      -2.197   0.345  -2.881  0.00  0.00     0.026 A 
ATOM     18  C   UNL d   1      -3.257   0.443  -1.975  0.00  0.00     0.008 A 
ATOM     19  C   UNL d   1      -4.156   1.517  -2.044  0.00  0.00    -0.062 A 
ATOM     20  C   UNL d   1      -4.043   2.443  -3.088  0.00  0.00     0.008 A 
ATOM     21  C   UNL d   1      -5.191   1.699  -0.972  0.00  0.00     0.048 C 
ATOM     22  C   UNL d   1      -2.986   2.353  -3.992  0.00  0.00     0.026 A 
ENDBRANCH  13  16
ENDBRANCH   9  13
ENDBRANCH   1   7
BRANCH   2  23
ATOM     23  O   UNL d   1       3.983   2.914   2.423  0.00  0.00    -0.311 OA
BRANCH  23  24
ATOM     24  C   UNL d   1       3.879   1.882   3.344  0.00  0.00     0.077 A 
ATOM     25  C   UNL d   1       4.782   1.900   4.411  0.00  0.00     0.053 A 
ATOM     26  C   UNL d   1       4.752   0.894   5.397  0.00  0.00     0.051 A 
ATOM     27  C   UNL d   1       3.807  -0.140   5.287  0.00  0.00     0.032 A 
ATOM     28  C   UNL d   1       2.870  -0.151   4.245  0.00  0.00     0.051 A 
ATOM     29  C   UNL d   1       2.905   0.877   3.289  0.00  0.00     0.053 A 
BRANCH  26  30
ATOM     30  C   UNL d   1       5.707   0.942   6.568  0.00  0.00     0.417 C 
ATOM     31  F   UNL d   1       5.529  -0.081   7.451  0.00  0.00    -0.166 F 
ATOM     32  F   UNL d   1       7.011   0.883   6.187  0.00  0.00    -0.166 F 
ATOM     33  F   UNL d   1       5.576   2.086   7.295  0.00  0.00    -0.166 F 
ENDBRANCH  26  30
BRANCH  28  34
ATOM     34  C   UNL d   1       1.823  -1.235   4.139  0.00  0.00     0.417 C 
ATOM     35  F   UNL d   1       1.819  -2.089   5.199  0.00  0.00    -0.166 F 
ATOM     36  F   UNL d   1       0.561  -0.730   4.062  0.00  0.00    -0.166 F 
ATOM     37  F   UNL d   1       1.986  -2.011   3.033  0.00  0.00    -0.166 F 
ENDBRANCH  28  34
ENDBRANCH  23  24
ENDBRANCH   2  23
TORSDOF 7
