REMARK  3 active torsions:
REMARK  status: ('A' for Active; 'I' for Inactive)
REMARK    1  A    between atoms: C_2  and  N_1 
REMARK    2  A    between atoms: O_15  and  C_8 
REMARK    3  A    between atoms: O_16  and  C_9 
ROOT
ATOM      1  C   UNL d   1       1.331   2.196  -1.093  0.00  0.00     0.050 A 
ATOM      2  C   UNL d   1       1.935   1.805  -2.301  0.00  0.00     0.067 A 
ATOM      3  C   UNL d   1       1.301   3.567  -0.802  0.00  0.00     0.067 A 
ATOM      4  C   UNL d   1       1.853   4.511  -1.683  0.00  0.00     0.073 A 
ATOM      5  C   UNL d   1       2.452   2.732  -3.204  0.00  0.00     0.073 A 
ATOM      6  C   UNL d   1       2.421   4.087  -2.883  0.00  0.00     0.073 A 
ENDROOT
BRANCH   1   7
ATOM      7  N   UNL d   1       0.618   1.198  -0.337  0.00  0.00    -0.251 N 
ATOM      8  C   UNL d   1       1.007  -0.141  -0.453  0.00  0.00     0.240 C 
ATOM      9  O   UNL d   1       2.175  -0.524  -0.563  0.00  0.00    -0.272 OA
ATOM     10  C   UNL d   1      -0.130  -1.132  -0.565  0.00  0.00     0.178 C 
ATOM     11  S   UNL d   1      -1.261  -1.006   0.829  0.00  0.00    -0.150 SA
ATOM     12  C   UNL d   1      -1.538   0.773   0.719  0.00  0.00     0.178 C 
ATOM     13  C   UNL d   1      -0.233   1.543   0.711  0.00  0.00     0.240 C 
ATOM     14  O   UNL d   1      -0.020   2.419   1.554  0.00  0.00    -0.272 OA
ENDBRANCH   1   7
BRANCH   5  15
ATOM     15  O   UNL d   1       2.966   2.428  -4.436  0.00  0.00    -0.356 OA
ATOM     16  C   UNL d   1       2.930   1.055  -4.820  0.00  0.00     0.210 C 
ENDBRANCH   5  15
BRANCH   4  17
ATOM     17  O   UNL d   1       1.743   5.813  -1.273  0.00  0.00    -0.356 OA
ATOM     18  C   UNL d   1       2.292   6.805  -2.135  0.00  0.00     0.210 C 
ENDBRANCH   4  17
TORSDOF 3
