REMARK  7 active torsions:
REMARK  status: ('A' for Active; 'I' for Inactive)
REMARK    1  A    between atoms: C_6  and  C_1 
REMARK    2  A    between atoms: N_5  and  C_2 
REMARK    3  A    between atoms: C_3  and  C_7 
REMARK       I    between atoms: C_4  and  N_5 
REMARK    4  A    between atoms: C_8  and  C_4 
REMARK       I    between atoms: N_15  and  C_6 
REMARK    5  A    between atoms: C_21  and  N_15 
REMARK    6  A    between atoms: C_30  and  C_21 
REMARK    7  A    between atoms: C_22  and  C_30 
ROOT
ATOM      1  C   UNL d   1       0.425  -1.047  -0.602  0.00  0.00     0.097 A 
ATOM      2  C   UNL d   1      -0.968  -1.111  -0.420  0.00  0.00     0.053 A 
ATOM      3  C   UNL d   1       1.069   0.187  -0.405  0.00  0.00     0.134 A 
ATOM      4  F   UNL d   1       2.397   0.306  -0.567  0.00  0.00    -0.205 F 
ATOM      5  C   UNL d   1      -1.672   0.078  -0.129  0.00  0.00     0.031 A 
ATOM      6  C   UNL d   1      -1.014   1.291   0.053  0.00  0.00     0.005 A 
ATOM      7  C   UNL d   1       0.366   1.341  -0.067  0.00  0.00     0.043 A 
ENDROOT
BRANCH   2   8
ATOM      8  N   UNL d   1      -1.793  -2.259  -0.473  0.00  0.00    -0.322 N 
ATOM      9  C   UNL d   1      -1.457  -3.549  -0.095  0.00  0.00     0.256 C 
ATOM     10  O   UNL d   1      -0.386  -3.901   0.380  0.00  0.00    -0.267 OA
ATOM     11  H   UNL d   1      -2.784  -2.063  -0.492  0.00  0.00     0.169 HD
BRANCH   9  12
ATOM     12  C   UNL d   1      -2.620  -4.504  -0.106  0.00  0.00     0.033 A 
ATOM     13  C   UNL d   1      -3.752  -4.295  -0.913  0.00  0.00     0.033 A 
ATOM     14  C   UNL d   1      -4.904  -5.087  -0.759  0.00  0.00     0.048 A 
ATOM     15  C   UNL d   1      -4.883  -6.139   0.168  0.00  0.00     0.016 A 
ATOM     16  C   UNL d   1      -3.740  -6.393   0.926  0.00  0.00     0.002 A 
ATOM     17  C   UNL d   1      -2.614  -5.576   0.794  0.00  0.00     0.017 A 
BRANCH  14  18
ATOM     18  C   UNL d   1      -6.162  -4.793  -1.543  0.00  0.00     0.417 C 
ATOM     19  F   UNL d   1      -6.059  -3.684  -2.329  0.00  0.00    -0.166 F 
ATOM     20  F   UNL d   1      -6.521  -5.811  -2.370  0.00  0.00    -0.166 F 
ATOM     21  F   UNL d   1      -7.232  -4.569  -0.731  0.00  0.00    -0.166 F 
ENDBRANCH  14  18
ENDBRANCH   9  12
ENDBRANCH   2   8
BRANCH   1  22
ATOM     22  C   UNL d   1       1.229  -2.146  -1.196  0.00  0.00     0.257 C 
ATOM     23  O   UNL d   1       0.780  -2.803  -2.129  0.00  0.00    -0.267 OA
ATOM     24  N   UNL d   1       2.506  -2.306  -0.692  0.00  0.00    -0.356 N 
ATOM     25  H   UNL d   1       2.860  -1.622  -0.034  0.00  0.00     0.162 HD
BRANCH  24  26
ATOM     26  C   UNL d   1       3.440  -3.263  -1.256  0.00  0.00     0.127 C 
BRANCH  26  27
ATOM     27  C   UNL d   1       4.628  -3.554  -0.329  0.00  0.00     0.058 C 
BRANCH  27  28
ATOM     28  C   UNL d   1       4.343  -4.231   0.995  0.00  0.00    -0.054 A 
ATOM     29  C   UNL d   1       3.066  -4.605   1.416  0.00  0.00     0.024 A 
ATOM     30  C   UNL d   1       2.912  -5.198   2.661  0.00  0.00     0.088 A 
ATOM     31  N   UNL d   1       3.933  -5.457   3.506  0.00  0.00    -0.375 N 
ATOM     32  C   UNL d   1       5.163  -5.104   3.080  0.00  0.00     0.088 A 
ATOM     33  HN  UNL d   1       3.782  -5.894   4.415  1.00  0.00     0.164 HD
ATOM     34  C   UNL d   1       5.415  -4.498   1.857  0.00  0.00     0.024 A 
ENDBRANCH  27  28
ENDBRANCH  26  27
ENDBRANCH  24  26
ENDBRANCH   1  22
TORSDOF 7
