REMARK  4 active torsions:
REMARK  status: ('A' for Active; 'I' for Inactive)
REMARK    1  A    between atoms: O_10  and  S_1 
REMARK    2  A    between atoms: N_14  and  S_1 
REMARK    3  A    between atoms: C_5  and  C_18 
REMARK    4  A    between atoms: C_22  and  O_10 
ROOT
ATOM      1  N   UNL d   1       3.212  -5.872   3.832  0.00  0.00    -0.317 N 
ATOM      2  HN  UNL d   1       4.049  -5.395   3.496  1.00  0.00     0.169 HD
ATOM      3  C   UNL d   1       3.111  -7.068   4.378  0.00  0.00     0.208 A 
ATOM      4  C   UNL d   1       1.909  -5.425   3.828  0.00  0.00     0.138 A 
ATOM      5  C   UNL d   1       4.209  -7.952   4.587  0.00  0.00     0.153 A 
ATOM      6  N   UNL d   1       1.036  -6.293   4.363  0.00  0.00    -0.242 N 
ATOM      7  HN  UNL d   1       0.029  -6.181   4.480  1.00  0.00     0.196 HD
ATOM      8  O   UNL d   1       1.825  -7.379   4.721  0.00  0.00    -0.215 OA
ATOM      9  N   UNL d   1       5.293  -9.838   5.178  0.00  0.00    -0.272 N 
ATOM     10  HN  UNL d   1       5.488 -10.782   5.512  1.00  0.00     0.194 HD
ATOM     11  O   UNL d   1       4.059  -9.217   5.084  0.00  0.00    -0.234 OA
ATOM     12  C   UNL d   1       5.552  -7.741   4.352  0.00  0.00     0.063 A 
ATOM     13  C   UNL d   1       6.174  -8.938   4.739  0.00  0.00     0.117 A 
ENDROOT
BRANCH   4  14
ATOM     14  C   UNL d   1       1.521  -4.137   3.264  0.00  0.00     0.010 A 
ATOM     15  C   UNL d   1       2.470  -3.291   2.671  0.00  0.00     0.018 A 
ATOM     16  C   UNL d   1       2.082  -2.062   2.119  0.00  0.00     0.039 A 
ATOM     17  C   UNL d   1       0.743  -1.662   2.166  0.00  0.00     0.090 A 
ATOM     18  C   UNL d   1      -0.208  -2.512   2.726  0.00  0.00     0.039 A 
ATOM     19  C   UNL d   1       0.180  -3.731   3.284  0.00  0.00     0.018 A 
BRANCH  17  20
ATOM     20  O   UNL d   1       0.449  -0.432   1.633  0.00  0.00    -0.221 OA
BRANCH  20  21
ATOM     21  S   UNL d   1      -0.843   0.419   2.163  0.00  0.00     0.344 S 
ATOM     22  O   UNL d   1      -0.853   0.388   3.615  0.00  0.00    -0.180 OA
ATOM     23  O   UNL d   1      -2.007   0.011   1.409  0.00  0.00    -0.180 OA
BRANCH  21  24
ATOM     24  N   UNL d   1      -0.476   2.026   1.731  0.00  0.00    -0.196 NA
ATOM     25  C   UNL d   1       0.774   2.547   2.313  0.00  0.00     0.131 C 
ATOM     26  C   UNL d   1      -0.647   2.359   0.310  0.00  0.00     0.131 C 
ENDBRANCH  21  24
ENDBRANCH  20  21
ENDBRANCH  17  20
ENDBRANCH   4  14
TORSDOF 4
