REMARK  6 active torsions:
REMARK  status: ('A' for Active; 'I' for Inactive)
REMARK    1  A    between atoms: C_3  and  S_1 
REMARK    2  A    between atoms: N_14  and  S_1 
REMARK    3  A    between atoms: C_9  and  C_2 
REMARK    4  A    between atoms: C_4  and  C_10 
REMARK    5  A    between atoms: C_20  and  N_14 
REMARK    6  A    between atoms: C_21  and  C_20 
ROOT
ATOM      1  C   UNL d   1       0.380  -0.076  -1.900  0.00  0.00     0.116 A 
ATOM      2  S   UNL d   1       1.022  -1.329  -2.866  0.00  0.00    -0.075 SA
ATOM      3  C   UNL d   1       0.224  -0.768  -4.267  0.00  0.00     0.035 A 
ATOM      4  C   UNL d   1      -0.467   0.736  -2.632  0.00  0.00     0.034 A 
ATOM      5  C   UNL d   1      -0.557   0.337  -3.999  0.00  0.00     0.023 A 
ENDROOT
BRANCH   1   6
ATOM      6  S   UNL d   1       0.906  -0.001  -0.196  0.00  0.00     0.248 S 
ATOM      7  O   UNL d   1       0.082   1.048   0.360  0.00  0.00    -0.205 OA
ATOM      8  O   UNL d   1       2.346   0.084  -0.233  0.00  0.00    -0.205 OA
BRANCH   6   9
ATOM      9  N   UNL d   1       0.448  -1.425   0.580  0.00  0.00    -0.211 NA
ATOM     10  H   UNL d   1      -0.519  -1.684   0.389  0.00  0.00     0.140 HD
BRANCH   9  11
ATOM     11  C   UNL d   1       1.408  -2.534   0.536  0.00  0.00     0.143 C 
BRANCH  11  12
ATOM     12  C   UNL d   1       0.937  -3.773   1.263  0.00  0.00    -0.044 A 
ATOM     13  C   UNL d   1       1.343  -5.035   0.798  0.00  0.00     0.008 A 
ATOM     14  C   UNL d   1       1.000  -6.196   1.492  0.00  0.00     0.001 A 
ATOM     15  C   UNL d   1       0.250  -6.111   2.662  0.00  0.00     0.000 A 
ATOM     16  C   UNL d   1      -0.158  -4.866   3.138  0.00  0.00     0.001 A 
ATOM     17  C   UNL d   1       0.189  -3.702   2.447  0.00  0.00     0.008 A 
ENDBRANCH  11  12
ENDBRANCH   9  11
ENDBRANCH   6   9
ENDBRANCH   1   6
BRANCH   3  18
ATOM     18  C   UNL d   1       0.378  -1.382  -5.625  0.00  0.00     0.074 A 
ATOM     19  C   UNL d   1       1.135  -2.529  -5.955  0.00  0.00     0.077 A 
ATOM     20  C   UNL d   1       1.023  -2.634  -7.322  0.00  0.00     0.184 A 
ATOM     21  O   UNL d   1       0.220  -1.638  -7.779  0.00  0.00    -0.233 OA
ATOM     22  N   UNL d   1      -0.196  -0.857  -6.716  0.00  0.00    -0.260 N 
ATOM     23  HN  UNL d   1      -0.814  -0.046  -6.754  1.00  0.00     0.195 HD
BRANCH  20  24
ATOM     24  C   UNL d   1       1.581  -3.546  -8.334  0.00  0.00     0.441 C 
ATOM     25  F   UNL d   1       2.295  -4.551  -7.761  0.00  0.00    -0.164 F 
ATOM     26  F   UNL d   1       0.620  -4.134  -9.089  0.00  0.00    -0.164 F 
ATOM     27  F   UNL d   1       2.425  -2.910  -9.186  0.00  0.00    -0.164 F 
ENDBRANCH  20  24
ENDBRANCH   3  18
TORSDOF 6
