REMARK  2 active torsions:
REMARK  status: ('A' for Active; 'I' for Inactive)
REMARK    1  A    between atoms: O_11  and  C_7 
REMARK    2  A    between atoms: O_12  and  C_9 
ROOT
ATOM      1  C   UNL d   1      -0.120  -0.678  -0.057  0.00  0.00    -0.005 A 
ATOM      2  C   UNL d   1      -1.312  -1.405  -0.129  0.00  0.00     0.053 A 
ATOM      3  C   UNL d   1      -0.155   0.711   0.099  0.00  0.00    -0.042 A 
ATOM      4  N   UNL d   1       2.337  -0.712  -0.034  0.00  0.00    -0.392 N 
ATOM      5  HN  UNL d   1       3.216  -1.203  -0.202  1.00  0.00     0.159 HD
ATOM      6  C   UNL d   1       1.215  -1.333  -0.166  0.00  0.00     0.012 C 
ATOM      7  C   UNL d   1      -2.545  -0.754   0.013  0.00  0.00     0.102 A 
ATOM      8  C   UNL d   1      -1.388   1.358   0.262  0.00  0.00     0.047 A 
ATOM      9  C   UNL d   1      -2.581   0.630   0.215  0.00  0.00     0.102 A 
ATOM     10  C   UNL d   1       2.349   0.699   0.360  0.00  0.00     0.124 C 
ATOM     11  C   UNL d   1       1.117   1.492  -0.053  0.00  0.00     0.059 C 
ATOM     12  C   UNL d   1       1.276  -2.825  -0.402  0.00  0.00     0.068 C 
ENDROOT
BRANCH   7  13
ATOM     13  O   UNL d   1      -3.647  -1.546  -0.153  0.00  0.00    -0.353 OA
ATOM     14  C   UNL d   1      -4.555  -1.515   0.945  0.00  0.00     0.210 C 
ENDBRANCH   7  13
BRANCH   9  15
ATOM     15  O   UNL d   1      -3.736   1.330   0.426  0.00  0.00    -0.353 OA
ATOM     16  C   UNL d   1      -4.549   1.419  -0.743  0.00  0.00     0.210 C 
ENDBRANCH   9  15
TORSDOF 2
