REMARK  4 active torsions:
REMARK  status: ('A' for Active; 'I' for Inactive)
REMARK    1  A    between atoms: C_9  and  N_6 
REMARK    2  A    between atoms: C_10  and  C_9 
REMARK       I    between atoms: N_13  and  C_10 
REMARK    3  A    between atoms: N_11  and  N_13 
REMARK    4  A    between atoms: C_18  and  C_14 
ROOT
ATOM      1  C   UNL d   1       3.326   0.539   0.015  0.00  0.00     0.257 C 
ATOM      2  N   UNL d   1       3.545  -0.818   0.172  0.00  0.00    -0.269 N 
ATOM      3  O   UNL d   1       4.249   1.348  -0.165  0.00  0.00    -0.270 OA
ATOM      4  H   UNL d   1       2.744  -1.458   0.158  0.00  0.00     0.190 HD
ENDROOT
BRANCH   1   5
ATOM      5  C   UNL d   1       1.928   1.074   0.089  0.00  0.00     0.272 C 
BRANCH   5   6
ATOM      6  N   UNL d   1       0.818   0.149   0.100  0.00  0.00    -0.194 N 
ATOM      7  N   UNL d   1       0.888  -1.145  -0.274  0.00  0.00    -0.115 N 
ATOM      8  C   UNL d   1      -0.414  -1.475  -0.241  0.00  0.00     0.709 A 
ATOM      9  HN  UNL d   1       1.700  -1.713  -0.514  1.00  0.00     0.207 HD
ATOM     10  N   UNL d   1      -1.211  -0.425   0.145  0.00  0.00    -0.113 N 
ATOM     11  N   UNL d   1      -0.956  -2.665  -0.534  0.00  0.00    -0.215 N 
ATOM     12  N   UNL d   1      -0.420   0.612   0.352  0.00  0.00     0.011 NA
ATOM     13  HN  UNL d   1      -2.225  -0.443   0.252  1.00  0.00     0.203 HD
ATOM     14  C   UNL d   1      -2.333  -3.002  -0.215  0.00  0.00     0.141 C 
ATOM     15  C   UNL d   1      -0.215  -3.789  -1.066  0.00  0.00     0.141 C 
ATOM     16  C   UNL d   1      -2.340  -4.527  -0.252  0.00  0.00     0.022 C 
ATOM     17  C   UNL d   1      -1.292  -4.848  -1.307  0.00  0.00     0.022 C 
ENDBRANCH   5   6
ENDBRANCH   1   5
BRANCH   2  18
ATOM     18  N   UNL d   1       4.759  -1.292  -0.231  0.00  0.00    -0.307 N 
ATOM     19  C   UNL d   1       4.911  -2.570  -0.296  0.00  0.00     0.136 C 
ATOM     20  HN  UNL d   1       5.520  -0.657  -0.471  1.00  0.00     0.186 HD
BRANCH  19  21
ATOM     21  C   UNL d   1       6.104  -3.143  -0.959  0.00  0.00     0.049 A 
ATOM     22  N   UNL d   1       6.020  -4.461  -1.259  0.00  0.00    -0.365 N 
ATOM     23  C   UNL d   1       6.990  -4.949  -2.063  0.00  0.00     0.088 A 
ATOM     24  HN  UNL d   1       5.269  -5.051  -0.899  1.00  0.00     0.165 HD
ATOM     25  C   UNL d   1       8.033  -4.187  -2.576  0.00  0.00     0.017 A 
ATOM     26  C   UNL d   1       8.110  -2.846  -2.218  0.00  0.00     0.004 A 
ATOM     27  C   UNL d   1       7.131  -2.308  -1.391  0.00  0.00     0.031 A 
ENDBRANCH  19  21
ENDBRANCH   2  18
TORSDOF 4
