REMARK  7 active torsions:
REMARK  status: ('A' for Active; 'I' for Inactive)
REMARK    1  A    between atoms: C_6  and  C_1 
REMARK       I    between atoms: C_8  and  N_9 
REMARK    2  A    between atoms: C_20  and  C_8 
REMARK    3  A    between atoms: N_9  and  C_12 
REMARK    4  A    between atoms: C_11  and  C_21 
REMARK    5  A    between atoms: O_17  and  C_11 
REMARK    6  A    between atoms: O_16  and  C_20 
REMARK    7  A    between atoms: C_21  and  O_16 
ROOT
ATOM      1  C   UNL d   1       2.192  -1.427   0.093  0.00  0.00    -0.004 A 
ATOM      2  C   UNL d   1       2.248  -2.325  -0.985  0.00  0.00     0.043 A 
ATOM      3  C   UNL d   1       3.380  -3.102  -1.241  0.00  0.00     0.035 A 
ATOM      4  C   UNL d   1       3.293  -1.364   0.954  0.00  0.00     0.014 A 
ATOM      5  C   UNL d   1       4.408  -2.181   0.747  0.00  0.00     0.003 A 
ATOM      6  C   UNL d   1       4.456  -3.038  -0.353  0.00  0.00     0.029 A 
ENDROOT
BRANCH   3   7
ATOM      7  N   UNL d   1       3.502  -3.942  -2.366  0.00  0.00    -0.325 N 
ATOM      8  C   UNL d   1       2.608  -4.067  -3.418  0.00  0.00     0.245 C 
ATOM      9  O   UNL d   1       1.558  -3.451  -3.575  0.00  0.00    -0.271 OA
ATOM     10  H   UNL d   1       4.346  -4.494  -2.434  0.00  0.00     0.169 HD
BRANCH   8  11
ATOM     11  C   UNL d   1       3.091  -5.050  -4.480  0.00  0.00     0.271 C 
BRANCH  11  12
ATOM     12  O   UNL d   1       3.522  -6.282  -3.890  0.00  0.00    -0.372 OA
BRANCH  12  13
ATOM     13  C   UNL d   1       3.694  -7.292  -4.891  0.00  0.00     0.277 C 
BRANCH  13  14
ATOM     14  C   UNL d   1       5.021  -7.097  -5.600  0.00  0.00     0.164 C 
ATOM     15  O   UNL d   1       5.181  -7.161  -6.811  0.00  0.00    -0.648 OA
BRANCH  14  16
ATOM     16  O   UNL d   1       6.023  -6.824  -4.734  0.00  0.00    -0.775 OA
ATOM     17  H   UNL d   1       5.680  -6.801  -3.816  0.00  0.00     0.167 HD
ENDBRANCH  14  16
ENDBRANCH  13  14
ENDBRANCH  12  13
ENDBRANCH  11  12
ENDBRANCH   8  11
ENDBRANCH   3   7
BRANCH   1  18
ATOM     18  C   UNL d   1       1.019  -0.552   0.243  0.00  0.00     0.079 A 
ATOM     19  N   UNL d   1       0.360  -0.260   1.425  0.00  0.00    -0.295 N 
ATOM     20  N   UNL d   1      -0.709   0.555   1.275  0.00  0.00    -0.308 N 
ATOM     21  C   UNL d   1       0.651  -0.740   2.757  0.00  0.00     0.178 C 
ATOM     22  C   UNL d   1      -0.751   0.787  -0.036  0.00  0.00     0.129 A 
ATOM     23  HN  UNL d   1      -1.336   0.910   1.997  1.00  0.00     0.186 HD
ATOM     24  C   UNL d   1       0.289   0.142  -0.710  0.00  0.00     0.057 A 
ATOM     25 BR   UNL d   1       0.546   0.302  -2.561  0.00  0.00    -0.047 Br
ENDBRANCH   1  18
TORSDOF 7
