REMARK  4 active torsions:
REMARK  status: ('A' for Active; 'I' for Inactive)
REMARK    1  A    between atoms: C_4  and  C_1 
REMARK    2  A    between atoms: C_5  and  O_6 
REMARK    3  A    between atoms: O_6  and  C_13 
REMARK    4  A    between atoms: N_16  and  C_14 
ROOT
ATOM      1  O   UNL d   1      -0.590   1.020   5.263  0.00  0.00    -0.294 OA
ENDROOT
BRANCH   1   2
ATOM      2  C   UNL d   1      -1.577   0.259   5.875  0.00  0.00     0.148 A 
ATOM      3  N   UNL d   1      -2.548  -0.309   5.127  0.00  0.00    -0.345 N 
ATOM      4  C   UNL d   1      -3.458  -1.060   5.786  0.00  0.00     0.113 A 
ATOM      5  HN  UNL d   1      -2.592  -0.177   4.116  1.00  0.00     0.167 HD
ATOM      6  C   UNL d   1      -3.444  -1.304   7.159  0.00  0.00     0.021 A 
ATOM      7  C   UNL d   1      -2.486  -0.617   7.902  0.00  0.00     0.029 A 
ATOM      8  C   UNL d   1      -1.526   0.163   7.257  0.00  0.00     0.058 A 
BRANCH   6   9
ATOM      9  N   UNL d   1      -4.475  -2.005   7.792  0.00  0.00    -0.302 NA
ATOM     10  H   UNL d   1      -4.223  -2.382   8.700  0.00  0.00     0.124 HD
ATOM     11  H   UNL d   1      -4.926  -2.700   7.203  0.00  0.00     0.124 HD
ENDBRANCH   6   9
ENDBRANCH   1   2
BRANCH   1  12
ATOM     12  C   UNL d   1      -0.261   0.733   3.956  0.00  0.00     0.077 A 
ATOM     13  C   UNL d   1       0.103   1.814   3.153  0.00  0.00     0.038 A 
ATOM     14  C   UNL d   1       0.489   1.604   1.825  0.00  0.00     0.019 A 
ATOM     15  C   UNL d   1       0.523   0.307   1.287  0.00  0.00     0.048 A 
ATOM     16  C   UNL d   1       0.173  -0.773   2.108  0.00  0.00     0.019 A 
ATOM     17  C   UNL d   1      -0.198  -0.563   3.438  0.00  0.00     0.038 A 
BRANCH  15  18
ATOM     18  C   UNL d   1       0.945   0.087  -0.144  0.00  0.00     0.417 C 
ATOM     19  F   UNL d   1       0.947  -1.224  -0.518  0.00  0.00    -0.166 F 
ATOM     20  F   UNL d   1       2.204   0.544  -0.391  0.00  0.00    -0.166 F 
ATOM     21  F   UNL d   1       0.136   0.726  -1.034  0.00  0.00    -0.166 F 
ENDBRANCH  15  18
ENDBRANCH   1  12
TORSDOF 4
