REMARK  5 active torsions:
REMARK  status: ('A' for Active; 'I' for Inactive)
REMARK    1  A    between atoms: N_2  and  C_1 
REMARK    2  A    between atoms: C_3  and  C_6 
REMARK    3  A    between atoms: O_9  and  C_5 
REMARK    4  A    between atoms: C_7  and  C_11 
REMARK       I    between atoms: N_20  and  C_7 
REMARK    5  A    between atoms: C_21  and  O_9 
ROOT
ATOM      1  C   UNL d   1       0.066   0.683   0.740  0.00  0.00     0.137 A 
ATOM      2  C   UNL d   1      -0.607  -0.548   0.791  0.00  0.00     0.055 A 
ATOM      3  C   UNL d   1       1.101   0.919  -0.171  0.00  0.00     0.109 A 
ATOM      4  C   UNL d   1      -0.263  -1.565  -0.116  0.00  0.00     0.050 A 
ATOM      5  C   UNL d   1       1.379  -0.067  -1.124  0.00  0.00     0.040 A 
ATOM      6  C   UNL d   1       0.717  -1.299  -1.087  0.00  0.00     0.019 A 
ENDROOT
BRANCH   3   7
ATOM      7  O   UNL d   1       1.787   2.111  -0.123  0.00  0.00    -0.308 OA
BRANCH   7   8
ATOM      8  C   UNL d   1       3.136   2.123  -0.405  0.00  0.00     0.076 A 
ATOM      9  C   UNL d   1       3.613   3.252  -1.072  0.00  0.00     0.038 A 
ATOM     10  C   UNL d   1       4.968   3.354  -1.398  0.00  0.00     0.020 A 
ATOM     11  C   UNL d   1       5.858   2.335  -1.038  0.00  0.00     0.032 A 
ATOM     12  C   UNL d   1       5.380   1.206  -0.362  0.00  0.00     0.020 A 
ATOM     13  C   UNL d   1       4.027   1.112  -0.023  0.00  0.00     0.038 A 
BRANCH  11  14
ATOM     14  C   UNL d   1       7.293   2.490  -1.387  0.00  0.00     0.249 C 
ATOM     15  O   UNL d   1       7.656   3.188  -2.325  0.00  0.00    -0.268 OA
ATOM     16  N   UNL d   1       8.201   1.856  -0.587  0.00  0.00    -0.366 N 
ATOM     17  H   UNL d   1       7.958   1.502   0.328  0.00  0.00     0.159 HD
ATOM     18  H   UNL d   1       9.174   2.076  -0.756  0.00  0.00     0.159 HD
ENDBRANCH  11  14
ENDBRANCH   7   8
ENDBRANCH   3   7
BRANCH   1  19
ATOM     19  N   UNL d   1      -0.354   1.727   1.658  0.00  0.00    -0.113 N 
ATOM     20  O   UNL d   1      -0.417   1.422   2.858  0.00  0.00    -0.532 OA
ATOM     21  O   UNL d   1      -0.678   2.819   1.176  0.00  0.00    -0.532 OA
ENDBRANCH   1  19
BRANCH   4  22
ATOM     22  C   UNL d   1      -0.925  -2.922  -0.074  0.00  0.00     0.417 C 
ATOM     23  F   UNL d   1      -1.889  -3.027   0.879  0.00  0.00    -0.166 F 
ATOM     24  F   UNL d   1      -1.522  -3.244  -1.254  0.00  0.00    -0.166 F 
ATOM     25  F   UNL d   1      -0.033  -3.917   0.180  0.00  0.00    -0.166 F 
ENDBRANCH   4  22
TORSDOF 5
