REMARK  2 active torsions:
REMARK  status: ('A' for Active; 'I' for Inactive)
REMARK    1  A    between atoms: C_6  and  C_4 
REMARK    2  A    between atoms: O_21  and  C_16 
ROOT
ATOM      1  C   UNL d   1      -2.062   0.355   0.014  0.00  0.00    -0.006 C 
ATOM      2  C   UNL d   1      -1.092  -0.786  -0.016  0.00  0.00     0.189 C 
ATOM      3  C   UNL d   1       0.355  -0.421   0.020  0.00  0.00     0.021 A 
ATOM      4  C   UNL d   1      -3.262   0.173  -0.564  0.00  0.00     0.024 C 
ATOM      5  C   UNL d   1       0.760   0.924   0.014  0.00  0.00    -0.041 A 
ATOM      6  C   UNL d   1       1.317  -1.437   0.021  0.00  0.00     0.019 A 
ATOM      7  C   UNL d   1      -1.552   1.608   0.666  0.00  0.00     0.047 C 
ATOM      8  O   UNL d   1      -1.457  -1.952  -0.076  0.00  0.00    -0.287 OA
ATOM      9  C   UNL d   1       2.129   1.224  -0.041  0.00  0.00     0.044 A 
ATOM     10  C   UNL d   1      -0.247   2.043   0.009  0.00  0.00     0.044 C 
ATOM     11  C   UNL d   1       3.091   0.210  -0.054  0.00  0.00     0.068 A 
ATOM     12  C   UNL d   1       2.681  -1.122  -0.010  0.00  0.00     0.038 A 
ENDROOT
BRANCH   4  13
ATOM     13  C   UNL d   1      -4.267   1.239  -0.671  0.00  0.00    -0.014 A 
ATOM     14  C   UNL d   1      -4.307   2.133  -1.756  0.00  0.00     0.045 A 
ATOM     15  C   UNL d   1      -5.211   3.197  -1.766  0.00  0.00     0.048 A 
ATOM     16 CL   UNL d   1      -3.235   1.974  -3.105  0.00  0.00    -0.083 Cl
ATOM     17  C   UNL d   1      -6.084   3.367  -0.695  0.00  0.00     0.035 A 
ATOM     18  C   UNL d   1      -6.075   2.475   0.376  0.00  0.00     0.024 A 
ATOM     19 CL   UNL d   1      -7.173   4.699  -0.685  0.00  0.00    -0.084 Cl
ATOM     20  C   UNL d   1      -5.168   1.412   0.388  0.00  0.00     0.015 A 
ENDBRANCH   4  13
BRANCH  11  21
ATOM     21  O   UNL d   1       4.381   0.658  -0.114  0.00  0.00    -0.356 OA
ATOM     22  C   UNL d   1       5.405  -0.328  -0.169  0.00  0.00     0.210 C 
ENDBRANCH  11  21
TORSDOF 2
