REMARK  3 active torsions:
REMARK  status: ('A' for Active; 'I' for Inactive)
REMARK    1  A    between atoms: C_11  and  N_1 
REMARK    2  A    between atoms: N_6  and  C_8 
REMARK    3  A    between atoms: C_19  and  C_11 
ROOT
ATOM      1  N   UNL d   1       2.265  -0.104   0.132  0.00  0.00    -0.276 N 
ATOM      2  C   UNL d   1       1.680   1.158   0.073  0.00  0.00     0.262 A 
ATOM      3  C   UNL d   1       1.562  -1.307   0.111  0.00  0.00     0.261 A 
ATOM      4  C   UNL d   1       0.203   1.217  -0.004  0.00  0.00     0.047 A 
ATOM      5  C   UNL d   1       0.082  -1.221   0.059  0.00  0.00     0.044 A 
ATOM      6  C   UNL d   1      -0.541   0.032   0.013  0.00  0.00     0.006 A 
ATOM      7  C   UNL d   1      -1.827   2.526  -0.092  0.00  0.00     0.104 A 
ATOM      8  C   UNL d   1      -0.432   2.466  -0.065  0.00  0.00     0.054 A 
ATOM      9  C   UNL d   1      -1.957   0.101  -0.009  0.00  0.00    -0.021 A 
ATOM     10  C   UNL d   1      -2.591   1.351  -0.058  0.00  0.00     0.048 A 
ATOM     11  O   UNL d   1       2.097  -2.411   0.154  0.00  0.00    -0.267 OA
ATOM     12  O   UNL d   1       2.309   2.212   0.102  0.00  0.00    -0.267 OA
ATOM     13  C   UNL d   1      -0.680  -2.396   0.075  0.00  0.00     0.018 A 
ATOM     14  C   UNL d   1      -2.706  -1.086   0.023  0.00  0.00     0.012 A 
ATOM     15  C   UNL d   1      -2.071  -2.326   0.061  0.00  0.00     0.002 A 
ENDROOT
BRANCH   1  16
ATOM     16  C   UNL d   1       3.721  -0.174   0.252  0.00  0.00     0.175 C 
BRANCH  16  17
ATOM     17  C   UNL d   1       4.415  -0.192  -1.085  0.00  0.00    -0.024 A 
ATOM     18  C   UNL d   1       4.803  -1.389  -1.679  0.00  0.00     0.096 A 
ATOM     19  N   UNL d   1       5.392  -1.477  -2.895  0.00  0.00    -0.375 N 
ATOM     20  C   UNL d   1       5.599  -0.318  -3.556  0.00  0.00     0.087 A 
ATOM     21  HN  UNL d   1       5.667  -2.375  -3.292  1.00  0.00     0.164 HD
ATOM     22  C   UNL d   1       5.264   0.926  -3.050  0.00  0.00     0.018 A 
ATOM     23  C   UNL d   1       4.670   0.986  -1.793  0.00  0.00     0.011 A 
ENDBRANCH  16  17
ENDBRANCH   1  16
BRANCH   7  24
ATOM     24  N   UNL d   1      -2.501   3.830  -0.148  0.00  0.00    -0.116 N 
ATOM     25  O   UNL d   1      -1.790   4.844  -0.184  0.00  0.00    -0.532 OA
ATOM     26  O   UNL d   1      -3.738   3.836  -0.155  0.00  0.00    -0.532 OA
ENDBRANCH   7  24
TORSDOF 3
