REMARK  6 active torsions:
REMARK  status: ('A' for Active; 'I' for Inactive)
REMARK    1  A    between atoms: C_3  and  S_1 
REMARK    2  A    between atoms: C_7  and  S_1 
REMARK       I    between atoms: C_2  and  N_9 
REMARK    3  A    between atoms: C_4  and  C_2 
REMARK    4  A    between atoms: C_12  and  C_3 
REMARK    5  A    between atoms: C_13  and  C_7 
REMARK    6  A    between atoms: N_9  and  C_12 
ROOT
ATOM      1  C   UNL d   1       0.229  -1.485  -0.414  0.00  0.00     0.160 C 
ENDROOT
BRANCH   1   2
ATOM      2  S   UNL d   1       0.921   0.093   0.040  0.00  0.00     0.150 S 
ATOM      3  O   UNL d   1       0.369   1.072  -0.880  0.00  0.00    -0.228 OA
ATOM      4  O   UNL d   1       2.354  -0.081   0.177  0.00  0.00    -0.228 OA
BRANCH   2   5
ATOM      5  C   UNL d   1       0.212   0.365   1.663  0.00  0.00     0.178 C 
BRANCH   5   6
ATOM      6  C   UNL d   1       0.678   1.688   2.221  0.00  0.00    -0.044 A 
ATOM      7  C   UNL d   1      -0.030   2.869   1.945  0.00  0.00     0.011 A 
ATOM      8  C   UNL d   1       0.383   4.087   2.491  0.00  0.00     0.043 A 
ATOM      9  C   UNL d   1       1.506   4.126   3.308  0.00  0.00     0.116 A 
ATOM     10  C   UNL d   1       2.230   2.974   3.582  0.00  0.00     0.043 A 
ATOM     11  F   UNL d   1       1.895   5.293   3.840  0.00  0.00    -0.206 F 
ATOM     12  C   UNL d   1       1.820   1.755   3.036  0.00  0.00     0.011 A 
ENDBRANCH   5   6
ENDBRANCH   2   5
ENDBRANCH   1   2
BRANCH   1  13
ATOM     13  C   UNL d   1       0.729  -1.908  -1.788  0.00  0.00     0.138 C 
BRANCH  13  14
ATOM     14  N   UNL d   1       0.112  -3.139  -2.270  0.00  0.00    -0.356 N 
ATOM     15  C   UNL d   1       0.382  -4.353  -1.668  0.00  0.00     0.251 C 
ATOM     16  O   UNL d   1       1.058  -4.459  -0.651  0.00  0.00    -0.268 OA
ATOM     17  H   UNL d   1      -0.202  -3.151  -3.233  0.00  0.00     0.162 HD
BRANCH  15  18
ATOM     18  C   UNL d   1      -0.182  -5.570  -2.317  0.00  0.00     0.032 A 
ATOM     19  C   UNL d   1       0.476  -6.793  -2.124  0.00  0.00     0.018 A 
ATOM     20  C   UNL d   1      -0.051  -7.971  -2.660  0.00  0.00     0.025 A 
ATOM     21  C   UNL d   1      -1.241  -7.929  -3.384  0.00  0.00     0.034 A 
ATOM     22  C   UNL d   1      -1.903  -6.717  -3.584  0.00  0.00     0.025 A 
ATOM     23 CL   UNL d   1      -1.910  -9.382  -4.016  0.00  0.00    -0.084 Cl
ATOM     24  C   UNL d   1      -1.375  -5.536  -3.051  0.00  0.00     0.018 A 
ENDBRANCH  15  18
ENDBRANCH  13  14
ENDBRANCH   1  13
TORSDOF 6
