REMARK  3 active torsions:
REMARK  status: ('A' for Active; 'I' for Inactive)
REMARK    1  A    between atoms: C_3  and  C_1 
REMARK    2  A    between atoms: O_5  and  C_3 
REMARK    3  A    between atoms: C_8  and  O_5 
ROOT
ATOM      1  C   UNL d   1       3.471  -1.264   0.230  0.00  0.00     0.305 C 
ATOM      2  O   UNL d   1       3.836  -2.371   0.623  0.00  0.00    -0.258 OA
ENDROOT
BRANCH   1   3
ATOM      3  C   UNL d   1       2.097  -0.806   0.170  0.00  0.00     0.082 A 
ATOM      4  S   UNL d   1       1.708   0.837  -0.102  0.00  0.00    -0.084 SA
ATOM      5  C   UNL d   1       0.019   0.548  -0.015  0.00  0.00     0.016 A 
ATOM      6  C   UNL d   1      -1.008   1.499  -0.169  0.00  0.00     0.019 A 
ATOM      7  C   UNL d   1      -0.255  -0.797   0.231  0.00  0.00    -0.018 A 
ATOM      8  C   UNL d   1      -2.334   1.072  -0.109  0.00  0.00     0.001 A 
ATOM      9  C   UNL d   1      -2.634  -0.265   0.116  0.00  0.00     0.001 A 
ATOM     10  C   UNL d   1      -1.610  -1.200   0.300  0.00  0.00     0.013 A 
ATOM     11  C   UNL d   1       0.956  -1.556   0.374  0.00  0.00     0.038 A 
ENDBRANCH   1   3
BRANCH   1  12
ATOM     12  O   UNL d   1       4.340  -0.271  -0.210  0.00  0.00    -0.273 OA
BRANCH  12  13
ATOM     13  C   UNL d   1       5.494   0.095   0.519  0.00  0.00     0.101 A 
ATOM     14  C   UNL d   1       6.312   1.081  -0.054  0.00  0.00     0.070 A 
ATOM     15  C   UNL d   1       7.353   1.638   0.686  0.00  0.00     0.069 A 
ATOM     16 CL   UNL d   1       6.034   1.665  -1.654  0.00  0.00    -0.081 Cl
ATOM     17  C   UNL d   1       7.569   1.198   1.986  0.00  0.00     0.118 A 
ATOM     18  C   UNL d   1       6.784   0.198   2.551  0.00  0.00     0.045 A 
ATOM     19  F   UNL d   1       8.541   1.759   2.716  0.00  0.00    -0.206 F 
ATOM     20  C   UNL d   1       5.737  -0.360   1.818  0.00  0.00     0.042 A 
ENDBRANCH  12  13
ENDBRANCH   1  12
TORSDOF 3
