REMARK  3 active torsions:
REMARK  status: ('A' for Active; 'I' for Inactive)
REMARK    1  A    between atoms: C_10  and  N_1 
REMARK    2  A    between atoms: N_7  and  C_9 
REMARK    3  A    between atoms: C_19  and  C_10 
ROOT
ATOM      1  N   UNL d   1       2.247  -0.128   0.150  0.00  0.00    -0.276 N 
ATOM      2  C   UNL d   1       1.529  -1.320   0.170  0.00  0.00     0.261 A 
ATOM      3  C   UNL d   1       1.676   1.138   0.061  0.00  0.00     0.261 A 
ATOM      4  C   UNL d   1       0.050  -1.222   0.095  0.00  0.00     0.044 A 
ATOM      5  C   UNL d   1      -0.571   0.037   0.038  0.00  0.00     0.008 A 
ATOM      6  C   UNL d   1       0.196   1.210   0.009  0.00  0.00     0.044 A 
ATOM      7  C   UNL d   1      -1.991   0.125   0.011  0.00  0.00     0.009 A 
ATOM      8  C   UNL d   1      -2.718  -1.095   0.043  0.00  0.00     0.114 A 
ATOM      9  C   UNL d   1      -0.706  -2.405   0.104  0.00  0.00     0.020 A 
ATOM     10  C   UNL d   1      -2.094  -2.347   0.076  0.00  0.00     0.038 A 
ATOM     11  O   UNL d   1       2.048  -2.429   0.268  0.00  0.00    -0.267 OA
ATOM     12  O   UNL d   1       2.326   2.180   0.039  0.00  0.00    -0.267 OA
ATOM     13  C   UNL d   1      -0.412   2.470  -0.056  0.00  0.00     0.018 A 
ATOM     14  C   UNL d   1      -2.575   1.416  -0.057  0.00  0.00     0.015 A 
ATOM     15  C   UNL d   1      -1.796   2.572  -0.089  0.00  0.00     0.002 A 
ENDROOT
BRANCH   1  16
ATOM     16  C   UNL d   1       3.700  -0.214   0.257  0.00  0.00     0.175 C 
BRANCH  16  17
ATOM     17  C   UNL d   1       4.375  -0.379  -1.079  0.00  0.00    -0.024 A 
ATOM     18  C   UNL d   1       4.738  -1.638  -1.549  0.00  0.00     0.096 A 
ATOM     19  N   UNL d   1       5.336  -1.860  -2.742  0.00  0.00    -0.375 N 
ATOM     20  C   UNL d   1       5.578  -0.777  -3.511  0.00  0.00     0.087 A 
ATOM     21  HN  UNL d   1       5.591  -2.799  -3.046  1.00  0.00     0.164 HD
ATOM     22  C   UNL d   1       5.257   0.517  -3.140  0.00  0.00     0.018 A 
ATOM     23  C   UNL d   1       4.647   0.716  -1.905  0.00  0.00     0.011 A 
ENDBRANCH  16  17
ENDBRANCH   1  16
BRANCH   8  24
ATOM     24  N   UNL d   1      -4.173  -1.094   0.058  0.00  0.00    -0.115 N 
ATOM     25  O   UNL d   1      -4.732  -0.519   1.002  0.00  0.00    -0.532 OA
ATOM     26  O   UNL d   1      -4.744  -1.693  -0.862  0.00  0.00    -0.532 OA
ENDBRANCH   8  24
TORSDOF 3
