REMARK  8 active torsions:
REMARK  status: ('A' for Active; 'I' for Inactive)
REMARK    1  A    between atoms: N_2  and  C_1 
REMARK    2  A    between atoms: C_3  and  C_1 
REMARK    3  A    between atoms: C_4  and  C_1 
REMARK    4  A    between atoms: N_5  and  C_1 
REMARK       I    between atoms: C_6  and  N_2 
REMARK    5  A    between atoms: C_16  and  N_5 
REMARK    6  A    between atoms: O_18  and  C_6 
REMARK    7  A    between atoms: C_17  and  C_16 
REMARK    8  A    between atoms: C_20  and  O_18 
ROOT
ATOM      1  C   UNL d   1       0.964   0.011  -0.021  0.00  0.00     0.427 C 
ENDROOT
BRANCH   1   2
ATOM      2  N   UNL d   1       0.547  -1.280   0.542  0.00  0.00    -0.286 N 
ATOM      3  C   UNL d   1      -0.645  -1.498   1.125  0.00  0.00     0.363 C 
ATOM      4  O   UNL d   1      -1.573  -0.716   1.126  0.00  0.00    -0.238 OA
ATOM      5  H   UNL d   1       1.227  -2.024   0.555  0.00  0.00     0.168 HD
BRANCH   3   6
ATOM      6  O   UNL d   1      -0.566  -2.649   1.835  0.00  0.00    -0.304 OA
BRANCH   6   7
ATOM      7  C   UNL d   1      -1.493  -2.733   2.928  0.00  0.00     0.176 C 
ATOM      8  C   UNL d   1      -0.932  -1.946   4.106  0.00  0.00     0.034 C 
ENDBRANCH   6   7
ENDBRANCH   3   6
ENDBRANCH   1   2
BRANCH   1   9
ATOM      9  C   UNL d   1       0.467   1.293   0.742  0.00  0.00     0.452 C 
ATOM     10  F   UNL d   1       0.593   1.129   2.088  0.00  0.00    -0.166 F 
ATOM     11  F   UNL d   1       1.235   2.361   0.412  0.00  0.00    -0.166 F 
ATOM     12  F   UNL d   1      -0.812   1.648   0.522  0.00  0.00    -0.166 F 
ENDBRANCH   1   9
BRANCH   1  13
ATOM     13  C   UNL d   1       0.476   0.233  -1.496  0.00  0.00     0.452 C 
ATOM     14  F   UNL d   1       0.218  -0.952  -2.111  0.00  0.00    -0.166 F 
ATOM     15  F   UNL d   1      -0.626   0.991  -1.641  0.00  0.00    -0.166 F 
ATOM     16  F   UNL d   1       1.455   0.830  -2.229  0.00  0.00    -0.166 F 
ENDBRANCH   1  13
BRANCH   1  17
ATOM     17  N   UNL d   1       2.468  -0.201   0.009  0.00  0.00     0.137 N 
ATOM     18  H   UNL d   1       2.892   0.559  -0.542  0.00  0.00     0.320 HD
BRANCH  17  19
ATOM     19  C   UNL d   1       3.066  -0.098   1.353  0.00  0.00     0.330 C 
BRANCH  19  20
ATOM     20  C   UNL d   1       4.575  -0.033   1.265  0.00  0.00     0.037 A 
ATOM     21  N   UNL d   1       5.095   1.118   0.763  0.00  0.00    -0.368 N 
ATOM     22  C   UNL d   1       6.440   1.205   0.685  0.00  0.00     0.088 A 
ATOM     23  HN  UNL d   1       4.494   1.883   0.458  1.00  0.00     0.165 HD
ATOM     24  C   UNL d   1       7.300   0.193   1.073  0.00  0.00     0.017 A 
ATOM     25  C   UNL d   1       6.750  -0.983   1.571  0.00  0.00     0.003 A 
ATOM     26  C   UNL d   1       5.367  -1.104   1.669  0.00  0.00     0.027 A 
ENDBRANCH  19  20
ENDBRANCH  17  19
ENDBRANCH   1  17
TORSDOF 8
