REMARK  5 active torsions:
REMARK  status: ('A' for Active; 'I' for Inactive)
REMARK    1  A    between atoms: C_5  and  N_1 
REMARK    2  A    between atoms: C_2  and  C_6 
REMARK    3  A    between atoms: N_7  and  C_5 
REMARK    4  A    between atoms: C_8  and  N_7 
REMARK    5  A    between atoms: O_20  and  C_16 
ROOT
ATOM      1  C   UNL d   1      -1.020   6.372  -1.211  0.00  0.00     0.052 A 
ATOM      2  C   UNL d   1      -1.580   4.162  -0.330  0.00  0.00     0.013 A 
ATOM      3  C   UNL d   1      -0.863   4.976  -1.214  0.00  0.00     0.039 A 
ATOM      4  C   UNL d   1      -1.942   6.947  -0.325  0.00  0.00     0.053 A 
ATOM      5  C   UNL d   1      -2.534   4.764   0.503  0.00  0.00     0.060 A 
ATOM      6  C   UNL d   1      -2.701   6.151   0.530  0.00  0.00     0.070 A 
ENDROOT
BRANCH   2   7
ATOM      7  N   UNL d   1      -1.390   2.768  -0.411  0.00  0.00    -0.276 NA
ATOM      8  H   UNL d   1      -1.976   2.401  -1.166  0.00  0.00     0.129 HD
BRANCH   7   9
ATOM      9  C   UNL d   1      -1.660   2.013   0.807  0.00  0.00     0.229 C 
BRANCH   9  10
ATOM     10  N   UNL d   1      -1.364   0.628   0.577  0.00  0.00    -0.275 N 
ATOM     11  C   UNL d   1      -2.080  -0.143  -0.285  0.00  0.00     0.227 C 
ATOM     12  C   UNL d   1      -1.647  -1.570  -0.147  0.00  0.00     0.112 C 
ATOM     13  O   UNL d   1      -2.970   0.240  -1.036  0.00  0.00    -0.273 OA
ATOM     14  C   UNL d   1      -0.729  -1.563   1.060  0.00  0.00     0.112 C 
ATOM     15  C   UNL d   1      -0.685  -0.126   1.486  0.00  0.00     0.227 C 
ATOM     16  O   UNL d   1      -0.176   0.259   2.528  0.00  0.00    -0.273 OA
ENDBRANCH   9  10
ENDBRANCH   7   9
ENDBRANCH   2   7
BRANCH   1  17
ATOM     17  C   UNL d   1      -0.215   7.254  -2.129  0.00  0.00     0.417 C 
ATOM     18  F   UNL d   1       0.668   6.573  -2.912  0.00  0.00    -0.166 F 
ATOM     19  F   UNL d   1      -0.997   7.967  -2.986  0.00  0.00    -0.166 F 
ATOM     20  F   UNL d   1       0.526   8.174  -1.449  0.00  0.00    -0.166 F 
ENDBRANCH   1  17
BRANCH   6  21
ATOM     21  O   UNL d   1      -3.564   6.834   1.343  0.00  0.00    -0.356 OA
ATOM     22  C   UNL d   1      -4.325   6.065   2.269  0.00  0.00     0.210 C 
ENDBRANCH   6  21
TORSDOF 5
