REMARK  9 active torsions:
REMARK  status: ('A' for Active; 'I' for Inactive)
REMARK    1  A    between atoms: C_3  and  N_1 
REMARK    2  A    between atoms: C_8  and  N_2 
REMARK    3  A    between atoms: C_6  and  C_3 
REMARK    4  A    between atoms: C_7  and  C_3 
REMARK    5  A    between atoms: C_12  and  C_8 
REMARK    6  A    between atoms: O_11  and  C_15 
REMARK    7  A    between atoms: C_13  and  O_11 
REMARK    8  A    between atoms: C_15  and  C_12 
REMARK    9  A    between atoms: O_21  and  C_12 
ROOT
ATOM      1  N   UNL d   1      -1.544   0.180   0.212  0.00  0.00     0.105 N 
ATOM      2  N   UNL d   1       1.476   0.227  -0.365  0.00  0.00     0.094 N 
ATOM      3  C   UNL d   1      -0.757  -0.989  -0.246  0.00  0.00     0.304 C 
ATOM      4  C   UNL d   1      -0.827   1.400  -0.248  0.00  0.00     0.304 C 
ATOM      5  C   UNL d   1       0.739  -0.953   0.154  0.00  0.00     0.302 C 
ATOM      6  C   UNL d   1       0.709   1.440   0.002  0.00  0.00     0.302 C 
ENDROOT
BRANCH   1   7
ATOM      7  C   UNL d   1      -1.782   0.160   1.689  0.00  0.00     0.289 C 
BRANCH   7   8
ATOM      8  C   UNL d   1      -2.632   1.337   2.189  0.00  0.00    -0.021 A 
ATOM      9  C   UNL d   1      -3.925   1.578   1.695  0.00  0.00     0.010 A 
ATOM     10  C   UNL d   1      -4.713   2.603   2.224  0.00  0.00     0.001 A 
ATOM     11  C   UNL d   1      -4.215   3.412   3.243  0.00  0.00     0.000 A 
ATOM     12  C   UNL d   1      -2.929   3.198   3.734  0.00  0.00     0.001 A 
ATOM     13  C   UNL d   1      -2.143   2.167   3.214  0.00  0.00     0.010 A 
ENDBRANCH   7   8
BRANCH   7  14
ATOM     14  C   UNL d   1      -2.407  -1.153   2.206  0.00  0.00    -0.021 A 
ATOM     15  C   UNL d   1      -1.997  -1.677   3.443  0.00  0.00     0.010 A 
ATOM     16  C   UNL d   1      -2.557  -2.856   3.942  0.00  0.00     0.001 A 
ATOM     17  C   UNL d   1      -3.535  -3.528   3.214  0.00  0.00     0.000 A 
ATOM     18  C   UNL d   1      -3.965  -3.018   1.991  0.00  0.00     0.001 A 
ATOM     19  C   UNL d   1      -3.415  -1.834   1.497  0.00  0.00     0.010 A 
ENDBRANCH   7  14
ENDBRANCH   1   7
BRANCH   2  20
ATOM     20  C   UNL d   1       1.686   0.062  -1.816  0.00  0.00     0.306 C 
BRANCH  20  21
ATOM     21  C   UNL d   1       2.531   1.093  -2.596  0.00  0.00     0.170 C 
BRANCH  21  22
ATOM     22  C   UNL d   1       3.974   1.256  -2.092  0.00  0.00     0.209 C 
BRANCH  22  23
ATOM     23  O   UNL d   1       4.609   2.252  -2.911  0.00  0.00    -0.349 OA
BRANCH  23  24
ATOM     24  C   UNL d   1       5.947   2.462  -2.750  0.00  0.00     0.069 A 
ATOM     25  C   UNL d   1       6.740   1.949  -1.722  0.00  0.00     0.038 A 
ATOM     26  C   UNL d   1       8.106   2.257  -1.664  0.00  0.00     0.026 A 
ATOM     27  C   UNL d   1       8.678   3.081  -2.630  0.00  0.00     0.034 A 
ATOM     28  C   UNL d   1       7.901   3.601  -3.661  0.00  0.00     0.026 A 
ATOM     29 CL   UNL d   1      10.354   3.458  -2.548  0.00  0.00    -0.084 Cl
ATOM     30  C   UNL d   1       6.538   3.291  -3.715  0.00  0.00     0.038 A 
ENDBRANCH  23  24
ENDBRANCH  22  23
ENDBRANCH  21  22
BRANCH  21  31
ATOM     31  O   UNL d   1       2.547   0.654  -3.972  0.00  0.00    -0.392 OA
ATOM     32  H   UNL d   1       3.112  -0.139  -4.026  0.00  0.00     0.210 HD
ENDBRANCH  21  31
ENDBRANCH  20  21
ENDBRANCH   2  20
TORSDOF 9
