REMARK  9 active torsions:
REMARK  status: ('A' for Active; 'I' for Inactive)
REMARK    1  A    between atoms: C_2  and  S_1 
REMARK    2  A    between atoms: N_6  and  S_1 
REMARK    3  A    between atoms: C_7  and  C_3 
REMARK    4  A    between atoms: C_9  and  C_4 
REMARK    5  A    between atoms: C_5  and  N_6 
REMARK    6  A    between atoms: O_20  and  C_7 
REMARK    7  A    between atoms: O_21  and  C_9 
REMARK    8  A    between atoms: O_22  and  C_13 
REMARK    9  A    between atoms: O_23  and  C_16 
ROOT
ATOM      1  C   UNL d   1       2.337  -0.833   2.874  0.00  0.00     0.069 A 
ATOM      2  C   UNL d   1       1.011  -0.520   2.544  0.00  0.00     0.061 A 
ATOM      3  C   UNL d   1       2.588  -1.716   3.933  0.00  0.00     0.059 A 
ATOM      4  C   UNL d   1      -0.040  -1.008   3.342  0.00  0.00     0.070 A 
ATOM      5  C   UNL d   1       1.541  -2.260   4.683  0.00  0.00     0.102 A 
ATOM      6  C   UNL d   1       0.217  -1.862   4.428  0.00  0.00     0.103 A 
ENDROOT
BRANCH   2   7
ATOM      7  N   UNL d   1       0.709   0.274   1.397  0.00  0.00    -0.279 N 
ATOM      8  H   UNL d   1       0.210  -0.146   0.607  0.00  0.00     0.179 HD
BRANCH   7   9
ATOM      9  S   UNL d   1       0.437   1.912   1.561  0.00  0.00     0.264 S 
ATOM     10  O   UNL d   1      -0.903   2.195   1.090  0.00  0.00    -0.200 OA
ATOM     11  O   UNL d   1       0.895   2.353   2.860  0.00  0.00    -0.200 OA
BRANCH   9  12
ATOM     12  C   UNL d   1       1.443   2.780   0.434  0.00  0.00     0.103 A 
ATOM     13  C   UNL d   1       1.506   2.548  -0.933  0.00  0.00     0.103 A 
ATOM     14  S   UNL d   1       2.568   3.682  -1.689  0.00  0.00    -0.094 SA
ATOM     15  C   UNL d   1       2.928   4.459  -0.218  0.00  0.00     0.052 A 
ATOM     16  C   UNL d   1       2.270   3.880   0.840  0.00  0.00     0.034 A 
BRANCH  13  17
ATOM     17  C   UNL d   1       0.826   1.531  -1.723  0.00  0.00     0.301 C 
ATOM     18  O   UNL d   1       0.183   0.594  -1.268  0.00  0.00    -0.259 OA
BRANCH  17  19
ATOM     19  O   UNL d   1       0.989   1.766  -3.059  0.00  0.00    -0.322 OA
ATOM     20  C   UNL d   1       0.390   0.860  -3.986  0.00  0.00     0.213 C 
ENDBRANCH  17  19
ENDBRANCH  13  17
ENDBRANCH   9  12
ENDBRANCH   7   9
ENDBRANCH   2   7
BRANCH   1  21
ATOM     21  C   UNL d   1       3.477  -0.274   2.101  0.00  0.00     0.295 C 
ATOM     22  O   UNL d   1       3.443   0.038   0.921  0.00  0.00    -0.259 OA
BRANCH  21  23
ATOM     23  O   UNL d   1       4.545  -0.139   2.928  0.00  0.00    -0.322 OA
ATOM     24  C   UNL d   1       5.720   0.433   2.350  0.00  0.00     0.213 C 
ENDBRANCH  21  23
ENDBRANCH   1  21
BRANCH   6  25
ATOM     25  O   UNL d   1      -0.739  -2.341   5.282  0.00  0.00    -0.353 OA
ATOM     26  C   UNL d   1      -2.061  -1.835   5.186  0.00  0.00     0.210 C 
ENDBRANCH   6  25
BRANCH   5  27
ATOM     27  O   UNL d   1       1.961  -3.124   5.663  0.00  0.00    -0.353 OA
ATOM     28  C   UNL d   1       1.114  -4.242   5.920  0.00  0.00     0.210 C 
ENDBRANCH   5  27
TORSDOF 9
