REMARK  3 active torsions:
REMARK  status: ('A' for Active; 'I' for Inactive)
REMARK    1  A    between atoms: C_6  and  C_1 
REMARK    2  A    between atoms: C_9  and  N_2 
REMARK    3  A    between atoms: O_14  and  C_5 
ROOT
ATOM      1  N   UNL d   1       0.753   4.303   0.036  0.00  0.00    -0.365 N 
ATOM      2  HN  UNL d   1       0.792   3.779   0.910  1.00  0.00     0.165 HD
ATOM      3  C   UNL d   1       0.919   3.706  -1.103  0.00  0.00     0.102 C 
ENDROOT
BRANCH   3   4
ATOM      4  C   UNL d   1       1.189   2.256  -1.195  0.00  0.00     0.016 A 
ATOM      5  C   UNL d   1       1.563   1.688  -2.417  0.00  0.00     0.099 A 
ATOM      6  C   UNL d   1       1.808   0.313  -2.498  0.00  0.00     0.069 A 
ATOM      7 CL   UNL d   1       2.277  -0.402  -3.998  0.00  0.00    -0.081 Cl
ATOM      8  C   UNL d   1       1.681  -0.497  -1.371  0.00  0.00     0.050 A 
ATOM      9  C   UNL d   1       1.311   0.078  -0.156  0.00  0.00     0.036 A 
ATOM     10  C   UNL d   1       1.068   1.448  -0.058  0.00  0.00     0.039 A 
ATOM     11 CL   UNL d   1       1.149  -0.919   1.237  0.00  0.00    -0.084 Cl
BRANCH   5  12
ATOM     12  O   UNL d   1       1.700   2.484  -3.526  0.00  0.00    -0.358 OA
ATOM     13  H   UNL d   1       1.978   1.915  -4.269  0.00  0.00     0.217 HD
ENDBRANCH   5  12
ENDBRANCH   3   4
BRANCH   1  14
ATOM     14  C   UNL d   1       0.519   5.698   0.040  0.00  0.00     0.038 A 
ATOM     15  C   UNL d   1      -0.433   6.258   0.925  0.00  0.00    -0.029 A 
ATOM     16  C   UNL d   1      -0.655   7.660   0.922  0.00  0.00    -0.054 A 
ATOM     17  C   UNL d   1      -1.210   5.373   1.867  0.00  0.00     0.051 C 
ATOM     18  C   UNL d   1      -1.642   8.348   1.827  0.00  0.00     0.049 C 
ATOM     19  C   UNL d   1       0.090   8.476   0.056  0.00  0.00     0.007 A 
ATOM     20  C   UNL d   1       1.049   7.930  -0.788  0.00  0.00     0.003 A 
ATOM     21  C   UNL d   1       1.268   6.556  -0.782  0.00  0.00     0.030 A 
ENDBRANCH   1  14
TORSDOF 3
