REMARK  7 active torsions:
REMARK  status: ('A' for Active; 'I' for Inactive)
REMARK    1  A    between atoms: C_5  and  C_1 
REMARK    2  A    between atoms: O_12  and  C_5 
REMARK    3  A    between atoms: C_8  and  O_14 
REMARK    4  A    between atoms: N_9  and  O_12 
REMARK    5  A    between atoms: C_13  and  C_11 
REMARK    6  A    between atoms: N_21  and  C_11 
REMARK    7  A    between atoms: O_14  and  C_22 
ROOT
ATOM      1  N   UNL d   1      -2.377   2.536  -0.227  0.00  0.00    -0.246 N 
ATOM      2  HN  UNL d   1      -1.537   3.052  -0.489  1.00  0.00     0.196 HD
ATOM      3  C   UNL d   1      -3.520   3.093   0.042  0.00  0.00     0.109 C 
ENDROOT
BRANCH   3   4
ATOM      4  C   UNL d   1      -3.589   4.590   0.033  0.00  0.00     0.004 A 
ATOM      5  C   UNL d   1      -2.708   5.340  -0.754  0.00  0.00     0.017 A 
ATOM      6  C   UNL d   1      -2.783   6.741  -0.768  0.00  0.00     0.038 A 
ATOM      7  C   UNL d   1      -3.747   7.398  -0.004  0.00  0.00     0.078 A 
ATOM      8  C   UNL d   1      -4.597   6.645   0.814  0.00  0.00     0.038 A 
ATOM      9  C   UNL d   1      -4.527   5.250   0.832  0.00  0.00     0.017 A 
BRANCH   7  10
ATOM     10  O   UNL d   1      -3.976   8.740   0.053  0.00  0.00    -0.255 OA
BRANCH  10  11
ATOM     11  C   UNL d   1      -3.397   9.582  -0.931  0.00  0.00     0.530 C 
ATOM     12  F   UNL d   1      -3.407   9.024  -2.160  0.00  0.00    -0.144 F 
ATOM     13  F   UNL d   1      -4.122  10.722  -0.990  0.00  0.00    -0.144 F 
ATOM     14  F   UNL d   1      -2.132   9.901  -0.589  0.00  0.00    -0.144 F 
ENDBRANCH  10  11
ENDBRANCH   7  10
ENDBRANCH   3   4
BRANCH   3  15
ATOM     15  N   UNL d   1      -4.666   2.383   0.324  0.00  0.00    -0.286 NA
ATOM     16  H   UNL d   1      -4.606   1.417   0.030  0.00  0.00     0.125 HD
ATOM     17  H   UNL d   1      -5.531   2.818   0.022  0.00  0.00     0.125 HD
ENDBRANCH   3  15
BRANCH   1  18
ATOM     18  O   UNL d   1      -2.439   1.131  -0.114  0.00  0.00    -0.193 OA
BRANCH  18  19
ATOM     19  C   UNL d   1      -1.199   0.577  -0.333  0.00  0.00     0.319 C 
ATOM     20  O   UNL d   1      -0.201   1.193  -0.700  0.00  0.00    -0.257 OA
BRANCH  19  21
ATOM     21  C   UNL d   1      -1.168  -0.848  -0.091  0.00  0.00     0.096 A 
ATOM     22  C   UNL d   1      -2.178  -1.680   0.352  0.00  0.00     0.090 A 
ATOM     23  O   UNL d   1      -1.715  -2.953   0.442  0.00  0.00    -0.242 OA
ATOM     24  C   UNL d   1      -3.590  -1.491   0.738  0.00  0.00     0.080 C 
ATOM     25  N   UNL d   1      -0.389  -2.997   0.067  0.00  0.00    -0.265 N 
ATOM     26  C   UNL d   1      -0.061  -1.736  -0.243  0.00  0.00     0.047 A 
ATOM     27  HN  UNL d   1       0.216  -3.818   0.033  1.00  0.00     0.194 HD
ATOM     28  C   UNL d   1       1.324  -1.423  -0.683  0.00  0.00     0.071 C 
ENDBRANCH  19  21
ENDBRANCH  18  19
ENDBRANCH   1  18
TORSDOF 7
