REMARK  2 active torsions:
REMARK  status: ('A' for Active; 'I' for Inactive)
REMARK       I    between atoms: N_2  and  C_1 
REMARK       I    between atoms: N_3  and  C_1 
REMARK    1  A    between atoms: C_5  and  N_2 
REMARK    2  A    between atoms: C_6  and  N_3 
ROOT
ATOM      1  C   UNL d   1       1.088   0.161   0.003  0.00  0.00     0.325 C 
ATOM      2  N   UNL d   1       0.464  -0.934   0.583  0.00  0.00    -0.309 N 
ATOM      3  N   UNL d   1       0.197   0.909  -0.755  0.00  0.00    -0.309 N 
ATOM      4  O   UNL d   1       2.275   0.430   0.121  0.00  0.00    -0.247 OA
ATOM      5  H   UNL d   1      -0.427  -1.195   0.191  0.00  0.00     0.170 HD
ATOM      6  H   UNL d   1      -0.770   0.880  -0.472  0.00  0.00     0.170 HD
ENDROOT
BRANCH   2   7
ATOM      7  C   UNL d   1       1.099  -1.890   1.411  0.00  0.00     0.036 A 
ATOM      8  C   UNL d   1       2.350  -1.685   1.997  0.00  0.00     0.030 A 
ATOM      9  C   UNL d   1       2.960  -2.685   2.758  0.00  0.00     0.009 A 
ATOM     10  C   UNL d   1       2.322  -3.909   2.962  0.00  0.00    -0.062 A 
ATOM     11  C   UNL d   1       1.051  -4.107   2.412  0.00  0.00     0.009 A 
ATOM     12  C   UNL d   1       3.010  -4.971   3.766  0.00  0.00     0.048 C 
ATOM     13  C   UNL d   1       0.443  -3.104   1.645  0.00  0.00     0.030 A 
ENDBRANCH   2   7
BRANCH   3  14
ATOM     14  C   UNL d   1       0.571   1.928  -1.665  0.00  0.00     0.036 A 
ATOM     15  C   UNL d   1       1.865   2.041  -2.181  0.00  0.00     0.030 A 
ATOM     16  C   UNL d   1       2.188   3.046  -3.095  0.00  0.00     0.009 A 
ATOM     17  C   UNL d   1       1.218   3.955  -3.520  0.00  0.00    -0.062 A 
ATOM     18  C   UNL d   1      -0.081   3.842  -3.012  0.00  0.00     0.009 A 
ATOM     19  C   UNL d   1       1.584   5.008  -4.522  0.00  0.00     0.048 C 
ATOM     20  C   UNL d   1      -0.404   2.832  -2.095  0.00  0.00     0.030 A 
ENDBRANCH   3  14
TORSDOF 2
