REMARK  4 active torsions:
REMARK  status: ('A' for Active; 'I' for Inactive)
REMARK       I    between atoms: N_4  and  C_1 
REMARK    1  A    between atoms: C_9  and  C_1 
REMARK    2  A    between atoms: N_2  and  N_4 
REMARK    3  A    between atoms: C_14  and  C_5 
REMARK    4  A    between atoms: C_13  and  C_12 
ROOT
ATOM      1  N   UNL d   1      -0.767   3.466   0.763  0.00  0.00    -0.308 N 
ATOM      2  HN  UNL d   1      -1.076   4.253   1.333  1.00  0.00     0.186 HD
ATOM      3  C   UNL d   1       0.250   3.580  -0.027  0.00  0.00     0.118 C 
ENDROOT
BRANCH   1   4
ATOM      4  N   UNL d   1      -1.419   2.268   0.818  0.00  0.00    -0.266 N 
ATOM      5  C   UNL d   1      -2.461   2.141   1.732  0.00  0.00     0.270 C 
ATOM      6  O   UNL d   1      -2.835   3.032   2.494  0.00  0.00    -0.266 OA
ATOM      7  H   UNL d   1      -1.063   1.483   0.289  0.00  0.00     0.190 HD
BRANCH   5   8
ATOM      8  C   UNL d   1      -3.147   0.823   1.813  0.00  0.00     0.036 A 
ATOM      9  C   UNL d   1      -3.753   0.483   3.027  0.00  0.00     0.034 A 
ATOM     10  C   UNL d   1      -4.436  -0.714   3.111  0.00  0.00     0.088 A 
ATOM     11  N   UNL d   1      -4.554  -1.575   2.079  0.00  0.00    -0.375 N 
ATOM     12  C   UNL d   1      -3.976  -1.218   0.912  0.00  0.00     0.088 A 
ATOM     13  HN  UNL d   1      -5.056  -2.458   2.177  1.00  0.00     0.164 HD
ATOM     14  C   UNL d   1      -3.265  -0.042   0.726  0.00  0.00     0.034 A 
ENDBRANCH   5   8
ENDBRANCH   1   4
BRANCH   3  15
ATOM     15  C   UNL d   1       0.995   4.861  -0.106  0.00  0.00    -0.019 A 
ATOM     16  C   UNL d   1       0.596   5.948   0.675  0.00  0.00     0.013 A 
ATOM     17  C   UNL d   1       1.294   7.157   0.611  0.00  0.00     0.008 A 
ATOM     18  C   UNL d   1       2.402   7.304  -0.236  0.00  0.00    -0.055 A 
ATOM     19  C   UNL d   1       2.795   6.203  -1.017  0.00  0.00     0.008 A 
ATOM     20  C   UNL d   1       2.097   4.987  -0.955  0.00  0.00     0.013 A 
BRANCH  18  21
ATOM     21  C   UNL d   1       3.164   8.618  -0.311  0.00  0.00     0.010 C 
ATOM     22  C   UNL d   1       2.268   9.769  -0.782  0.00  0.00     0.015 C 
ATOM     23  C   UNL d   1       3.822   8.972   1.027  0.00  0.00     0.015 C 
ENDBRANCH  18  21
ENDBRANCH   3  15
TORSDOF 4
