REMARK  4 active torsions:
REMARK  status: ('A' for Active; 'I' for Inactive)
REMARK    1  A    between atoms: C_5  and  C_1 
REMARK    2  A    between atoms: N_6  and  C_1 
REMARK    3  A    between atoms: N_2  and  C_5 
REMARK    4  A    between atoms: O_7  and  N_3 
ROOT
ATOM      1  C   UNL d   1       1.039   0.667  -0.391  0.00  0.00     0.103 C 
ATOM      2  N   UNL d   1       1.811   1.474  -1.058  0.00  0.00    -0.261 N 
ATOM      3  HN  UNL d   1       2.004   1.400  -2.057  1.00  0.00     0.195 HD
ENDROOT
BRANCH   1   4
ATOM      4  C   UNL d   1       0.303  -0.439  -1.159  0.00  0.00     0.343 C 
BRANCH   4   5
ATOM      5  N   UNL d   1      -1.160  -0.321  -0.933  0.00  0.00     0.095 N 
ATOM      6  C   UNL d   1      -1.683   0.929  -1.516  0.00  0.00     0.273 C 
ATOM      7  C   UNL d   1      -3.182   1.068  -1.244  0.00  0.00     0.030 C 
ATOM      8  C   UNL d   1      -3.958  -0.128  -1.781  0.00  0.00     0.003 C 
ATOM      9  C   UNL d   1      -3.346  -1.432  -1.280  0.00  0.00     0.030 C 
ATOM     10  C   UNL d   1      -1.840  -1.479  -1.541  0.00  0.00     0.273 C 
ENDBRANCH   4   5
ENDBRANCH   1   4
BRANCH   1  11
ATOM     11  N   UNL d   1       0.799   0.769   0.961  0.00  0.00    -0.289 NA
ATOM     12  H   UNL d   1       1.060   1.688   1.299  0.00  0.00     0.125 HD
ATOM     13  H   UNL d   1      -0.151   0.497   1.204  0.00  0.00     0.125 HD
ENDBRANCH   1  11
BRANCH   2  14
ATOM     14  O   UNL d   1       2.344   2.461  -0.212  0.00  0.00    -0.289 OA
ATOM     15  H   UNL d   1       2.927   2.954  -0.818  0.00  0.00     0.244 HD
ENDBRANCH   2  14
TORSDOF 4
