REMARK  3 active torsions:
REMARK  status: ('A' for Active; 'I' for Inactive)
REMARK    1  A    between atoms: C_5  and  N_1 
REMARK    2  A    between atoms: C_7  and  C_2 
REMARK    3  A    between atoms: C_11  and  C_5 
ROOT
ATOM      1  N   UNL d   1      -0.521  -1.225   0.279  0.00  0.00    -0.328 N 
ATOM      2  C   UNL d   1       0.872  -1.327  -0.124  0.00  0.00     0.200 C 
ATOM      3  S   UNL d   1       1.499   0.370  -0.272  0.00  0.00    -0.128 SA
ATOM      4  C   UNL d   1      -1.126   0.005   0.069  0.00  0.00     0.230 C 
ATOM      5  C   UNL d   1      -0.146   1.095  -0.299  0.00  0.00     0.179 C 
ATOM      6  O   UNL d   1      -2.330   0.211   0.150  0.00  0.00    -0.272 OA
ENDROOT
BRANCH   1   7
ATOM      7  C   UNL d   1      -1.352  -2.428   0.350  0.00  0.00     0.166 C 
BRANCH   7   8
ATOM      8  C   UNL d   1      -1.999  -2.718   1.694  0.00  0.00    -0.040 A 
ATOM      9  C   UNL d   1      -1.768  -1.944   2.842  0.00  0.00     0.012 A 
ATOM     10  C   UNL d   1      -2.457  -2.204   4.031  0.00  0.00     0.043 A 
ATOM     11  C   UNL d   1      -3.378  -3.240   4.082  0.00  0.00     0.116 A 
ATOM     12  C   UNL d   1      -3.604  -4.045   2.974  0.00  0.00     0.043 A 
ATOM     13  F   UNL d   1      -4.066  -3.459   5.211  0.00  0.00    -0.206 F 
ATOM     14  C   UNL d   1      -2.910  -3.789   1.786  0.00  0.00     0.012 A 
ENDBRANCH   7   8
ENDBRANCH   1   7
BRANCH   2  15
ATOM     15  C   UNL d   1       1.733  -2.187   0.787  0.00  0.00     0.042 A 
ATOM     16  N   UNL d   1       2.338  -3.267   0.224  0.00  0.00    -0.367 N 
ATOM     17  C   UNL d   1       3.058  -4.075   1.036  0.00  0.00     0.088 A 
ATOM     18  HN  UNL d   1       2.253  -3.461  -0.774  1.00  0.00     0.165 HD
ATOM     19  C   UNL d   1       3.189  -3.878   2.399  0.00  0.00     0.017 A 
ATOM     20  C   UNL d   1       2.582  -2.764   2.962  0.00  0.00     0.003 A 
ATOM     21  C   UNL d   1       1.857  -1.899   2.148  0.00  0.00     0.028 A 
ENDBRANCH   2  15
TORSDOF 3
