REMARK  5 active torsions:
REMARK  status: ('A' for Active; 'I' for Inactive)
REMARK    1  A    between atoms: C_7  and  C_17 
REMARK    2  A    between atoms: O_16  and  C_8 
REMARK    3  A    between atoms: N_11  and  O_16 
REMARK    4  A    between atoms: C_19  and  C_13 
REMARK    5  A    between atoms: N_27  and  C_13 
ROOT
ATOM      1  N   UNL d   1      -1.356   3.527   0.026  0.00  0.00    -0.247 N 
ATOM      2  HN  UNL d   1      -1.974   2.738   0.215  1.00  0.00     0.196 HD
ATOM      3  C   UNL d   1      -1.754   4.753  -0.157  0.00  0.00     0.109 C 
ENDROOT
BRANCH   1   4
ATOM      4  O   UNL d   1       0.043   3.442  -0.073  0.00  0.00    -0.217 OA
BRANCH   4   5
ATOM      5  C   UNL d   1       0.479   2.142   0.145  0.00  0.00     0.186 A 
ATOM      6  C   UNL d   1      -0.230   0.978  -0.155  0.00  0.00     0.080 A 
ATOM      7  C   UNL d   1       0.411  -0.221   0.110  0.00  0.00     0.139 A 
ATOM      8  C   UNL d   1      -1.474   0.593  -0.696  0.00  0.00     0.127 A 
ATOM      9  N   UNL d   1      -0.466  -1.207  -0.255  0.00  0.00    -0.281 N 
ATOM     10  N   UNL d   1       1.646  -0.377   0.620  0.00  0.00    -0.337 N 
ATOM     11  C   UNL d   1      -0.259  -2.629  -0.153  0.00  0.00     0.179 C 
ATOM     12  N   UNL d   1      -1.630  -0.736  -0.758  0.00  0.00    -0.307 N 
ATOM     13  HN  UNL d   1      -2.431  -1.265  -1.102  1.00  0.00     0.186 HD
ATOM     14  C   UNL d   1       2.239   0.807   0.848  0.00  0.00     0.184 A 
ATOM     15  HN  UNL d   1       2.078  -1.281   0.810  1.00  0.00     0.168 HD
ATOM     16  N   UNL d   1       1.742   2.040   0.636  0.00  0.00    -0.330 N 
ATOM     17  HN  UNL d   1       2.296   2.872   0.838  1.00  0.00     0.168 HD
ENDBRANCH   4   5
ENDBRANCH   1   4
BRANCH   3  18
ATOM     18  C   UNL d   1      -3.222   5.029  -0.087  0.00  0.00     0.004 A 
ATOM     19  C   UNL d   1      -4.041   4.239   0.727  0.00  0.00     0.015 A 
ATOM     20  C   UNL d   1      -5.413   4.495   0.801  0.00  0.00     0.017 A 
ATOM     21  C   UNL d   1      -5.985   5.539   0.056  0.00  0.00     0.048 A 
ATOM     22  C   UNL d   1      -5.156   6.322  -0.763  0.00  0.00     0.017 A 
ATOM     23  C   UNL d   1      -3.782   6.071  -0.833  0.00  0.00     0.015 A 
BRANCH  21  24
ATOM     24  C   UNL d   1      -7.467   5.823   0.120  0.00  0.00     0.417 C 
ATOM     25  F   UNL d   1      -8.147   4.993   0.960  0.00  0.00    -0.166 F 
ATOM     26  F   UNL d   1      -7.734   7.088   0.549  0.00  0.00    -0.166 F 
ATOM     27  F   UNL d   1      -8.073   5.705  -1.093  0.00  0.00    -0.166 F 
ENDBRANCH  21  24
ENDBRANCH   3  18
BRANCH   3  28
ATOM     28  N   UNL d   1      -0.901   5.807  -0.397  0.00  0.00    -0.286 NA
ATOM     29  H   UNL d   1       0.064   5.582  -0.170  0.00  0.00     0.125 HD
ATOM     30  H   UNL d   1      -1.185   6.701  -0.011  0.00  0.00     0.125 HD
ENDBRANCH   3  28
TORSDOF 5
