REMARK  6 active torsions:
REMARK  status: ('A' for Active; 'I' for Inactive)
REMARK    1  A    between atoms: N_7  and  C_1 
REMARK    2  A    between atoms: N_8  and  C_1 
REMARK    3  A    between atoms: C_2  and  C_9 
REMARK    4  A    between atoms: N_3  and  N_8 
REMARK    5  A    between atoms: O_16  and  C_6 
REMARK    6  A    between atoms: C_14  and  N_7 
ROOT
ATOM      1  N   UNL d   1       1.046   2.196  -1.173  0.00  0.00    -0.307 N 
ATOM      2  HN  UNL d   1       2.047   2.220  -1.368  1.00  0.00     0.186 HD
ATOM      3  C   UNL d   1       0.284   3.228  -1.380  0.00  0.00     0.121 C 
ENDROOT
BRANCH   1   4
ATOM      4  N   UNL d   1       0.419   1.044  -0.668  0.00  0.00    -0.272 N 
ATOM      5  C   UNL d   1      -1.011   0.794  -0.895  0.00  0.00     0.180 C 
BRANCH   4   6
ATOM      6  C   UNL d   1       1.198   0.111   0.071  0.00  0.00     0.189 C 
ATOM      7  S   UNL d   1       0.804  -1.516   0.214  0.00  0.00    -0.039 SA
BRANCH   6   8
ATOM      8  N   UNL d   1       2.253   0.739   0.724  0.00  0.00    -0.358 N 
ATOM      9  H   UNL d   1       2.282   1.716   0.443  0.00  0.00     0.162 HD
BRANCH   8  10
ATOM     10  C   UNL d   1       2.836   0.407   2.053  0.00  0.00     0.021 C 
ATOM     11  C   UNL d   1       3.590  -0.935   2.073  0.00  0.00     0.037 C 
ATOM     12  C   UNL d   1       3.860   1.500   2.423  0.00  0.00     0.037 C 
ATOM     13  C   UNL d   1       1.740   0.418   3.137  0.00  0.00     0.037 C 
ENDBRANCH   8  10
ENDBRANCH   6   8
ENDBRANCH   4   6
ENDBRANCH   1   4
BRANCH   3  14
ATOM     14  C   UNL d   1       0.708   4.444  -2.104  0.00  0.00     0.017 A 
ATOM     15  C   UNL d   1       0.007   5.638  -1.864  0.00  0.00     0.099 A 
ATOM     16  C   UNL d   1       0.335   6.798  -2.570  0.00  0.00     0.069 A 
ATOM     17 CL   UNL d   1      -0.513   8.269  -2.259  0.00  0.00    -0.081 Cl
ATOM     18  C   UNL d   1       1.336   6.779  -3.535  0.00  0.00     0.050 A 
ATOM     19  C   UNL d   1       2.010   5.580  -3.789  0.00  0.00     0.036 A 
ATOM     20  C   UNL d   1       1.710   4.414  -3.076  0.00  0.00     0.039 A 
ATOM     21 CL   UNL d   1       3.209   5.547  -5.027  0.00  0.00    -0.084 Cl
BRANCH  15  22
ATOM     22  O   UNL d   1      -1.004   5.646  -0.937  0.00  0.00    -0.358 OA
ATOM     23  H   UNL d   1      -1.374   6.552  -0.905  0.00  0.00     0.217 HD
ENDBRANCH  15  22
ENDBRANCH   3  14
TORSDOF 6
