REMARK  3 active torsions:
REMARK  status: ('A' for Active; 'I' for Inactive)
REMARK    1  A    between atoms: N_7  and  C_1 
REMARK    2  A    between atoms: N_2  and  C_12 
REMARK    3  A    between atoms: C_3  and  C_4 
REMARK       I    between atoms: C_4  and  N_7 
ROOT
ATOM      1  C   UNL d   1      -1.704  -1.323   0.096  0.00  0.00     0.112 C 
ATOM      2  C   UNL d   1      -1.941   0.115   0.436  0.00  0.00     0.315 C 
ATOM      3  O   UNL d   1      -0.892   1.001   0.230  0.00  0.00    -0.273 OA
ATOM      4  C   UNL d   1      -0.451  -1.770  -0.058  0.00  0.00     0.050 C 
ATOM      5  C   UNL d   1       0.674  -0.852   0.039  0.00  0.00     0.003 A 
ATOM      6  C   UNL d   1       0.418   0.516   0.084  0.00  0.00     0.090 A 
ATOM      7  C   UNL d   1       3.040  -0.357   0.057  0.00  0.00     0.103 A 
ATOM      8  C   UNL d   1       1.997  -1.298   0.039  0.00  0.00     0.050 A 
ATOM      9  O   UNL d   1      -3.048   0.491   0.817  0.00  0.00    -0.257 OA
ATOM     10  C   UNL d   1       1.444   1.458   0.045  0.00  0.00     0.041 A 
ATOM     11  C   UNL d   1       2.768   1.020   0.029  0.00  0.00     0.039 A 
ENDROOT
BRANCH   1  12
ATOM     12  N   UNL d   1      -2.854  -2.083  -0.038  0.00  0.00    -0.318 N 
ATOM     13  C   UNL d   1      -2.978  -3.373  -0.517  0.00  0.00     0.258 C 
ATOM     14  O   UNL d   1      -2.050  -4.101  -0.840  0.00  0.00    -0.267 OA
ATOM     15  H   UNL d   1      -3.710  -1.562   0.159  0.00  0.00     0.169 HD
BRANCH  13  16
ATOM     16  C   UNL d   1      -4.362  -3.916  -0.594  0.00  0.00     0.054 A 
ATOM     17  C   UNL d   1      -5.492  -3.182  -0.984  0.00  0.00     0.051 A 
ATOM     18  C   UNL d   1      -6.756  -3.783  -0.979  0.00  0.00     0.048 A 
ATOM     19 CL   UNL d   1      -5.412  -1.546  -1.536  0.00  0.00    -0.083 Cl
ATOM     20  C   UNL d   1      -6.893  -5.117  -0.605  0.00  0.00     0.035 A 
ATOM     21  C   UNL d   1      -5.775  -5.871  -0.258  0.00  0.00     0.025 A 
ATOM     22 CL   UNL d   1      -8.453  -5.842  -0.577  0.00  0.00    -0.084 Cl
ATOM     23  C   UNL d   1      -4.513  -5.273  -0.256  0.00  0.00     0.020 A 
ENDBRANCH  13  16
ENDBRANCH   1  12
BRANCH   7  24
ATOM     24  N   UNL d   1       4.432  -0.819   0.126  0.00  0.00    -0.116 N 
ATOM     25  O   UNL d   1       4.630  -2.039   0.213  0.00  0.00    -0.532 OA
ATOM     26  O   UNL d   1       5.325   0.039   0.107  0.00  0.00    -0.532 OA
ENDBRANCH   7  24
TORSDOF 3
