REMARK  3 active torsions:
REMARK  status: ('A' for Active; 'I' for Inactive)
REMARK    1  A    between atoms: C_7  and  C_1 
REMARK    2  A    between atoms: C_8  and  C_7 
REMARK    3  A    between atoms: O_20  and  C_12 
ROOT
ATOM      1  C   UNL d   1       2.315   0.715   0.055  0.00  0.00     0.029 A 
ATOM      2  C   UNL d   1       1.181   1.445  -0.060  0.00  0.00    -0.036 A 
ATOM      3  C   UNL d   1       2.288  -0.776   0.100  0.00  0.00     0.295 A 
ATOM      4  C   UNL d   1      -0.119   0.744  -0.051  0.00  0.00     0.006 A 
ATOM      5  C   UNL d   1      -0.134  -0.649  -0.023  0.00  0.00     0.093 A 
ATOM      6  O   UNL d   1       1.054  -1.391  -0.009  0.00  0.00    -0.274 OA
ATOM      7  C   UNL d   1      -1.359   1.400  -0.030  0.00  0.00     0.041 A 
ATOM      8  C   UNL d   1      -1.316  -1.393   0.021  0.00  0.00     0.076 A 
ATOM      9  C   UNL d   1      -2.556   0.674   0.030  0.00  0.00     0.068 A 
ATOM     10  C   UNL d   1      -2.531  -0.723   0.056  0.00  0.00     0.090 A 
ATOM     11  O   UNL d   1       3.309  -1.444   0.214  0.00  0.00    -0.259 OA
ATOM     12 CL   UNL d   1      -4.045   1.546   0.092  0.00  0.00    -0.081 Cl
ATOM     13  C   UNL d   1       1.157   2.953  -0.116  0.00  0.00     0.050 C 
ENDROOT
BRANCH   1  14
ATOM     14  C   UNL d   1       3.708   1.292   0.134  0.00  0.00     0.087 C 
BRANCH  14  15
ATOM     15  C   UNL d   1       4.232   1.845   1.459  0.00  0.00    -0.010 A 
ATOM     16  C   UNL d   1       3.643   1.689   2.733  0.00  0.00     0.042 A 
ATOM     17 CL   UNL d   1       2.205   0.785   3.062  0.00  0.00    -0.084 Cl
ATOM     18  C   UNL d   1       4.218   2.269   3.876  0.00  0.00     0.024 A 
ATOM     19  C   UNL d   1       5.404   2.989   3.797  0.00  0.00     0.003 A 
ATOM     20  C   UNL d   1       6.028   3.126   2.567  0.00  0.00     0.024 A 
ATOM     21  C   UNL d   1       5.456   2.563   1.420  0.00  0.00     0.042 A 
ATOM     22 CL   UNL d   1       6.349   2.787  -0.053  0.00  0.00    -0.084 Cl
ENDBRANCH  14  15
ENDBRANCH   1  14
BRANCH  10  23
ATOM     23  O   UNL d   1      -3.698  -1.430   0.127  0.00  0.00    -0.359 OA
ATOM     24  H   UNL d   1      -3.500  -2.378   0.203  0.00  0.00     0.217 HD
ENDBRANCH  10  23
TORSDOF 3
