REMARK  7 active torsions:
REMARK  status: ('A' for Active; 'I' for Inactive)
REMARK    1  A    between atoms: C_9  and  C_3 
REMARK    2  A    between atoms: O_16  and  C_4 
REMARK    3  A    between atoms: S_11  and  C_5 
REMARK    4  A    between atoms: C_13  and  C_9 
REMARK    5  A    between atoms: C_10  and  C_14 
REMARK    6  A    between atoms: C_12  and  C_10 
REMARK    7  A    between atoms: C_14  and  S_11 
ROOT
ATOM      1  N   UNL d   1      -0.670   1.254  -0.034  0.00  0.00    -0.317 N 
ATOM      2  HN  UNL d   1      -1.110   2.173  -0.074  1.00  0.00     0.170 HD
ATOM      3  C   UNL d   1      -0.852  -1.149  -0.059  0.00  0.00     0.019 A 
ATOM      4  C   UNL d   1      -1.379   0.128  -0.142  0.00  0.00     0.150 A 
ATOM      5  C   UNL d   1       0.648   1.108   0.132  0.00  0.00     0.146 A 
ATOM      6  N   UNL d   1       1.287  -0.073   0.129  0.00  0.00    -0.340 N 
ATOM      7  HN  UNL d   1       2.302  -0.126   0.208  1.00  0.00     0.167 HD
ATOM      8  C   UNL d   1       0.533  -1.190   0.019  0.00  0.00     0.018 A 
ATOM      9  C   UNL d   1       1.294  -2.484   0.017  0.00  0.00     0.069 C 
ENDROOT
BRANCH   5  10
ATOM     10  S   UNL d   1       1.577   2.588   0.436  0.00  0.00    -0.086 SA
BRANCH  10  11
ATOM     11  C   UNL d   1       3.237   1.890   0.672  0.00  0.00     0.161 C 
BRANCH  11  12
ATOM     12  C   UNL d   1       4.211   3.010   0.989  0.00  0.00     0.144 C 
ATOM     13  O   UNL d   1       4.664   3.707   0.072  0.00  0.00    -0.296 OA
BRANCH  12  14
ATOM     14  C   UNL d   1       4.694   3.212   2.444  0.00  0.00     0.010 C 
ATOM     15  C   UNL d   1       5.847   2.232   2.699  0.00  0.00     0.022 C 
ATOM     16  C   UNL d   1       5.212   4.654   2.603  0.00  0.00     0.022 C 
ATOM     17  C   UNL d   1       3.584   2.993   3.481  0.00  0.00     0.022 C 
ENDBRANCH  12  14
ENDBRANCH  11  12
ENDBRANCH  10  11
ENDBRANCH   5  10
BRANCH   4  18
ATOM     18  O   UNL d   1      -2.716   0.337  -0.328  0.00  0.00    -0.346 OA
ATOM     19  H   UNL d   1      -3.042  -0.370  -0.906  0.00  0.00     0.219 HD
ENDBRANCH   4  18
BRANCH   3  20
ATOM     20  C   UNL d   1      -1.720  -2.374   0.037  0.00  0.00     0.078 C 
BRANCH  20  21
ATOM     21  C   UNL d   1      -2.133  -3.072  -1.237  0.00  0.00    -0.089 C 
ATOM     22  C   UNL d   1      -1.829  -2.685  -2.488  0.00  0.00     0.014 C 
ATOM     23  C   UNL d   1      -2.960  -4.317  -1.016  0.00  0.00     0.043 C 
ENDBRANCH  20  21
ENDBRANCH   3  20
TORSDOF 7
