REMARK  5 active torsions:
REMARK  status: ('A' for Active; 'I' for Inactive)
REMARK    1  A    between atoms: C_3  and  C_1 
REMARK    2  A    between atoms: N_6  and  C_2 
REMARK    3  A    between atoms: S_11  and  C_2 
REMARK    4  A    between atoms: C_5  and  C_3 
REMARK    5  A    between atoms: C_14  and  N_6 
ROOT
ATOM      1  C   UNL d   1       0.910   0.076  -0.064  0.00  0.00     0.130 C 
ATOM      2  C   UNL d   1       0.219  -0.834  -0.810  0.00  0.00     0.095 C 
ATOM      3  C   UNL d   1       0.209   1.048   0.728  0.00  0.00     0.106 C 
ATOM      4  N   UNL d   1      -0.332   1.822   1.400  0.00  0.00    -0.191 NA
ENDROOT
BRANCH   1   5
ATOM      5  C   UNL d   1       2.412   0.254  -0.097  0.00  0.00     0.229 C 
ATOM      6  O   UNL d   1       3.048   0.060  -1.131  0.00  0.00    -0.284 OA
BRANCH   5   7
ATOM      7  C   UNL d   1       3.075   0.790   1.081  0.00  0.00     0.126 A 
ATOM      8  O   UNL d   1       2.507   0.651   2.316  0.00  0.00    -0.319 OA
ATOM      9  C   UNL d   1       3.299   1.311   3.200  0.00  0.00     0.142 A 
ATOM     10  C   UNL d   1       4.393   1.845   2.562  0.00  0.00     0.027 A 
ATOM     11  C   UNL d   1       4.267   1.483   1.200  0.00  0.00     0.043 A 
ENDBRANCH   5   7
ENDBRANCH   1   5
BRANCH   2  12
ATOM     12  N   UNL d   1      -1.169  -0.855  -0.930  0.00  0.00    -0.349 N 
ATOM     13  H   UNL d   1      -1.475  -1.265  -1.811  0.00  0.00     0.166 HD
BRANCH  12  14
ATOM     14  C   UNL d   1      -2.154  -0.909   0.072  0.00  0.00     0.033 A 
ATOM     15  C   UNL d   1      -1.871  -1.213   1.411  0.00  0.00     0.032 A 
ATOM     16  C   UNL d   1      -2.857  -1.091   2.392  0.00  0.00     0.044 A 
ATOM     17  C   UNL d   1      -4.135  -0.686   2.032  0.00  0.00     0.116 A 
ATOM     18  C   UNL d   1      -4.452  -0.422   0.708  0.00  0.00     0.044 A 
ATOM     19  F   UNL d   1      -5.071  -0.540   2.978  0.00  0.00    -0.206 F 
ATOM     20  C   UNL d   1      -3.463  -0.534  -0.270  0.00  0.00     0.032 A 
ENDBRANCH  12  14
ENDBRANCH   2  12
BRANCH   2  21
ATOM     21  S   UNL d   1       1.066  -1.999  -1.850  0.00  0.00    -0.115 SA
ATOM     22  C   UNL d   1       0.369  -3.555  -1.241  0.00  0.00     0.097 C 
ENDBRANCH   2  21
TORSDOF 5
