REMARK  5 active torsions:
REMARK  status: ('A' for Active; 'I' for Inactive)
REMARK    1  A    between atoms: C_3  and  C_1 
REMARK    2  A    between atoms: N_2  and  C_4 
REMARK    3  A    between atoms: C_10  and  N_7 
REMARK    4  A    between atoms: C_8  and  C_10 
REMARK    5  A    between atoms: C_11  and  C_8 
ROOT
ATOM      1  N   UNL d   1      -0.652  -1.945  -5.017  0.00  0.00    -0.364 N 
ATOM      2  N   UNL d   1      -0.479  -3.624  -7.429  0.00  0.00     0.099 N 
ATOM      3  C   UNL d   1      -1.589  -3.056  -5.189  0.00  0.00     0.154 C 
ATOM      4  C   UNL d   1      -0.006  -1.416  -6.225  0.00  0.00     0.154 C 
ATOM      5  C   UNL d   1      -1.010  -4.129  -6.143  0.00  0.00     0.292 C 
ATOM      6  C   UNL d   1       0.509  -2.557  -7.127  0.00  0.00     0.292 C 
ENDROOT
BRANCH   1   7
ATOM      7  C   UNL d   1      -0.265  -1.484  -3.782  0.00  0.00     0.103 A 
ATOM      8  C   UNL d   1      -1.114  -1.544  -2.678  0.00  0.00     0.049 A 
ATOM      9  C   UNL d   1      -0.693  -1.068  -1.436  0.00  0.00     0.021 A 
ATOM     10  C   UNL d   1       0.586  -0.534  -1.300  0.00  0.00     0.063 A 
ATOM     11  C   UNL d   1       1.371  -0.500  -2.437  0.00  0.00     0.106 A 
ATOM     12  N   UNL d   1       0.969  -0.949  -3.650  0.00  0.00    -0.352 N 
ATOM     13  HN  UNL d   1       1.592  -0.884  -4.455  1.00  0.00     0.166 HD
BRANCH  10  14
ATOM     14  C   UNL d   1       1.086  -0.008   0.005  0.00  0.00     0.418 C 
ATOM     15  F   UNL d   1       2.376   0.424  -0.035  0.00  0.00    -0.166 F 
ATOM     16  F   UNL d   1       1.036  -0.941   0.996  0.00  0.00    -0.166 F 
ATOM     17  F   UNL d   1       0.353   1.048   0.455  0.00  0.00    -0.166 F 
ENDBRANCH  10  14
ENDBRANCH   1   7
BRANCH   2  18
ATOM     18  C   UNL d   1      -1.578  -3.156  -8.299  0.00  0.00     0.356 C 
BRANCH  18  19
ATOM     19  C   UNL d   1      -1.077  -2.691  -9.661  0.00  0.00     0.187 C 
ATOM     20  O   UNL d   1      -1.246  -1.524 -10.023  0.00  0.00    -0.290 OA
BRANCH  19  21
ATOM     21  C   UNL d   1      -0.394  -3.653 -10.580  0.00  0.00     0.011 A 
ATOM     22  C   UNL d   1      -0.179  -4.994 -10.246  0.00  0.00     0.015 A 
ATOM     23  C   UNL d   1       0.488  -5.844 -11.132  0.00  0.00     0.007 A 
ATOM     24  C   UNL d   1       0.939  -5.371 -12.369  0.00  0.00    -0.062 A 
ATOM     25  C   UNL d   1       0.717  -4.032 -12.708  0.00  0.00     0.007 A 
ATOM     26  C   UNL d   1       1.654  -6.299 -13.304  0.00  0.00     0.048 C 
ATOM     27  C   UNL d   1       0.057  -3.179 -11.820  0.00  0.00     0.015 A 
ENDBRANCH  19  21
ENDBRANCH  18  19
ENDBRANCH   2  18
TORSDOF 5
