REMARK  3 active torsions:
REMARK  status: ('A' for Active; 'I' for Inactive)
REMARK    1  A    between atoms: N_2  and  S_1 
REMARK    2  A    between atoms: C_6  and  S_1 
REMARK    3  A    between atoms: C_3  and  N_2 
ROOT
ATOM      1  N   UNL d   1       0.570  -0.417  -1.616  0.00  0.00    -0.165 NA
ATOM      2  H   UNL d   1      -0.409  -0.701  -1.576  0.00  0.00     0.147 HD
ENDROOT
BRANCH   1   3
ATOM      3  S   UNL d   1       1.056  -0.050  -0.039  0.00  0.00     0.247 S 
ATOM      4  O   UNL d   1      -0.101  -0.323   0.785  0.00  0.00    -0.205 OA
ATOM      5  O   UNL d   1       1.737   1.227   0.021  0.00  0.00    -0.205 OA
BRANCH   3   6
ATOM      6  C   UNL d   1       2.269  -1.303   0.324  0.00  0.00     0.075 A 
ATOM      7  C   UNL d   1       3.406  -1.413  -0.482  0.00  0.00     0.028 A 
ATOM      8  C   UNL d   1       4.414  -2.313  -0.132  0.00  0.00     0.044 A 
ATOM      9  C   UNL d   1       4.278  -3.088   1.016  0.00  0.00     0.116 A 
ATOM     10  C   UNL d   1       3.143  -2.995   1.817  0.00  0.00     0.044 A 
ATOM     11  F   UNL d   1       5.264  -3.923   1.369  0.00  0.00    -0.206 F 
ATOM     12  C   UNL d   1       2.126  -2.101   1.470  0.00  0.00     0.028 A 
ENDBRANCH   3   6
ENDBRANCH   1   3
BRANCH   1  13
ATOM     13  C   UNL d   1       0.788   0.632  -2.554  0.00  0.00     0.111 A 
ATOM     14  N   UNL d   1       2.010   0.601  -3.120  0.00  0.00    -0.354 N 
ATOM     15  C   UNL d   1       2.282   1.569  -4.028  0.00  0.00     0.096 A 
ATOM     16  HN  UNL d   1       2.695  -0.114  -2.877  1.00  0.00     0.166 HD
ATOM     17  C   UNL d   1       1.392   2.573  -4.406  0.00  0.00    -0.045 A 
ATOM     18  C   UNL d   1       0.140   2.585  -3.787  0.00  0.00     0.030 A 
ATOM     19  C   UNL d   1       1.781   3.589  -5.435  0.00  0.00     0.049 C 
ATOM     20  C   UNL d   1      -0.169   1.608  -2.839  0.00  0.00     0.050 A 
ATOM     21 BR   UNL d   1      -1.876   1.624  -2.023  0.00  0.00    -0.048 Br
ENDBRANCH   1  13
TORSDOF 3
