REMARK  8 active torsions:
REMARK  status: ('A' for Active; 'I' for Inactive)
REMARK    1  A    between atoms: C_13  and  C_3 
REMARK    2  A    between atoms: C_4  and  C_7 
REMARK    3  A    between atoms: C_9  and  C_6 
REMARK    4  A    between atoms: C_8  and  C_9 
REMARK    5  A    between atoms: O_18  and  C_8 
REMARK    6  A    between atoms: C_14  and  O_19 
REMARK    7  A    between atoms: C_29  and  O_18 
REMARK    8  A    between atoms: O_19  and  C_25 
ROOT
ATOM      1  C   UNL d   1      -0.114  -2.554  -0.097  0.00  0.00    -0.002 A 
ATOM      2  C   UNL d   1       0.439  -3.315   0.946  0.00  0.00     0.017 A 
ATOM      3  C   UNL d   1      -0.854  -3.235  -1.078  0.00  0.00     0.017 A 
ATOM      4  C   UNL d   1      -0.428  -5.367  -0.003  0.00  0.00     0.077 A 
ATOM      5  C   UNL d   1       0.265  -4.700   1.007  0.00  0.00     0.038 A 
ATOM      6  C   UNL d   1      -1.013  -4.628  -1.030  0.00  0.00     0.038 A 
ENDROOT
BRANCH   1   7
ATOM      7  C   UNL d   1       0.109  -1.093  -0.093  0.00  0.00     0.084 A 
ATOM      8  N   UNL d   1       0.857  -0.468   0.800  0.00  0.00    -0.352 N 
ATOM      9  C   UNL d   1       0.863   0.902   0.582  0.00  0.00     0.025 A 
ATOM     10  HN  UNL d   1       1.365  -0.934   1.552  1.00  0.00     0.166 HD
ATOM     11  C   UNL d   1       0.125   1.303  -0.514  0.00  0.00     0.077 A 
ATOM     12  S   UNL d   1      -0.607  -0.048  -1.263  0.00  0.00    -0.081 SA
BRANCH   9  13
ATOM     13  C   UNL d   1       1.664   1.766   1.503  0.00  0.00     0.168 C 
BRANCH  13  14
ATOM     14  C   UNL d   1       0.821   2.789   2.226  0.00  0.00     0.264 C 
ATOM     15  O   UNL d   1      -0.206   3.295   1.797  0.00  0.00    -0.265 OA
BRANCH  14  16
ATOM     16  O   UNL d   1       1.412   3.133   3.411  0.00  0.00    -0.317 OA
BRANCH  16  17
ATOM     17  C   UNL d   1       0.718   4.126   4.191  0.00  0.00     0.123 C 
ATOM     18  C   UNL d   1      -0.420   3.472   4.969  0.00  0.00     0.040 C 
ATOM     19  C   UNL d   1       1.730   4.747   5.147  0.00  0.00     0.040 C 
ENDBRANCH  16  17
ENDBRANCH  14  16
ENDBRANCH  13  14
ENDBRANCH   9  13
ENDBRANCH   1   7
BRANCH   4  20
ATOM     20  O   UNL d   1      -0.632  -6.731  -0.029  0.00  0.00    -0.294 OA
BRANCH  20  21
ATOM     21  C   UNL d   1       0.373  -7.541   0.479  0.00  0.00     0.147 A 
ATOM     22  N   UNL d   1       1.663  -7.150   0.371  0.00  0.00    -0.346 N 
ATOM     23  C   UNL d   1       2.594  -7.906   0.987  0.00  0.00     0.106 A 
ATOM     24  HN  UNL d   1       1.921  -6.316  -0.156  1.00  0.00     0.167 HD
ATOM     25  C   UNL d   1       2.302  -9.065   1.688  0.00  0.00     0.063 A 
ATOM     26  C   UNL d   1       0.969  -9.491   1.712  0.00  0.00     0.022 A 
ATOM     27  C   UNL d   1      -0.016  -8.721   1.096  0.00  0.00     0.057 A 
BRANCH  25  28
ATOM     28  C   UNL d   1       3.386  -9.803   2.412  0.00  0.00     0.418 C 
ATOM     29  F   UNL d   1       4.607  -9.206   2.321  0.00  0.00    -0.166 F 
ATOM     30  F   UNL d   1       3.131  -9.918   3.744  0.00  0.00    -0.166 F 
ATOM     31  F   UNL d   1       3.556 -11.072   1.952  0.00  0.00    -0.166 F 
ENDBRANCH  25  28
ENDBRANCH  20  21
ENDBRANCH   4  20
TORSDOF 8
