REMARK  7 active torsions:
REMARK  status: ('A' for Active; 'I' for Inactive)
REMARK    1  A    between atoms: C_7  and  C_1 
REMARK    2  A    between atoms: C_3  and  C_2 
REMARK    3  A    between atoms: O_14  and  C_6 
REMARK    4  A    between atoms: O_19  and  C_7 
REMARK    5  A    between atoms: N_11  and  O_14 
REMARK    6  A    between atoms: C_20  and  C_18 
REMARK    7  A    between atoms: C_27  and  O_19 
ROOT
ATOM      1  C   UNL d   1      -0.034  -1.482   0.029  0.00  0.00     0.086 A 
ATOM      2  C   UNL d   1       1.171  -0.796   0.050  0.00  0.00     0.137 A 
ATOM      3  N   UNL d   1       1.196   0.579   0.075  0.00  0.00    -0.316 N 
ATOM      4  HN  UNL d   1       2.082   1.081   0.132  1.00  0.00     0.169 HD
ATOM      5  C   UNL d   1       0.032   1.249   0.024  0.00  0.00     0.247 A 
ATOM      6  N   UNL d   1      -1.172   0.664   0.003  0.00  0.00    -0.330 N 
ATOM      7  HN  UNL d   1      -2.036   1.206  -0.010  1.00  0.00     0.168 HD
ATOM      8  C   UNL d   1      -1.171  -0.686  -0.001  0.00  0.00     0.111 A 
ENDROOT
BRANCH   5   9
ATOM      9  O   UNL d   1       0.144   2.640   0.038  0.00  0.00    -0.201 OA
BRANCH   9  10
ATOM     10  N   UNL d   1      -0.932   3.234  -0.651  0.00  0.00    -0.268 N 
ATOM     11  C   UNL d   1      -0.781   4.522  -0.653  0.00  0.00     0.126 C 
ATOM     12  HN  UNL d   1      -1.708   2.730  -1.081  1.00  0.00     0.194 HD
BRANCH  11  13
ATOM     13  C   UNL d   1      -1.758   5.410  -1.312  0.00  0.00    -0.019 A 
ATOM     14  C   UNL d   1      -2.863   4.877  -1.987  0.00  0.00     0.016 A 
ATOM     15  C   UNL d   1      -3.791   5.727  -2.589  0.00  0.00     0.043 A 
ATOM     16  C   UNL d   1      -3.605   7.103  -2.516  0.00  0.00     0.116 A 
ATOM     17  C   UNL d   1      -2.505   7.646  -1.858  0.00  0.00     0.043 A 
ATOM     18  F   UNL d   1      -4.501   7.920  -3.086  0.00  0.00    -0.206 F 
ATOM     19  C   UNL d   1      -1.573   6.798  -1.253  0.00  0.00     0.016 A 
ENDBRANCH  11  13
ENDBRANCH   9  10
ENDBRANCH   5   9
BRANCH   2  20
ATOM     20  C   UNL d   1       2.546  -1.430  -0.027  0.00  0.00     0.433 C 
ATOM     21  F   UNL d   1       2.611  -2.782  -0.121  0.00  0.00    -0.165 F 
ATOM     22  F   UNL d   1       3.240  -0.988  -1.121  0.00  0.00    -0.165 F 
ATOM     23  F   UNL d   1       3.324  -1.103   1.048  0.00  0.00    -0.165 F 
ENDBRANCH   2  20
BRANCH   1  24
ATOM     24  C   UNL d   1      -0.273  -2.933  -0.018  0.00  0.00     0.296 C 
ATOM     25  O   UNL d   1      -1.233  -3.417  -0.599  0.00  0.00    -0.259 OA
BRANCH  24  26
ATOM     26  O   UNL d   1       0.621  -3.610   0.731  0.00  0.00    -0.318 OA
BRANCH  26  27
ATOM     27  C   UNL d   1       0.496  -5.047   0.716  0.00  0.00     0.174 C 
ATOM     28  C   UNL d   1       0.985  -5.645  -0.596  0.00  0.00     0.034 C 
ENDBRANCH  26  27
ENDBRANCH  24  26
ENDBRANCH   1  24
TORSDOF 7
