REMARK  3 active torsions:
REMARK  status: ('A' for Active; 'I' for Inactive)
REMARK    1  A    between atoms: N_2  and  C_1 
REMARK       I    between atoms: C_3  and  N_2 
REMARK    2  A    between atoms: C_7  and  N_2 
REMARK       I    between atoms: N_8  and  C_3 
REMARK    3  A    between atoms: C_10  and  N_8 
ROOT
ATOM      1  N   UNL d   1       2.112   1.412  -0.274  0.00  0.00    -0.243 N 
ATOM      2  C   UNL d   1       3.468   1.008  -0.438  0.00  0.00     0.333 C 
ATOM      3  N   UNL d   1       3.607  -0.214  -1.076  0.00  0.00    -0.308 N 
ATOM      4  O   UNL d   1       4.416   1.708  -0.081  0.00  0.00    -0.246 OA
ATOM      5  H   UNL d   1       2.742  -0.666  -1.341  0.00  0.00     0.170 HD
ENDROOT
BRANCH   1   6
ATOM      6  C   UNL d   1       0.983   0.596  -0.109  0.00  0.00     0.151 C 
ATOM      7  N   UNL d   1      -0.230   0.987  -0.325  0.00  0.00    -0.369 N 
ATOM      8  C   UNL d   1      -1.165  -0.151  -0.218  0.00  0.00     0.137 C 
ATOM      9  HN  UNL d   1      -0.503   1.946  -0.538  1.00  0.00     0.161 HD
ATOM     10  C   UNL d   1      -0.601  -1.208   0.722  0.00  0.00     0.069 C 
ATOM     11  S   UNL d   1       1.175  -1.065   0.417  0.00  0.00    -0.087 SA
ATOM     12  C   UNL d   1      -0.934  -0.926   2.180  0.00  0.00     0.023 C 
ENDBRANCH   1   6
BRANCH   1  13
ATOM     13  C   UNL d   1       1.893   2.832  -0.266  0.00  0.00     0.052 A 
ATOM     14  C   UNL d   1       1.357   3.512   0.846  0.00  0.00    -0.035 A 
ATOM     15  C   UNL d   1       1.104   2.866   2.179  0.00  0.00     0.050 C 
ATOM     16  C   UNL d   1       1.106   4.893   0.739  0.00  0.00     0.009 A 
ATOM     17  C   UNL d   1       1.397   5.590  -0.434  0.00  0.00     0.001 A 
ATOM     18  C   UNL d   1       1.958   4.922  -1.516  0.00  0.00     0.002 A 
ATOM     19  C   UNL d   1       2.214   3.553  -1.431  0.00  0.00     0.031 A 
ENDBRANCH   1  13
BRANCH   3  20
ATOM     20  C   UNL d   1       4.784  -0.913  -1.405  0.00  0.00     0.037 A 
ATOM     21  C   UNL d   1       6.070  -0.500  -1.056  0.00  0.00     0.053 A 
ATOM     22  C   UNL d   1       7.174  -1.260  -1.450  0.00  0.00     0.036 A 
ATOM     23 CL   UNL d   1       8.762  -0.752  -1.018  0.00  0.00    -0.084 Cl
ATOM     24  C   UNL d   1       7.011  -2.429  -2.192  0.00  0.00     0.024 A 
ATOM     25  C   UNL d   1       5.729  -2.853  -2.532  0.00  0.00     0.004 A 
ATOM     26  C   UNL d   1       4.623  -2.101  -2.134  0.00  0.00     0.029 A 
ENDBRANCH   3  20
TORSDOF 3
