REMARK  2 active torsions:
REMARK  status: ('A' for Active; 'I' for Inactive)
REMARK    1  A    between atoms: C_8  and  C_1 
REMARK    2  A    between atoms: C_9  and  C_7 
ROOT
ATOM      1  C   UNL d   1       1.212   1.139   0.059  0.00  0.00     0.164 A 
ATOM      2  N   UNL d   1       1.558  -0.105   0.135  0.00  0.00    -0.331 N 
ATOM      3  HN  UNL d   1       2.496  -0.498   0.206  1.00  0.00     0.168 HD
ATOM      4  C   UNL d   1       0.357  -0.768   0.097  0.00  0.00     0.112 A 
ATOM      5  O   UNL d   1      -0.112   1.414  -0.001  0.00  0.00    -0.255 OA
ATOM      6  C   UNL d   1      -0.765   0.217   0.032  0.00  0.00     0.316 A 
ATOM      7  C   UNL d   1       0.263  -2.103   0.085  0.00  0.00     0.055 C 
ATOM      8  O   UNL d   1      -1.967   0.059   0.005  0.00  0.00    -0.257 OA
ENDROOT
BRANCH   1   9
ATOM      9  C   UNL d   1       2.076   2.330   0.022  0.00  0.00     0.032 A 
ATOM     10  C   UNL d   1       3.343   2.354  -0.583  0.00  0.00     0.021 A 
ATOM     11  I   UNL d   1       4.205   0.751  -1.635  0.00  0.00    -0.044 I 
ATOM     12  C   UNL d   1       4.104   3.534  -0.556  0.00  0.00     0.019 A 
ATOM     13  C   UNL d   1       3.610   4.685   0.060  0.00  0.00     0.001 A 
ATOM     14  C   UNL d   1       2.353   4.669   0.653  0.00  0.00     0.001 A 
ATOM     15  C   UNL d   1       1.591   3.500   0.637  0.00  0.00     0.017 A 
ENDBRANCH   1   9
BRANCH   7  16
ATOM     16  C   UNL d   1      -0.973  -2.797  -0.002  0.00  0.00     0.013 A 
ATOM     17  C   UNL d   1      -1.658  -3.234  -1.130  0.00  0.00    -0.044 A 
ATOM     18  C   UNL d   1      -2.888  -3.881  -0.771  0.00  0.00     0.015 A 
ATOM     19  C   UNL d   1      -1.222  -3.054  -2.549  0.00  0.00     0.049 C 
ATOM     20  C   UNL d   1      -3.080  -3.943   0.588  0.00  0.00     0.051 A 
ATOM     21  S   UNL d   1      -1.785  -3.244   1.446  0.00  0.00    -0.102 SA
ENDBRANCH   7  16
TORSDOF 2
