REMARK  2 active torsions:
REMARK  status: ('A' for Active; 'I' for Inactive)
REMARK    1  A    between atoms: N_9  and  N_5 
REMARK    2  A    between atoms: C_10  and  N_9 
ROOT
ATOM      1  C   UNL d   1      -2.146   0.870   0.508  0.00  0.00     0.141 A 
ATOM      2  C   UNL d   1      -1.026  -0.094   0.251  0.00  0.00     0.290 A 
ATOM      3  N   UNL d   1      -2.955  -1.245   0.914  0.00  0.00    -0.300 N 
ATOM      4  HN  UNL d   1      -3.554  -2.035   1.154  1.00  0.00     0.186 HD
ATOM      5  N   UNL d   1      -2.188   2.160   0.423  0.00  0.00    -0.293 N 
ATOM      6  HN  UNL d   1      -3.018   2.690   0.687  1.00  0.00     0.187 HD
ATOM      7  N   UNL d   1      -1.617  -1.306   0.535  0.00  0.00    -0.264 N 
ATOM      8  C   UNL d   1      -3.298   0.013   0.906  0.00  0.00     0.055 A 
ATOM      9  O   UNL d   1       0.095   0.189  -0.105  0.00  0.00    -0.264 OA
ATOM     10  C   UNL d   1      -4.632   0.582   1.209  0.00  0.00     0.072 C 
ATOM     11  H   UNL d   1      -1.144  -2.200   0.471  0.00  0.00     0.190 HD
ENDROOT
BRANCH   5  12
ATOM     12  N   UNL d   1      -1.065   2.769  -0.036  0.00  0.00    -0.300 N 
ATOM     13  H   UNL d   1      -0.203   2.252  -0.229  0.00  0.00     0.187 HD
BRANCH  12  14
ATOM     14  C   UNL d   1      -0.968   4.174  -0.029  0.00  0.00     0.054 A 
ATOM     15  C   UNL d   1      -0.100   4.849  -0.910  0.00  0.00    -0.033 A 
ATOM     16  C   UNL d   1      -0.060   6.259  -0.904  0.00  0.00     0.015 A 
ATOM     17  C   UNL d   1       0.786   4.143  -1.902  0.00  0.00     0.050 C 
ATOM     18  C   UNL d   1      -0.881   7.011  -0.056  0.00  0.00    -0.061 A 
ATOM     19  C   UNL d   1      -1.766   6.340   0.786  0.00  0.00     0.009 A 
ATOM     20  C   UNL d   1      -0.818   8.509  -0.077  0.00  0.00     0.048 C 
ATOM     21  C   UNL d   1      -1.816   4.943   0.785  0.00  0.00     0.032 A 
ENDBRANCH  12  14
ENDBRANCH   5  12
TORSDOF 2
