REMARK  5 active torsions:
REMARK  status: ('A' for Active; 'I' for Inactive)
REMARK    1  A    between atoms: C_5  and  C_1 
REMARK    2  A    between atoms: C_7  and  C_2 
REMARK    3  A    between atoms: O_11  and  C_7 
REMARK       I    between atoms: C_9  and  N_10 
REMARK    4  A    between atoms: C_16  and  C_9 
REMARK    5  A    between atoms: N_10  and  O_11 
ROOT
ATOM      1  C   UNL d   1      -1.196  -0.581   0.136  0.00  0.00     0.087 A 
ATOM      2  C   UNL d   1       0.076  -1.221   0.012  0.00  0.00     0.102 A 
ATOM      3  N   UNL d   1      -1.060   0.735  -0.113  0.00  0.00    -0.259 N 
ATOM      4  HN  UNL d   1      -1.813   1.420  -0.173  1.00  0.00     0.195 HD
ATOM      5  O   UNL d   1       0.279   0.983  -0.270  0.00  0.00    -0.241 OA
ATOM      6  C   UNL d   1       0.964  -0.179  -0.186  0.00  0.00     0.091 A 
ATOM      7  C   UNL d   1       2.433  -0.070  -0.283  0.00  0.00     0.080 C 
ENDROOT
BRANCH   2   8
ATOM      8  C   UNL d   1       0.499  -2.597   0.086  0.00  0.00     0.320 C 
ATOM      9  O   UNL d   1       0.346  -3.322   1.064  0.00  0.00    -0.257 OA
BRANCH   8  10
ATOM     10  O   UNL d   1       1.196  -2.948  -1.036  0.00  0.00    -0.192 OA
BRANCH  10  11
ATOM     11  N   UNL d   1       2.153  -3.985  -0.837  0.00  0.00    -0.221 N 
ATOM     12  C   UNL d   1       3.255  -3.786  -1.654  0.00  0.00     0.275 C 
ATOM     13  O   UNL d   1       3.240  -2.999  -2.601  0.00  0.00    -0.265 OA
ATOM     14  H   UNL d   1       2.187  -4.383   0.092  0.00  0.00     0.198 HD
BRANCH  12  15
ATOM     15  C   UNL d   1       4.529  -4.494  -1.329  0.00  0.00     0.034 A 
ATOM     16  C   UNL d   1       4.680  -5.378  -0.254  0.00  0.00     0.017 A 
ATOM     17  C   UNL d   1       5.930  -5.950   0.013  0.00  0.00     0.001 A 
ATOM     18  C   UNL d   1       7.032  -5.655  -0.791  0.00  0.00     0.000 A 
ATOM     19  C   UNL d   1       6.889  -4.792  -1.873  0.00  0.00     0.001 A 
ATOM     20  C   UNL d   1       5.645  -4.218  -2.140  0.00  0.00     0.017 A 
ENDBRANCH  12  15
ENDBRANCH  10  11
ENDBRANCH   8  10
ENDBRANCH   2   8
BRANCH   1  21
ATOM     21  C   UNL d   1      -2.537  -1.108   0.427  0.00  0.00     0.037 A 
ATOM     22  C   UNL d   1      -3.363  -0.473   1.388  0.00  0.00     0.048 A 
ATOM     23 CL   UNL d   1      -2.825   0.834   2.398  0.00  0.00    -0.083 Cl
ATOM     24  C   UNL d   1      -4.686  -0.889   1.602  0.00  0.00     0.025 A 
ATOM     25  C   UNL d   1      -5.207  -1.965   0.896  0.00  0.00     0.003 A 
ATOM     26  C   UNL d   1      -4.407  -2.620  -0.034  0.00  0.00     0.025 A 
ATOM     27  C   UNL d   1      -3.093  -2.189  -0.283  0.00  0.00     0.048 A 
ATOM     28 CL   UNL d   1      -2.261  -3.023  -1.551  0.00  0.00    -0.083 Cl
ENDBRANCH   1  21
TORSDOF 5
