REMARK  4 active torsions:
REMARK  status: ('A' for Active; 'I' for Inactive)
REMARK    1  A    between atoms: C_4  and  C_1 
REMARK       I    between atoms: N_8  and  C_4 
REMARK    2  A    between atoms: C_7  and  C_10 
REMARK    3  A    between atoms: C_10  and  N_8 
REMARK    4  A    between atoms: O_22  and  C_17 
ROOT
ATOM      1  C   UNL d   1      -3.796  -0.126  -0.119  0.00  0.00     0.268 C 
ATOM      2  N   UNL d   1      -4.453  -1.336  -0.125  0.00  0.00    -0.351 N 
ATOM      3  O   UNL d   1      -4.392   0.945  -0.183  0.00  0.00    -0.266 OA
ATOM      4  H   UNL d   1      -3.927  -2.186   0.010  0.00  0.00     0.163 HD
ENDROOT
BRANCH   1   5
ATOM      5  C   UNL d   1      -2.352  -0.201  -0.046  0.00  0.00     0.102 A 
ATOM      6  N   UNL d   1      -1.566   0.936  -0.038  0.00  0.00    -0.351 N 
ATOM      7  C   UNL d   1      -0.227   0.617  -0.019  0.00  0.00     0.043 A 
ATOM      8  H   UNL d   1      -1.943   1.875  -0.069  0.00  0.00     0.166 HD
ATOM      9  C   UNL d   1       0.911   1.432  -0.029  0.00  0.00     0.033 A 
ATOM     10  C   UNL d   1      -0.147  -0.773   0.009  0.00  0.00    -0.004 A 
ATOM     11  C   UNL d   1       2.167   0.803  -0.022  0.00  0.00     0.039 A 
ATOM     12  C   UNL d   1       2.279  -0.587  -0.000  0.00  0.00     0.069 A 
ATOM     13  C   UNL d   1       1.123  -1.378   0.022  0.00  0.00     0.050 A 
ATOM     14  C   UNL d   1      -1.478  -1.274   0.008  0.00  0.00     0.049 A 
BRANCH  12  15
ATOM     15  O   UNL d   1       3.444  -1.306  -0.002  0.00  0.00    -0.356 OA
ATOM     16  C   UNL d   1       4.662  -0.578  -0.057  0.00  0.00     0.210 C 
ENDBRANCH  12  15
ENDBRANCH   1   5
BRANCH   2  17
ATOM     17  C   UNL d   1      -5.896  -1.399  -0.199  0.00  0.00     0.163 C 
BRANCH  17  18
ATOM     18  C   UNL d   1      -6.408  -2.820  -0.246  0.00  0.00    -0.017 A 
ATOM     19  C   UNL d   1      -7.325  -3.341   0.683  0.00  0.00     0.042 A 
ATOM     20  C   UNL d   1      -7.787  -4.661   0.570  0.00  0.00     0.026 A 
ATOM     21 CL   UNL d   1      -7.945  -2.408   1.996  0.00  0.00    -0.084 Cl
ATOM     22  C   UNL d   1      -7.346  -5.478  -0.471  0.00  0.00     0.025 A 
ATOM     23  C   UNL d   1      -6.447  -4.972  -1.403  0.00  0.00     0.034 A 
ATOM     24  C   UNL d   1      -5.983  -3.659  -1.299  0.00  0.00     0.034 A 
ATOM     25 CL   UNL d   1      -5.906  -5.968  -2.696  0.00  0.00    -0.084 Cl
ENDBRANCH  17  18
ENDBRANCH   2  17
TORSDOF 4
