REMARK  2 active torsions:
REMARK  status: ('A' for Active; 'I' for Inactive)
REMARK    1  A    between atoms: C_8  and  N_2 
REMARK    2  A    between atoms: N_10  and  C_7 
ROOT
ATOM      1  C   UNL d   1       0.186  -0.657   0.057  0.00  0.00     0.072 A 
ATOM      2  N   UNL d   1      -1.208   1.118  -0.120  0.00  0.00    -0.220 N 
ATOM      3  C   UNL d   1      -1.253  -0.265   0.085  0.00  0.00     0.280 A 
ATOM      4  N   UNL d   1       0.080   1.631  -0.235  0.00  0.00    -0.294 N 
ATOM      5  HN  UNL d   1       0.337   2.605  -0.397  1.00  0.00     0.187 HD
ATOM      6  C   UNL d   1       0.896   0.622  -0.096  0.00  0.00     0.039 A 
ATOM      7  C   UNL d   1       0.521  -1.947   0.197  0.00  0.00     0.103 C 
ATOM      8  O   UNL d   1      -2.191  -1.030   0.249  0.00  0.00    -0.265 OA
ATOM      9  C   UNL d   1       2.373   0.815  -0.029  0.00  0.00     0.071 C 
ENDROOT
BRANCH   2  10
ATOM     10  C   UNL d   1      -2.292   2.031  -0.109  0.00  0.00     0.060 A 
ATOM     11  C   UNL d   1      -3.579   1.645   0.283  0.00  0.00     0.032 A 
ATOM     12  C   UNL d   1      -4.626   2.574   0.329  0.00  0.00     0.009 A 
ATOM     13  C   UNL d   1      -4.414   3.906  -0.038  0.00  0.00    -0.062 A 
ATOM     14  C   UNL d   1      -3.136   4.297  -0.443  0.00  0.00     0.009 A 
ATOM     15  C   UNL d   1      -5.538   4.895   0.038  0.00  0.00     0.048 C 
ATOM     16  C   UNL d   1      -2.087   3.370  -0.472  0.00  0.00     0.032 A 
ENDBRANCH   2  10
BRANCH   7  17
ATOM     17  N   UNL d   1       1.711  -2.665   0.201  0.00  0.00    -0.398 N 
ATOM     18  C   UNL d   1       2.834  -2.399  -0.693  0.00  0.00     0.148 C 
ATOM     19  C   UNL d   1       1.768  -3.996   0.823  0.00  0.00     0.148 C 
ENDBRANCH   7  17
TORSDOF 2
