REMARK  6 active torsions:
REMARK  status: ('A' for Active; 'I' for Inactive)
REMARK    1  A    between atoms: C_16  and  C_3 
REMARK    2  A    between atoms: C_9  and  C_4 
REMARK    3  A    between atoms: C_14  and  C_5 
REMARK    4  A    between atoms: C_15  and  C_6 
REMARK    5  A    between atoms: O_24  and  C_7 
REMARK    6  A    between atoms: C_13  and  C_19 
ROOT
ATOM      1  N   UNL d   1       0.718   0.329  -1.160  0.00  0.00    -0.349 N 
ATOM      2  HN  UNL d   1       1.057   0.521  -2.102  1.00  0.00     0.166 HD
ATOM      3  C   UNL d   1      -0.331  -0.425  -0.878  0.00  0.00     0.084 A 
ATOM      4  C   UNL d   1       1.293   0.823   0.006  0.00  0.00     0.050 A 
ATOM      5  S   UNL d   1      -0.620  -0.642   0.812  0.00  0.00    -0.081 SA
ATOM      6  C   UNL d   1       0.703   0.376   1.171  0.00  0.00     0.082 A 
ENDROOT
BRANCH   4   7
ATOM      7  C   UNL d   1       2.469   1.692  -0.018  0.00  0.00    -0.008 A 
ATOM      8  C   UNL d   1       2.726   2.611   1.009  0.00  0.00     0.024 A 
ATOM      9  C   UNL d   1       3.888   3.406   1.036  0.00  0.00    -0.016 A 
ATOM     10  C   UNL d   1       4.818   3.191  -0.010  0.00  0.00     0.079 A 
ATOM     11  C   UNL d   1       4.569   2.344  -1.120  0.00  0.00    -0.016 A 
ATOM     12  C   UNL d   1       3.371   1.604  -1.084  0.00  0.00     0.024 A 
BRANCH   9  13
ATOM     13  C   UNL d   1       4.102   4.412   2.198  0.00  0.00    -0.021 C 
ATOM     14  C   UNL d   1       4.846   3.696   3.340  0.00  0.00     0.019 C 
ATOM     15  C   UNL d   1       4.896   5.680   1.795  0.00  0.00     0.019 C 
ATOM     16  C   UNL d   1       2.763   4.958   2.768  0.00  0.00     0.019 C 
ENDBRANCH   9  13
BRANCH  10  17
ATOM     17  O   UNL d   1       6.045   3.780   0.101  0.00  0.00    -0.360 OA
ATOM     18  H   UNL d   1       6.041   4.537  -0.510  0.00  0.00     0.217 HD
ENDBRANCH  10  17
BRANCH  11  19
ATOM     19  C   UNL d   1       5.521   2.226  -2.338  0.00  0.00    -0.021 C 
ATOM     20  C   UNL d   1       5.036   1.206  -3.405  0.00  0.00     0.019 C 
ATOM     21  C   UNL d   1       5.605   3.585  -3.072  0.00  0.00     0.019 C 
ATOM     22  C   UNL d   1       6.938   1.769  -1.931  0.00  0.00     0.019 C 
ENDBRANCH  11  19
ENDBRANCH   4   7
BRANCH   3  23
ATOM     23  C   UNL d   1      -1.181  -1.110  -1.871  0.00  0.00    -0.002 A 
ATOM     24  C   UNL d   1      -0.638  -1.504  -3.103  0.00  0.00     0.015 A 
ATOM     25  C   UNL d   1      -1.414  -2.194  -4.047  0.00  0.00     0.010 A 
ATOM     26  C   UNL d   1      -2.761  -2.501  -3.793  0.00  0.00    -0.035 A 
ATOM     27  C   UNL d   1      -3.310  -2.085  -2.571  0.00  0.00     0.010 A 
ATOM     28  C   UNL d   1      -2.534  -1.396  -1.631  0.00  0.00     0.015 A 
BRANCH  26  29
ATOM     29  C   UNL d   1      -3.569  -3.275  -4.814  0.00  0.00     0.141 C 
ATOM     30  S   UNL d   1      -5.098  -2.437  -5.325  0.00  0.00    -0.148 SA
ATOM     31  C   UNL d   1      -5.904  -3.939  -5.919  0.00  0.00     0.085 C 
ATOM     32  C   UNL d   1      -5.695  -5.014  -4.869  0.00  0.00     0.085 C 
ATOM     33  S   UNL d   1      -3.985  -4.962  -4.249  0.00  0.00    -0.148 SA
ENDBRANCH  26  29
ENDBRANCH   3  23
TORSDOF 6
