REMARK  2 active torsions:
REMARK  status: ('A' for Active; 'I' for Inactive)
REMARK    1  A    between atoms: S_15  and  C_6 
REMARK    2  A    between atoms: C_14  and  C_8 
ROOT
ATOM      1  N   UNL d   1      -2.152  -1.794  -0.207  0.00  0.00    -0.236 N 
ATOM      2  C   UNL d   1      -1.045  -1.107  -0.613  0.00  0.00     0.144 A 
ATOM      3  N   UNL d   1       0.062  -1.788  -0.705  0.00  0.00    -0.351 N 
ATOM      4  HN  UNL d   1       0.939  -1.549  -1.166  1.00  0.00     0.163 HD
ATOM      5  N   UNL d   1      -1.796  -3.119   0.082  0.00  0.00    -0.202 NA
ATOM      6  C   UNL d   1      -3.388  -1.215  -0.048  0.00  0.00     0.162 A 
ATOM      7  C   UNL d   1      -1.198   0.332  -0.884  0.00  0.00     0.105 A 
ATOM      8  C   UNL d   1      -0.314  -3.022   0.057  0.00  0.00     0.209 C 
ATOM      9  N   UNL d   1      -3.565   0.064  -0.276  0.00  0.00    -0.344 N 
ATOM     10  HN  UNL d   1      -4.481   0.501  -0.177  1.00  0.00     0.167 HD
ATOM     11  C   UNL d   1      -2.447   0.800  -0.658  0.00  0.00     0.116 A 
ATOM     12  C   UNL d   1      -0.097   1.152  -1.202  0.00  0.00     0.104 C 
ATOM     13  N   UNL d   1       0.791   1.859  -1.451  0.00  0.00    -0.191 NA
ATOM     14  H   UNL d   1      -2.072  -3.701  -0.709  0.00  0.00     0.150 HD
ENDROOT
BRANCH   6  15
ATOM     15  S   UNL d   1      -4.760  -2.207   0.426  0.00  0.00    -0.097 SA
ATOM     16  C   UNL d   1      -6.007  -0.936   0.723  0.00  0.00     0.099 C 
ENDBRANCH   6  15
BRANCH   8  17
ATOM     17  C   UNL d   1       0.281  -2.917   1.467  0.00  0.00    -0.020 A 
ATOM     18  C   UNL d   1      -0.395  -3.372   2.611  0.00  0.00     0.012 A 
ATOM     19  C   UNL d   1       0.141  -3.164   3.885  0.00  0.00     0.024 A 
ATOM     20  C   UNL d   1       1.366  -2.514   4.029  0.00  0.00     0.034 A 
ATOM     21  C   UNL d   1       2.070  -2.088   2.910  0.00  0.00     0.024 A 
ATOM     22 CL   UNL d   1       2.005  -2.229   5.601  0.00  0.00    -0.084 Cl
ATOM     23  C   UNL d   1       1.538  -2.300   1.638  0.00  0.00     0.012 A 
ENDBRANCH   8  17
TORSDOF 2
