REMARK  2 active torsions:
REMARK  status: ('A' for Active; 'I' for Inactive)
REMARK    1  A    between atoms: C_9  and  N_1 
REMARK    2  A    between atoms: C_3  and  C_2 
ROOT
ATOM      1  C   UNL d   1       2.108  -1.571  -0.048  0.00  0.00     0.064 C 
ATOM      2  C   UNL d   1       3.330  -1.374   0.488  0.00  0.00     0.126 C 
ATOM      3  N   UNL d   1       4.027   0.722   1.828  0.00  0.00    -0.191 NA
ATOM      4  N   UNL d   1       5.089  -3.246   0.193  0.00  0.00    -0.191 NA
ATOM      5  C   UNL d   1       3.702  -0.222   1.233  0.00  0.00     0.111 C 
ATOM      6  C   UNL d   1       4.313  -2.394   0.325  0.00  0.00     0.111 C 
ENDROOT
BRANCH   1   7
ATOM      7  C   UNL d   1       1.004  -0.669   0.043  0.00  0.00     0.041 A 
ATOM      8  N   UNL d   1      -0.324  -1.133   0.017  0.00  0.00    -0.322 N 
ATOM      9  C   UNL d   1      -1.148  -0.024  -0.086  0.00  0.00     0.097 A 
ATOM     10  C   UNL d   1      -0.392   1.120  -0.044  0.00  0.00     0.020 A 
ATOM     11  C   UNL d   1       0.954   0.719   0.035  0.00  0.00     0.031 A 
BRANCH   8  12
ATOM     12  C   UNL d   1      -0.812  -2.478   0.070  0.00  0.00     0.039 A 
ATOM     13  C   UNL d   1      -0.139  -3.467   0.801  0.00  0.00     0.031 A 
ATOM     14  C   UNL d   1      -0.595  -4.790   0.785  0.00  0.00     0.026 A 
ATOM     15  C   UNL d   1      -1.734  -5.124   0.058  0.00  0.00     0.034 A 
ATOM     16  C   UNL d   1      -2.439  -4.142  -0.633  0.00  0.00     0.026 A 
ATOM     17 CL   UNL d   1      -2.272  -6.756   0.012  0.00  0.00    -0.084 Cl
ATOM     18  C   UNL d   1      -1.987  -2.818  -0.621  0.00  0.00     0.031 A 
ENDBRANCH   8  12
ENDBRANCH   1   7
TORSDOF 2
