REMARK  4 active torsions:
REMARK  status: ('A' for Active; 'I' for Inactive)
REMARK    1  A    between atoms: C_2  and  N_1 
REMARK       I    between atoms: C_3  and  N_1 
REMARK    2  A    between atoms: N_4  and  C_2 
REMARK    3  A    between atoms: C_7  and  C_3 
REMARK    4  A    between atoms: C_10  and  N_4 
ROOT
ATOM      1  C   UNL d   1       0.381  -1.159  -0.360  0.00  0.00     0.179 C 
ATOM      2  S   UNL d   1       1.135  -2.199  -1.423  0.00  0.00    -0.040 SA
ENDROOT
BRANCH   1   3
ATOM      3  N   UNL d   1       0.907   0.002   0.170  0.00  0.00    -0.299 N 
ATOM      4  C   UNL d   1       2.225   0.436   0.353  0.00  0.00     0.257 C 
ATOM      5  O   UNL d   1       3.232  -0.094  -0.089  0.00  0.00    -0.267 OA
ATOM      6  H   UNL d   1       0.194   0.633   0.466  0.00  0.00     0.171 HD
BRANCH   4   7
ATOM      7  C   UNL d   1       2.345   1.610   1.292  0.00  0.00     0.032 A 
ATOM      8  C   UNL d   1       3.512   1.722   2.058  0.00  0.00     0.017 A 
ATOM      9  C   UNL d   1       3.595   2.669   3.083  0.00  0.00     0.001 A 
ATOM     10  C   UNL d   1       2.514   3.509   3.351  0.00  0.00     0.000 A 
ATOM     11  C   UNL d   1       1.371   3.440   2.562  0.00  0.00     0.001 A 
ATOM     12  C   UNL d   1       1.293   2.513   1.520  0.00  0.00     0.017 A 
ENDBRANCH   4   7
ENDBRANCH   1   3
BRANCH   1  13
ATOM     13  N   UNL d   1      -0.917  -1.458   0.001  0.00  0.00    -0.332 N 
ATOM     14  H   UNL d   1      -1.294  -2.222  -0.554  0.00  0.00     0.168 HD
BRANCH  13  15
ATOM     15  C   UNL d   1      -1.787  -0.940   0.993  0.00  0.00     0.049 A 
ATOM     16  C   UNL d   1      -1.435  -0.093   2.041  0.00  0.00     0.117 A 
ATOM     17  N   UNL d   1      -2.313   0.491   2.894  0.00  0.00    -0.373 N 
ATOM     18  C   UNL d   1      -3.608   0.147   2.761  0.00  0.00     0.088 A 
ATOM     19  HN  UNL d   1      -2.007   1.159   3.603  1.00  0.00     0.164 HD
ATOM     20  C   UNL d   1      -4.054  -0.775   1.833  0.00  0.00     0.019 A 
ATOM     21  C   UNL d   1      -3.130  -1.323   0.940  0.00  0.00     0.032 A 
ENDBRANCH  13  15
ENDBRANCH   1  13
TORSDOF 4
