REMARK  3 active torsions:
REMARK  status: ('A' for Active; 'I' for Inactive)
REMARK    1  A    between atoms: C_6  and  N_1 
REMARK    2  A    between atoms: C_7  and  N_3 
REMARK    3  A    between atoms: C_12  and  C_6 
ROOT
ATOM      1  N   UNL d   1      -0.236  -1.272  -0.016  0.00  0.00    -0.254 N 
ATOM      2  C   UNL d   1       1.023  -0.719  -0.202  0.00  0.00     0.343 A 
ATOM      3  N   UNL d   1       0.981   0.679  -0.045  0.00  0.00    -0.228 N 
ATOM      4  C   UNL d   1      -1.258  -0.402   0.219  0.00  0.00     0.311 A 
ATOM      5  S   UNL d   1      -0.609   1.222   0.282  0.00  0.00     0.060 SA
ATOM      6  O   UNL d   1       2.012  -1.407  -0.436  0.00  0.00    -0.245 OA
ATOM      7  O   UNL d   1      -2.442  -0.660   0.368  0.00  0.00    -0.258 OA
ENDROOT
BRANCH   1   8
ATOM      8  C   UNL d   1      -0.438  -2.703   0.031  0.00  0.00     0.176 C 
BRANCH   8   9
ATOM      9  C   UNL d   1      -0.242  -3.236   1.437  0.00  0.00    -0.040 A 
ATOM     10  C   UNL d   1      -1.328  -3.329   2.322  0.00  0.00     0.012 A 
ATOM     11  C   UNL d   1      -1.136  -3.781   3.629  0.00  0.00     0.043 A 
ATOM     12  C   UNL d   1       0.139  -4.132   4.055  0.00  0.00     0.116 A 
ATOM     13  C   UNL d   1       1.229  -4.039   3.198  0.00  0.00     0.043 A 
ATOM     14  F   UNL d   1       0.322  -4.559   5.311  0.00  0.00    -0.206 F 
ATOM     15  C   UNL d   1       1.040  -3.592   1.891  0.00  0.00     0.012 A 
ENDBRANCH   8   9
ENDBRANCH   1   8
BRANCH   3  16
ATOM     16  C   UNL d   1       2.103   1.560  -0.081  0.00  0.00     0.051 A 
ATOM     17  C   UNL d   1       3.326   1.167  -0.644  0.00  0.00     0.031 A 
ATOM     18  C   UNL d   1       4.434   2.024  -0.659  0.00  0.00     0.009 A 
ATOM     19  C   UNL d   1       4.354   3.300  -0.098  0.00  0.00    -0.062 A 
ATOM     20  C   UNL d   1       3.143   3.711   0.458  0.00  0.00     0.009 A 
ATOM     21  C   UNL d   1       5.549   4.205  -0.116  0.00  0.00     0.048 C 
ATOM     22  C   UNL d   1       2.033   2.856   0.458  0.00  0.00     0.031 A 
ENDBRANCH   3  16
TORSDOF 3
