REMARK  4 active torsions:
REMARK  status: ('A' for Active; 'I' for Inactive)
REMARK    1  A    between atoms: N_2  and  C_1 
REMARK    2  A    between atoms: N_4  and  C_1 
REMARK    3  A    between atoms: C_3  and  N_2 
REMARK    4  A    between atoms: C_5  and  N_4 
ROOT
ATOM      1  C   UNL d   1       0.914  -0.444   0.194  0.00  0.00     0.176 C 
ATOM      2  S   UNL d   1       2.347  -1.307   0.184  0.00  0.00    -0.041 SA
ENDROOT
BRANCH   1   3
ATOM      3  N   UNL d   1       0.457   0.386   1.192  0.00  0.00    -0.333 N 
ATOM      4  H   UNL d   1      -0.541   0.321   1.344  0.00  0.00     0.168 HD
BRANCH   3   5
ATOM      5  C   UNL d   1       1.188   1.167   2.112  0.00  0.00     0.040 A 
ATOM      6  C   UNL d   1       0.651   1.451   3.380  0.00  0.00    -0.035 A 
ATOM      7  C   UNL d   1       1.325   2.361   4.214  0.00  0.00     0.009 A 
ATOM      8  C   UNL d   1      -0.600   0.815   3.921  0.00  0.00     0.050 C 
ATOM      9  C   UNL d   1       2.511   2.972   3.803  0.00  0.00     0.007 A 
ATOM     10  C   UNL d   1       3.052   2.683   2.550  0.00  0.00    -0.060 A 
ATOM     11  C   UNL d   1       2.384   1.780   1.712  0.00  0.00     0.037 A 
ATOM     12  C   UNL d   1       4.308   3.365   2.095  0.00  0.00     0.048 C 
ENDBRANCH   3   5
ENDBRANCH   1   3
BRANCH   1  13
ATOM     13  N   UNL d   1       0.004  -0.686  -0.807  0.00  0.00    -0.333 N 
ATOM     14  H   UNL d   1       0.189  -1.528  -1.345  0.00  0.00     0.168 HD
BRANCH  13  15
ATOM     15  C   UNL d   1      -0.925   0.215  -1.378  0.00  0.00     0.040 A 
ATOM     16  C   UNL d   1      -1.980  -0.275  -2.167  0.00  0.00    -0.035 A 
ATOM     17  C   UNL d   1      -2.274  -1.740  -2.347  0.00  0.00     0.050 C 
ATOM     18  C   UNL d   1      -2.824   0.642  -2.823  0.00  0.00     0.009 A 
ATOM     19  C   UNL d   1      -2.633   2.016  -2.695  0.00  0.00     0.001 A 
ATOM     20  C   UNL d   1      -1.597   2.497  -1.906  0.00  0.00     0.002 A 
ATOM     21  C   UNL d   1      -0.748   1.603  -1.253  0.00  0.00     0.030 A 
ENDBRANCH  13  15
ENDBRANCH   1  13
TORSDOF 4
