REMARK  2 active torsions:
REMARK  status: ('A' for Active; 'I' for Inactive)
REMARK    1  A    between atoms: C_3  and  S_1 
REMARK    2  A    between atoms: C_2  and  C_3 
ROOT
ATOM      1  C   UNL d   1       0.798  -2.493  -0.979  0.00  0.00    -0.001 A 
ATOM      2  C   UNL d   1       1.321  -2.057  -2.211  0.00  0.00     0.043 A 
ATOM      3  C   UNL d   1       0.571  -3.878  -0.829  0.00  0.00     0.043 A 
ATOM      4 CL   UNL d   1       0.013  -4.566   0.657  0.00  0.00    -0.084 Cl
ATOM      5 CL   UNL d   1       1.706  -0.397  -2.513  0.00  0.00    -0.084 Cl
ATOM      6  C   UNL d   1       1.339  -4.317  -3.083  0.00  0.00     0.003 A 
ATOM      7  C   UNL d   1       1.587  -2.959  -3.250  0.00  0.00     0.024 A 
ATOM      8  C   UNL d   1       0.832  -4.775  -1.873  0.00  0.00     0.024 A 
ENDROOT
BRANCH   1   9
ATOM      9  C   UNL d   1       0.515  -1.532   0.151  0.00  0.00     0.182 C 
BRANCH   9  10
ATOM     10  S   UNL d   1      -1.218  -1.063   0.212  0.00  0.00     0.144 S 
ATOM     11  O   UNL d   1      -1.434  -0.399   1.486  0.00  0.00    -0.228 OA
ATOM     12  O   UNL d   1      -2.059  -2.181  -0.174  0.00  0.00    -0.228 OA
ATOM     13  C   UNL d   1      -1.405   0.183  -1.037  0.00  0.00     0.161 C 
ENDBRANCH   9  10
ENDBRANCH   1   9
TORSDOF 2
