REMARK  5 active torsions:
REMARK  status: ('A' for Active; 'I' for Inactive)
REMARK    1  A    between atoms: C_3  and  C_1 
REMARK    2  A    between atoms: C_4  and  C_2 
REMARK       I    between atoms: N_6  and  C_3 
REMARK    3  A    between atoms: C_8  and  C_5 
REMARK    4  A    between atoms: C_7  and  N_6 
REMARK    5  A    between atoms: O_15  and  C_8 
ROOT
ATOM      1  C   UNL d   1       3.253   1.445   0.311  0.00  0.00     0.113 C 
ATOM      2  C   UNL d   1       2.689   2.561  -0.202  0.00  0.00     0.044 C 
ATOM      3  C   UNL d   1       4.659   1.445   0.552  0.00  0.00     0.105 C 
ATOM      4  N   UNL d   1       5.799   1.420   0.753  0.00  0.00    -0.191 NA
ENDROOT
BRANCH   1   5
ATOM      5  C   UNL d   1       2.458   0.193   0.571  0.00  0.00     0.266 C 
ATOM      6  N   UNL d   1       3.160  -0.883   1.089  0.00  0.00    -0.321 N 
ATOM      7  H   UNL d   1       4.049  -0.725   1.562  0.00  0.00     0.169 HD
ATOM      8  O   UNL d   1       1.247   0.164   0.366  0.00  0.00    -0.267 OA
BRANCH   6   9
ATOM      9  C   UNL d   1       2.623  -2.189   1.240  0.00  0.00     0.051 A 
ATOM     10  C   UNL d   1       3.077  -3.068   2.244  0.00  0.00     0.066 A 
ATOM     11  C   UNL d   1       2.501  -4.353   2.344  0.00  0.00     0.020 A 
ATOM     12  C   UNL d   1       1.516  -4.775   1.452  0.00  0.00     0.001 A 
ATOM     13  C   UNL d   1       1.088  -3.919   0.447  0.00  0.00     0.002 A 
ATOM     14  C   UNL d   1       1.637  -2.641   0.343  0.00  0.00     0.030 A 
BRANCH  10  15
ATOM     15  C   UNL d   1       4.075  -2.736   3.303  0.00  0.00     0.295 C 
ATOM     16  O   UNL d   1       4.282  -3.454   4.271  0.00  0.00    -0.259 OA
BRANCH  15  17
ATOM     17  O   UNL d   1       4.718  -1.565   3.056  0.00  0.00    -0.322 OA
ATOM     18  C   UNL d   1       5.670  -1.216   4.067  0.00  0.00     0.213 C 
ENDBRANCH  15  17
ENDBRANCH  10  15
ENDBRANCH   6   9
ENDBRANCH   1   5
BRANCH   2  19
ATOM     19  C   UNL d   1       1.280   2.737  -0.602  0.00  0.00     0.026 A 
ATOM     20  C   UNL d   1       0.341   3.185   0.336  0.00  0.00     0.128 A 
ATOM     21  F   UNL d   1       0.729   3.477   1.587  0.00  0.00    -0.205 F 
ATOM     22  C   UNL d   1      -1.005   3.340   0.004  0.00  0.00     0.043 A 
ATOM     23  C   UNL d   1      -1.439   3.047  -1.286  0.00  0.00     0.005 A 
ATOM     24  C   UNL d   1      -0.522   2.599  -2.238  0.00  0.00     0.025 A 
ATOM     25  C   UNL d   1       0.827   2.443  -1.898  0.00  0.00     0.047 A 
ATOM     26 CL   UNL d   1       1.907   1.876  -3.127  0.00  0.00    -0.083 Cl
ENDBRANCH   2  19
TORSDOF 5
