REMARK  4 active torsions:
REMARK  status: ('A' for Active; 'I' for Inactive)
REMARK       I    between atoms: C_3  and  N_8 
REMARK       I    between atoms: N_6  and  C_3 
REMARK    1  A    between atoms: O_16  and  C_4 
REMARK    2  A    between atoms: C_7  and  N_6 
REMARK    3  A    between atoms: N_8  and  C_9 
REMARK    4  A    between atoms: O_18  and  C_10 
ROOT
ATOM      1  C   UNL d   1       1.343   3.605  -0.426  0.00  0.00     0.325 C 
ATOM      2  N   UNL d   1       0.198   4.310  -0.227  0.00  0.00    -0.307 N 
ATOM      3  N   UNL d   1       1.429   2.384   0.181  0.00  0.00    -0.305 N 
ATOM      4  O   UNL d   1       2.342   4.036  -0.999  0.00  0.00    -0.247 OA
ATOM      5  H   UNL d   1      -0.340   4.056   0.592  0.00  0.00     0.170 HD
ATOM      6  H   UNL d   1       2.398   2.100   0.267  0.00  0.00     0.171 HD
ENDROOT
BRANCH   3   7
ATOM      7  C   UNL d   1       0.479   1.345   0.355  0.00  0.00     0.087 A 
ATOM      8  C   UNL d   1      -0.822   1.275  -0.165  0.00  0.00     0.171 A 
ATOM      9  N   UNL d   1      -1.615   0.178  -0.062  0.00  0.00    -0.316 N 
ATOM     10  C   UNL d   1      -1.103  -0.902   0.555  0.00  0.00     0.143 A 
ATOM     11  HN  UNL d   1      -2.564   0.173  -0.437  1.00  0.00     0.170 HD
ATOM     12  C   UNL d   1       0.154  -0.931   1.125  0.00  0.00     0.058 A 
ATOM     13  C   UNL d   1       0.952   0.205   1.018  0.00  0.00     0.038 A 
BRANCH   8  14
ATOM     14  O   UNL d   1      -1.329   2.342  -0.865  0.00  0.00    -0.339 OA
ATOM     15  C   UNL d   1      -2.524   2.064  -1.584  0.00  0.00     0.211 C 
ENDBRANCH   8  14
BRANCH  10  16
ATOM     16  O   UNL d   1      -1.834  -2.071   0.615  0.00  0.00    -0.341 OA
ATOM     17  C   UNL d   1      -3.001  -2.035  -0.201  0.00  0.00     0.211 C 
ENDBRANCH  10  16
ENDBRANCH   3   7
BRANCH   2  18
ATOM     18  C   UNL d   1      -0.189   5.489  -0.903  0.00  0.00     0.059 A 
ATOM     19  C   UNL d   1      -1.108   6.368  -0.295  0.00  0.00     0.082 A 
ATOM     20  C   UNL d   1      -1.527   7.518  -0.980  0.00  0.00     0.058 A 
ATOM     21 CL   UNL d   1      -1.671   6.024   1.313  0.00  0.00    -0.080 Cl
ATOM     22 CL   UNL d   1      -2.609   8.672  -0.279  0.00  0.00    -0.082 Cl
ATOM     23  C   UNL d   1      -1.070   7.772  -2.276  0.00  0.00     0.026 A 
ATOM     24  C   UNL d   1      -0.180   6.891  -2.887  0.00  0.00     0.004 A 
ATOM     25  C   UNL d   1       0.268   5.764  -2.199  0.00  0.00     0.031 A 
ENDBRANCH   2  18
TORSDOF 4
