REMARK  1 active torsions:
REMARK  status: ('A' for Active; 'I' for Inactive)
REMARK    1  A    between atoms: N_8  and  N_1 
ROOT
ATOM      1  N   UNL d   1       2.784   0.083  -0.022  0.00  0.00    -0.203 N 
ATOM      2  C   UNL d   1       2.110   1.316  -0.002  0.00  0.00     0.276 A 
ATOM      3  C   UNL d   1       2.167  -1.174   0.057  0.00  0.00     0.276 A 
ATOM      4  C   UNL d   1       0.627   1.256   0.010  0.00  0.00     0.046 A 
ATOM      5  C   UNL d   1       0.683  -1.184   0.042  0.00  0.00     0.046 A 
ATOM      6  C   UNL d   1      -0.036   0.021   0.020  0.00  0.00     0.007 A 
ATOM      7  C   UNL d   1      -1.461  -0.009   0.009  0.00  0.00    -0.006 A 
ATOM      8  C   UNL d   1      -0.090   2.459  -0.001  0.00  0.00     0.019 A 
ATOM      9  O   UNL d   1       2.759  -2.250   0.145  0.00  0.00    -0.266 OA
ATOM     10  O   UNL d   1       2.644   2.422   0.008  0.00  0.00    -0.266 OA
ATOM     11  C   UNL d   1      -2.162   1.224  -0.002  0.00  0.00     0.022 A 
ATOM     12  C   UNL d   1      -1.480   2.443  -0.005  0.00  0.00     0.021 A 
ATOM     13  C   UNL d   1       0.019  -2.417   0.047  0.00  0.00     0.018 A 
ATOM     14 BR   UNL d   1      -4.065   1.328  -0.011  0.00  0.00    -0.050 Br
ATOM     15  C   UNL d   1      -2.096  -1.274   0.010  0.00  0.00     0.014 A 
ATOM     16  C   UNL d   1      -1.368  -2.462   0.026  0.00  0.00     0.002 A 
ENDROOT
BRANCH   1  17
ATOM     17  N   UNL d   1       4.225   0.061  -0.077  0.00  0.00    -0.227 NA
ATOM     18  C   UNL d   1       4.765   0.659  -1.294  0.00  0.00     0.136 C 
ATOM     19  C   UNL d   1       4.853   0.587   1.130  0.00  0.00     0.136 C 
ENDBRANCH   1  17
TORSDOF 1
