REMARK  4 active torsions:
REMARK  status: ('A' for Active; 'I' for Inactive)
REMARK    1  A    between atoms: O_8  and  C_1 
REMARK    2  A    between atoms: N_7  and  C_2 
REMARK    3  A    between atoms: C_15  and  O_8 
REMARK    4  A    between atoms: C_11  and  C_12 
ROOT
ATOM      1  C   UNL d   1       2.691  -1.957   0.787  0.00  0.00     0.200 A 
ATOM      2  C   UNL d   1       3.933  -2.480   1.097  0.00  0.00     0.179 A 
ATOM      3  N   UNL d   1       2.642  -0.759   1.454  0.00  0.00    -0.273 N 
ATOM      4  N   UNL d   1       3.714  -0.529   2.243  0.00  0.00    -0.299 N 
ATOM      5  HN  UNL d   1       3.879   0.267   2.859  1.00  0.00     0.187 HD
ATOM      6  C   UNL d   1       4.511  -1.586   2.030  0.00  0.00     0.059 A 
ATOM      7  C   UNL d   1       1.579   0.218   1.429  0.00  0.00     0.180 C 
ATOM      8  C   UNL d   1       5.817  -1.663   2.732  0.00  0.00     0.072 C 
ENDROOT
BRANCH   1   9
ATOM      9  O   UNL d   1       1.665  -2.343   0.022  0.00  0.00    -0.290 OA
BRANCH   9  10
ATOM     10  C   UNL d   1       1.227  -3.645  -0.015  0.00  0.00     0.078 A 
ATOM     11  C   UNL d   1       1.360  -4.545   1.038  0.00  0.00     0.038 A 
ATOM     12  C   UNL d   1       0.861  -5.845   0.915  0.00  0.00     0.011 A 
ATOM     13  C   UNL d   1       0.168  -6.265  -0.237  0.00  0.00    -0.050 A 
ATOM     14  C   UNL d   1       0.025  -5.331  -1.276  0.00  0.00     0.011 A 
ATOM     15  C   UNL d   1       0.548  -4.036  -1.166  0.00  0.00     0.038 A 
BRANCH  13  16
ATOM     16  C   UNL d   1      -0.407  -7.690  -0.309  0.00  0.00    -0.024 C 
ATOM     17  C   UNL d   1      -1.247  -7.962  -1.577  0.00  0.00     0.019 C 
ATOM     18  C   UNL d   1       0.746  -8.716  -0.289  0.00  0.00     0.019 C 
ATOM     19  C   UNL d   1      -1.330  -7.940   0.905  0.00  0.00     0.019 C 
ENDBRANCH  13  16
ENDBRANCH   9  10
ENDBRANCH   1   9
BRANCH   2  20
ATOM     20  N   UNL d   1       4.500  -3.681   0.587  0.00  0.00    -0.109 N 
ATOM     21  O   UNL d   1       4.538  -3.808  -0.643  0.00  0.00    -0.532 OA
ATOM     22  O   UNL d   1       4.930  -4.488   1.421  0.00  0.00    -0.532 OA
ENDBRANCH   2  20
TORSDOF 4
