REMARK  1 active torsions:
REMARK  status: ('A' for Active; 'I' for Inactive)
REMARK       I    between atoms: N_4  and  C_1 
REMARK       I    between atoms: N_8  and  C_1 
REMARK    1  A    between atoms: C_5  and  N_4 
ROOT
ATOM      1  C   UNL d   1       1.582   4.048  -2.581  0.00  0.00     0.042 A 
ATOM      2  C   UNL d   1       0.801   3.229  -1.757  0.00  0.00     0.054 A 
ATOM      3  C   UNL d   1       1.005   1.849  -1.726  0.00  0.00     0.037 A 
ATOM      4  C   UNL d   1       2.589   3.504  -3.389  0.00  0.00    -0.040 A 
ATOM      5  C   UNL d   1       2.766   2.114  -3.385  0.00  0.00     0.011 A 
ATOM      6 CL   UNL d   1       1.276   5.750  -2.551  0.00  0.00    -0.084 Cl
ATOM      7  C   UNL d   1       1.983   1.296  -2.562  0.00  0.00     0.030 A 
ATOM      8  C   UNL d   1       3.483   4.368  -4.232  0.00  0.00     0.050 C 
ENDROOT
BRANCH   3   9
ATOM      9  N   UNL d   1       0.317   0.974  -0.856  0.00  0.00    -0.309 N 
ATOM     10  C   UNL d   1      -0.713   1.287  -0.016  0.00  0.00     0.320 C 
ATOM     11  O   UNL d   1      -1.348   2.337  -0.003  0.00  0.00    -0.247 OA
ATOM     12  N   UNL d   1      -1.056   0.339   0.899  0.00  0.00    -0.347 N 
ATOM     13  C   UNL d   1      -0.419  -0.905   1.262  0.00  0.00     0.151 C 
ATOM     14  H   UNL d   1      -1.825   0.652   1.479  0.00  0.00     0.163 HD
ATOM     15  H   UNL d   1       0.555  -0.002  -0.921  0.00  0.00     0.170 HD
ENDBRANCH   3   9
TORSDOF 1
