REMARK  5 active torsions:
REMARK  status: ('A' for Active; 'I' for Inactive)
REMARK    1  A    between atoms: C_5  and  C_1 
REMARK    2  A    between atoms: N_9  and  C_2 
REMARK    3  A    between atoms: N_6  and  C_11 
REMARK       I    between atoms: C_10  and  N_9 
REMARK       I    between atoms: N_18  and  C_10 
REMARK    4  A    between atoms: N_12  and  N_18 
REMARK    5  A    between atoms: C_22  and  C_21 
ROOT
ATOM      1  N   UNL d   1       0.572  -2.523  -0.610  0.00  0.00    -0.303 N 
ATOM      2  C   UNL d   1       1.897  -2.700  -0.222  0.00  0.00     0.339 C 
ATOM      3  N   UNL d   1       2.439  -3.812  -0.868  0.00  0.00    -0.252 N 
ATOM      4  O   UNL d   1       2.497  -1.948   0.536  0.00  0.00    -0.245 OA
ATOM      5  H   UNL d   1       0.349  -2.842  -1.541  0.00  0.00     0.171 HD
ATOM      6  H   UNL d   1       1.810  -4.411  -1.387  0.00  0.00     0.191 HD
ENDROOT
BRANCH   1   7
ATOM      7  C   UNL d   1      -0.243  -1.514  -0.103  0.00  0.00     0.097 A 
ATOM      8  C   UNL d   1      -1.293  -0.817  -0.785  0.00  0.00     0.097 A 
ATOM      9  N   UNL d   1      -1.849   0.102   0.019  0.00  0.00    -0.258 N 
ATOM     10  O   UNL d   1      -1.231  -0.034   1.242  0.00  0.00    -0.240 OA
ATOM     11  HN  UNL d   1      -2.583   0.767  -0.226  1.00  0.00     0.195 HD
ATOM     12  C   UNL d   1      -0.316  -1.036   1.187  0.00  0.00     0.101 A 
ATOM     13  C   UNL d   1       0.260  -1.428   2.488  0.00  0.00     0.081 C 
BRANCH   8  14
ATOM     14  C   UNL d   1      -1.813  -1.016  -2.137  0.00  0.00     0.038 A 
ATOM     15  C   UNL d   1      -2.406  -2.240  -2.502  0.00  0.00     0.048 A 
ATOM     16 CL   UNL d   1      -2.488  -3.604  -1.434  0.00  0.00    -0.083 Cl
ATOM     17  C   UNL d   1      -2.985  -2.413  -3.765  0.00  0.00     0.025 A 
ATOM     18  C   UNL d   1      -2.995  -1.366  -4.681  0.00  0.00     0.003 A 
ATOM     19  C   UNL d   1      -2.404  -0.152  -4.344  0.00  0.00     0.025 A 
ATOM     20  C   UNL d   1      -1.809   0.024  -3.087  0.00  0.00     0.048 A 
ATOM     21 CL   UNL d   1      -1.054   1.556  -2.798  0.00  0.00    -0.083 Cl
ENDBRANCH   8  14
ENDBRANCH   1   7
BRANCH   3  22
ATOM     22  N   UNL d   1       3.756  -4.160  -1.019  0.00  0.00    -0.307 N 
ATOM     23  C   UNL d   1       4.668  -3.617  -0.282  0.00  0.00     0.118 C 
ATOM     24  HN  UNL d   1       4.019  -4.853  -1.720  1.00  0.00     0.186 HD
BRANCH  23  25
ATOM     25  C   UNL d   1       6.103  -3.918  -0.493  0.00  0.00    -0.017 A 
ATOM     26  C   UNL d   1       6.521  -4.720  -1.558  0.00  0.00     0.048 A 
ATOM     27  C   UNL d   1       7.891  -4.969  -1.726  0.00  0.00     0.103 A 
ATOM     28  C   UNL d   1       8.834  -4.427  -0.838  0.00  0.00     0.036 A 
ATOM     29  C   UNL d   1       8.402  -3.625   0.219  0.00  0.00     0.003 A 
ATOM     30  C   UNL d   1       7.039  -3.369   0.391  0.00  0.00     0.013 A 
BRANCH  27  31
ATOM     31  N   UNL d   1       8.352  -5.807  -2.842  0.00  0.00    -0.116 N 
ATOM     32  O   UNL d   1       7.497  -6.223  -3.640  0.00  0.00    -0.532 OA
ATOM     33  O   UNL d   1       9.564  -6.046  -2.920  0.00  0.00    -0.532 OA
ENDBRANCH  27  31
ENDBRANCH  23  25
ENDBRANCH   3  22
TORSDOF 5
