REMARK  3 active torsions:
REMARK  status: ('A' for Active; 'I' for Inactive)
REMARK    1  A    between atoms: C_8  and  N_1 
REMARK    2  A    between atoms: S_9  and  C_2 
REMARK    3  A    between atoms: O_10  and  C_3 
ROOT
ATOM      1  N   UNL d   1      -0.135  -1.330  -0.132  0.00  0.00    -0.286 N 
ATOM      2  C   UNL d   1       0.875  -0.481  -0.530  0.00  0.00     0.162 A 
ATOM      3  C   UNL d   1      -1.149  -0.487   0.254  0.00  0.00     0.240 A 
ATOM      4  N   UNL d   1       0.475   0.765  -0.449  0.00  0.00    -0.277 N 
ATOM      5  HN  UNL d   1       1.020   1.590  -0.701  1.00  0.00     0.189 HD
ATOM      6  N   UNL d   1      -0.811   0.759   0.036  0.00  0.00    -0.263 N 
ATOM      7  HN  UNL d   1      -1.397   1.579   0.198  1.00  0.00     0.190 HD
ENDROOT
BRANCH   1   8
ATOM      8  C   UNL d   1      -0.109  -2.781  -0.155  0.00  0.00     0.095 C 
ATOM      9  C   UNL d   1       0.349  -3.366   1.188  0.00  0.00     0.026 C 
ATOM     10  C   UNL d   1       0.608  -4.866   1.054  0.00  0.00     0.002 C 
ATOM     11  C   UNL d   1      -0.606  -5.612   0.502  0.00  0.00     0.000 C 
ATOM     12  C   UNL d   1      -1.150  -4.984  -0.782  0.00  0.00     0.002 C 
ATOM     13  C   UNL d   1      -1.396  -3.481  -0.626  0.00  0.00     0.026 C 
ENDBRANCH   1   8
BRANCH   2  14
ATOM     14  S   UNL d   1       2.453  -0.955  -1.063  0.00  0.00    -0.105 SA
ATOM     15  H   UNL d   1       2.543  -2.168  -0.508  0.00  0.00     0.110 HD
ENDBRANCH   2  14
BRANCH   3  16
ATOM     16  O   UNL d   1      -2.319  -0.825   0.771  0.00  0.00    -0.331 OA
ATOM     17  H   UNL d   1      -2.231  -1.672   1.228  0.00  0.00     0.221 HD
ENDBRANCH   3  16
TORSDOF 3
