REMARK  4 active torsions:
REMARK  status: ('A' for Active; 'I' for Inactive)
REMARK    1  A    between atoms: C_12  and  C_3 
REMARK    2  A    between atoms: N_9  and  C_4 
REMARK    3  A    between atoms: C_16  and  N_9 
REMARK    4  A    between atoms: C_14  and  C_15 
ROOT
ATOM      1  C   UNL d   1      -0.027  -0.498   0.048  0.00  0.00     0.076 A 
ATOM      2  S   UNL d   1       1.663  -0.791   0.080  0.00  0.00    -0.084 SA
ATOM      3  C   UNL d   1       2.055   0.882   0.017  0.00  0.00     0.018 A 
ATOM      4  C   UNL d   1      -1.096  -1.402   0.058  0.00  0.00     0.126 A 
ATOM      5  C   UNL d   1       0.902   1.643  -0.034  0.00  0.00     0.050 A 
ATOM      6  C   UNL d   1      -0.290   0.864  -0.020  0.00  0.00     0.055 A 
ATOM      7  N   UNL d   1      -2.346  -0.883  -0.009  0.00  0.00    -0.337 N 
ATOM      8  HN  UNL d   1      -3.159  -1.499  -0.023  1.00  0.00     0.168 HD
ATOM      9  N   UNL d   1      -1.545   1.371  -0.066  0.00  0.00    -0.351 N 
ATOM     10  HN  UNL d   1      -1.739   2.372  -0.105  1.00  0.00     0.166 HD
ATOM     11  C   UNL d   1      -2.503   0.445  -0.057  0.00  0.00     0.182 A 
ENDROOT
BRANCH   3  12
ATOM     12  C   UNL d   1       3.457   1.337   0.003  0.00  0.00    -0.019 A 
ATOM     13  C   UNL d   1       3.811   2.531  -0.640  0.00  0.00     0.013 A 
ATOM     14  C   UNL d   1       5.142   2.978  -0.654  0.00  0.00     0.009 A 
ATOM     15  C   UNL d   1       6.169   2.250  -0.034  0.00  0.00    -0.051 A 
ATOM     16  C   UNL d   1       5.803   1.064   0.618  0.00  0.00     0.009 A 
ATOM     17  C   UNL d   1       4.475   0.618   0.638  0.00  0.00     0.013 A 
BRANCH  15  18
ATOM     18  C   UNL d   1       7.625   2.743  -0.095  0.00  0.00    -0.024 C 
ATOM     19  C   UNL d   1       8.626   1.803   0.615  0.00  0.00     0.019 C 
ATOM     20  C   UNL d   1       8.069   2.853  -1.570  0.00  0.00     0.019 C 
ATOM     21  C   UNL d   1       7.743   4.128   0.575  0.00  0.00     0.019 C 
ENDBRANCH  15  18
ENDBRANCH   3  12
BRANCH   4  22
ATOM     22  N   UNL d   1      -0.918  -2.787   0.171  0.00  0.00    -0.341 N 
ATOM     23  H   UNL d   1       0.031  -3.077   0.373  0.00  0.00     0.167 HD
BRANCH  22  24
ATOM     24  C   UNL d   1      -1.734  -3.801  -0.360  0.00  0.00     0.034 A 
ATOM     25  C   UNL d   1      -2.525  -3.599  -1.498  0.00  0.00     0.048 A 
ATOM     26  C   UNL d   1      -3.341  -4.617  -1.987  0.00  0.00     0.013 A 
ATOM     27 BR   UNL d   1      -4.365  -4.326  -3.550  0.00  0.00    -0.051 Br
ATOM     28  C   UNL d   1      -3.406  -5.844  -1.335  0.00  0.00     0.019 A 
ATOM     29  C   UNL d   1      -2.634  -6.057  -0.194  0.00  0.00     0.004 A 
ATOM     30  C   UNL d   1      -1.796  -5.044   0.284  0.00  0.00     0.029 A 
ENDBRANCH  22  24
ENDBRANCH   4  22
TORSDOF 4
