REMARK  5 active torsions:
REMARK  status: ('A' for Active; 'I' for Inactive)
REMARK    1  A    between atoms: C_2  and  S_1 
REMARK    2  A    between atoms: N_3  and  S_1 
REMARK    3  A    between atoms: C_4  and  C_8 
REMARK    4  A    between atoms: C_5  and  C_9 
REMARK       I    between atoms: C_7  and  N_6 
REMARK    5  A    between atoms: C_20  and  C_7 
ROOT
ATOM      1  S   UNL d   1       1.602  -0.145   0.140  0.00  0.00     0.243 S 
ATOM      2  O   UNL d   1       2.796   0.641   0.395  0.00  0.00    -0.206 OA
ATOM      3  O   UNL d   1       1.312  -1.328   0.927  0.00  0.00    -0.206 OA
ENDROOT
BRANCH   1   4
ATOM      4  C   UNL d   1       1.681  -0.710  -1.561  0.00  0.00     0.076 A 
ATOM      5  C   UNL d   1       2.641  -0.150  -2.410  0.00  0.00     0.041 A 
ATOM      6  C   UNL d   1       3.011  -0.809  -3.594  0.00  0.00     0.050 A 
ATOM      7  C   UNL d   1       2.390  -2.030  -3.918  0.00  0.00     0.032 A 
ATOM      8  C   UNL d   1       1.406  -2.595  -3.087  0.00  0.00     0.050 A 
ATOM      9  C   UNL d   1       1.048  -1.917  -1.907  0.00  0.00     0.041 A 
BRANCH   6  10
ATOM     10  C   UNL d   1       4.142  -0.290  -4.450  0.00  0.00     0.417 C 
ATOM     11  F   UNL d   1       4.583   0.941  -4.074  0.00  0.00    -0.166 F 
ATOM     12  F   UNL d   1       5.229  -1.108  -4.411  0.00  0.00    -0.166 F 
ATOM     13  F   UNL d   1       3.797  -0.183  -5.762  0.00  0.00    -0.166 F 
ENDBRANCH   6  10
BRANCH   8  14
ATOM     14  C   UNL d   1       0.859  -3.973  -3.397  0.00  0.00     0.417 C 
ATOM     15  F   UNL d   1      -0.317  -4.244  -2.769  0.00  0.00    -0.166 F 
ATOM     16  F   UNL d   1       0.629  -4.163  -4.725  0.00  0.00    -0.166 F 
ATOM     17  F   UNL d   1       1.723  -4.958  -3.024  0.00  0.00    -0.166 F 
ENDBRANCH   8  14
ENDBRANCH   1   4
BRANCH   1  18
ATOM     18  N   UNL d   1       0.253   0.908   0.208  0.00  0.00    -0.203 NA
ATOM     19  C   UNL d   1       0.546   2.396   0.252  0.00  0.00     0.127 C 
ATOM     20  C   UNL d   1       0.809   2.974   1.687  0.00  0.00     0.141 C 
ATOM     21  N   UNL d   1       0.001   2.350   2.752  0.00  0.00    -0.349 N 
ATOM     22  C   UNL d   1      -0.058   0.889   2.643  0.00  0.00     0.141 C 
ATOM     23  C   UNL d   1      -0.860   2.912   3.670  0.00  0.00     0.224 C 
ATOM     24  C   UNL d   1      -0.710   0.549   1.302  0.00  0.00     0.127 C 
ATOM     25  O   UNL d   1      -1.695   2.167   4.210  0.00  0.00    -0.273 OA
BRANCH  23  26
ATOM     26  C   UNL d   1      -0.936   4.415   4.005  0.00  0.00     0.078 C 
ATOM     27  C   UNL d   1       0.339   5.258   4.096  0.00  0.00     0.014 C 
ATOM     28  C   UNL d   1       1.248   4.868   5.256  0.00  0.00     0.001 C 
ATOM     29  C   UNL d   1       0.515   4.882   6.593  0.00  0.00     0.000 C 
ATOM     30  C   UNL d   1      -0.787   4.093   6.538  0.00  0.00     0.001 C 
ATOM     31  C   UNL d   1      -1.673   4.553   5.372  0.00  0.00     0.014 C 
ENDBRANCH  23  26
ENDBRANCH   1  18
TORSDOF 5
