REMARK  3 active torsions:
REMARK  status: ('A' for Active; 'I' for Inactive)
REMARK    1  A    between atoms: C_9  and  C_3 
REMARK    2  A    between atoms: C_5  and  C_4 
REMARK    3  A    between atoms: O_20  and  C_17 
ROOT
ATOM      1  N   UNL d   1       1.041   0.179   0.481  0.00  0.00    -0.318 N 
ATOM      2  HN  UNL d   1       1.942   0.361   0.924  1.00  0.00     0.169 HD
ATOM      3  C   UNL d   1       0.005   1.052   0.258  0.00  0.00     0.145 A 
ATOM      4  C   UNL d   1       0.586  -0.947  -0.016  0.00  0.00     0.183 A 
ATOM      5  N   UNL d   1      -1.025   0.524  -0.419  0.00  0.00    -0.241 N 
ATOM      6  HN  UNL d   1      -1.882   0.984  -0.727  1.00  0.00     0.196 HD
ATOM      7  O   UNL d   1      -0.642  -0.806  -0.603  0.00  0.00    -0.217 OA
ENDROOT
BRANCH   4   8
ATOM      8  C   UNL d   1       1.153  -2.292   0.004  0.00  0.00     0.037 A 
ATOM      9  C   UNL d   1       1.991  -2.743   1.041  0.00  0.00     0.025 A 
ATOM     10  C   UNL d   1       2.505  -4.044   1.022  0.00  0.00     0.023 A 
ATOM     11 BR   UNL d   1       2.454  -1.691   2.561  0.00  0.00    -0.050 Br
ATOM     12  C   UNL d   1       2.189  -4.907  -0.023  0.00  0.00     0.038 A 
ATOM     13  C   UNL d   1       1.361  -4.486  -1.062  0.00  0.00     0.069 A 
ATOM     14  C   UNL d   1       0.849  -3.186  -1.047  0.00  0.00     0.054 A 
BRANCH  13  15
ATOM     15  O   UNL d   1       1.131  -5.434  -2.019  0.00  0.00    -0.356 OA
ATOM     16  C   UNL d   1       0.287  -5.074  -3.106  0.00  0.00     0.210 C 
ENDBRANCH  13  15
ENDBRANCH   4   8
BRANCH   3  17
ATOM     17  C   UNL d   1       0.030   2.445   0.798  0.00  0.00     0.050 A 
ATOM     18  S   UNL d   1      -1.251   3.565   0.668  0.00  0.00    -0.098 SA
ATOM     19  C   UNL d   1      -0.403   4.733   1.590  0.00  0.00     0.050 A 
ATOM     20  C   UNL d   1       0.846   4.288   1.964  0.00  0.00     0.009 A 
ATOM     21  C   UNL d   1       1.099   2.964   1.500  0.00  0.00     0.023 A 
ENDBRANCH   3  17
TORSDOF 3
