REMARK  5 active torsions:
REMARK  status: ('A' for Active; 'I' for Inactive)
REMARK    1  A    between atoms: C_4  and  N_1 
REMARK    2  A    between atoms: C_10  and  C_5 
REMARK    3  A    between atoms: O_16  and  C_10 
REMARK    4  A    between atoms: O_17  and  C_11 
REMARK    5  A    between atoms: O_18  and  C_12 
ROOT
ATOM      1  C   UNL d   1       3.330  -0.051  -0.109  0.00  0.00     0.065 A 
ATOM      2  C   UNL d   1       4.059   0.667   0.851  0.00  0.00     0.069 A 
ATOM      3  C   UNL d   1       4.031  -0.834  -1.038  0.00  0.00     0.071 A 
ATOM      4  C   UNL d   1       5.466   0.594   0.854  0.00  0.00     0.059 A 
ATOM      5  C   UNL d   1       5.433  -0.893  -1.042  0.00  0.00     0.103 A 
ATOM      6  C   UNL d   1       6.166  -0.169  -0.090  0.00  0.00     0.102 A 
ENDROOT
BRANCH   1   7
ATOM      7  N   UNL d   1       1.924  -0.018  -0.199  0.00  0.00    -0.243 N 
ATOM      8  C   UNL d   1       1.175   1.129  -0.300  0.00  0.00     0.266 A 
ATOM      9  C   UNL d   1      -0.225   0.712  -0.233  0.00  0.00     0.048 A 
ATOM     10  O   UNL d   1       1.527   2.286  -0.441  0.00  0.00    -0.267 OA
ATOM     11  C   UNL d   1      -1.385   1.462  -0.264  0.00  0.00     0.018 A 
ATOM     12  C   UNL d   1      -0.247  -0.663  -0.081  0.00  0.00     0.048 A 
ATOM     13  C   UNL d   1      -2.593   0.776  -0.103  0.00  0.00     0.001 A 
ATOM     14  C   UNL d   1      -2.614  -0.622   0.083  0.00  0.00     0.001 A 
ATOM     15  C   UNL d   1      -1.427  -1.361   0.092  0.00  0.00     0.018 A 
ATOM     16  C   UNL d   1       1.135  -1.137  -0.092  0.00  0.00     0.266 A 
ATOM     17  O   UNL d   1       1.437  -2.311   0.028  0.00  0.00    -0.267 OA
ENDBRANCH   1   7
BRANCH   2  18
ATOM     18  C   UNL d   1       3.466   1.457   1.964  0.00  0.00     0.295 C 
ATOM     19  O   UNL d   1       4.051   2.382   2.501  0.00  0.00    -0.259 OA
BRANCH  18  20
ATOM     20  O   UNL d   1       2.289   0.918   2.377  0.00  0.00    -0.322 OA
ATOM     21  C   UNL d   1       1.705   1.573   3.506  0.00  0.00     0.213 C 
ENDBRANCH  18  20
ENDBRANCH   2  18
BRANCH   5  22
ATOM     22  O   UNL d   1       5.932  -1.642  -2.078  0.00  0.00    -0.353 OA
ATOM     23  C   UNL d   1       7.163  -2.317  -1.853  0.00  0.00     0.210 C 
ENDBRANCH   5  22
BRANCH   6  24
ATOM     24  O   UNL d   1       7.531  -0.226  -0.146  0.00  0.00    -0.353 OA
ATOM     25  C   UNL d   1       8.278   0.499   0.825  0.00  0.00     0.210 C 
ENDBRANCH   6  24
TORSDOF 5
