REMARK  4 active torsions:
REMARK  status: ('A' for Active; 'I' for Inactive)
REMARK    1  A    between atoms: C_4  and  C_1 
REMARK    2  A    between atoms: C_2  and  C_9 
REMARK       I    between atoms: C_3  and  N_5 
REMARK    3  A    between atoms: C_9  and  C_3 
REMARK    4  A    between atoms: N_5  and  C_22 
ROOT
ATOM      1  C   UNL d   1      -0.128  -6.001  -0.880  0.00  0.00     0.222 C 
ATOM      2  N   UNL d   1      -0.840  -7.206  -0.880  0.00  0.00    -0.327 N 
ATOM      3  O   UNL d   1      -0.561  -4.915  -1.232  0.00  0.00    -0.273 OA
ATOM      4  H   UNL d   1      -0.334  -8.033  -0.588  0.00  0.00     0.169 HD
ENDROOT
BRANCH   1   5
ATOM      5  C   UNL d   1       1.322  -6.200  -0.418  0.00  0.00     0.112 C 
BRANCH   5   6
ATOM      6  C   UNL d   1       2.272  -4.968  -0.373  0.00  0.00    -0.031 C 
ATOM      7  C   UNL d   1       1.758  -3.855   0.577  0.00  0.00     0.014 C 
ATOM      8  C   UNL d   1       2.764  -2.688   0.655  0.00  0.00    -0.013 C 
ATOM      9  C   UNL d   1       4.104  -3.207   1.198  0.00  0.00     0.009 C 
ATOM     10  C   UNL d   1       2.983  -2.102  -0.749  0.00  0.00     0.009 C 
ATOM     11  C   UNL d   1       4.659  -4.292   0.264  0.00  0.00    -0.013 C 
ATOM     12  C   UNL d   1       3.650  -5.450   0.174  0.00  0.00     0.014 C 
ATOM     13  C   UNL d   1       4.871  -3.699  -1.136  0.00  0.00     0.009 C 
ATOM     14  C   UNL d   1       3.532  -3.186  -1.692  0.00  0.00    -0.013 C 
ATOM     15  C   UNL d   1       2.524  -4.352  -1.775  0.00  0.00     0.014 C 
ENDBRANCH   5   6
ENDBRANCH   1   5
BRANCH   2  16
ATOM     16  C   UNL d   1      -2.114  -7.433  -1.458  0.00  0.00     0.034 A 
ATOM     17  C   UNL d   1      -2.935  -6.418  -1.947  0.00  0.00     0.030 A 
ATOM     18  C   UNL d   1      -4.066  -6.720  -2.717  0.00  0.00     0.018 A 
ATOM     19  C   UNL d   1      -4.399  -8.047  -3.011  0.00  0.00     0.048 A 
ATOM     20  C   UNL d   1      -3.663  -9.069  -2.399  0.00  0.00     0.018 A 
ATOM     21  C   UNL d   1      -2.530  -8.763  -1.625  0.00  0.00     0.030 A 
BRANCH  19  22
ATOM     22  C   UNL d   1      -5.475  -8.341  -4.031  0.00  0.00     0.417 C 
ATOM     23  F   UNL d   1      -5.643  -9.671  -4.278  0.00  0.00    -0.166 F 
ATOM     24  F   UNL d   1      -5.194  -7.777  -5.239  0.00  0.00    -0.166 F 
ATOM     25  F   UNL d   1      -6.699  -7.867  -3.673  0.00  0.00    -0.166 F 
ENDBRANCH  19  22
ENDBRANCH   2  16
TORSDOF 4
