REMARK  6 active torsions:
REMARK  status: ('A' for Active; 'I' for Inactive)
REMARK    1  A    between atoms: C_2  and  N_1 
REMARK    2  A    between atoms: C_3  and  C_2 
REMARK    3  A    between atoms: S_4  and  C_3 
REMARK    4  A    between atoms: C_7  and  C_3 
REMARK    5  A    between atoms: C_10  and  S_4 
REMARK    6  A    between atoms: N_13  and  C_11 
ROOT
ATOM      1  C   UNL d   1       1.134  -0.463   2.402  0.00  0.00     0.109 C 
ENDROOT
BRANCH   1   2
ATOM      2  C   UNL d   1       0.128  -0.317   1.249  0.00  0.00     0.221 C 
BRANCH   2   3
ATOM      3  N   UNL d   1       0.763   0.071  -0.038  0.00  0.00    -0.154 N 
ATOM      4  O   UNL d   1       0.207   0.965  -0.694  0.00  0.00    -0.536 OA
ATOM      5  O   UNL d   1       1.746  -0.580  -0.416  0.00  0.00    -0.536 OA
ENDBRANCH   2   3
ENDBRANCH   1   2
BRANCH   1   6
ATOM      6  S   UNL d   1       2.294   0.999   2.578  0.00  0.00    -0.118 SA
BRANCH   6   7
ATOM      7  C   UNL d   1       1.232   2.290   3.194  0.00  0.00     0.001 A 
ATOM      8  C   UNL d   1       1.438   2.824   4.470  0.00  0.00     0.020 A 
ATOM      9  C   UNL d   1       0.637   3.875   4.936  0.00  0.00     0.024 A 
ATOM     10  C   UNL d   1      -0.397   4.386   4.150  0.00  0.00     0.005 A 
ATOM     11  C   UNL d   1      -0.551   3.896   2.855  0.00  0.00     0.024 A 
ATOM     12  C   UNL d   1       0.258   2.862   2.381  0.00  0.00     0.020 A 
BRANCH  10  13
ATOM     13  N   UNL d   1      -1.092   5.534   4.542  0.00  0.00    -0.303 NA
ATOM     14  H   UNL d   1      -1.984   5.656   4.074  0.00  0.00     0.124 HD
ATOM     15  H   UNL d   1      -1.156   5.665   5.545  0.00  0.00     0.124 HD
ENDBRANCH  10  13
ENDBRANCH   6   7
ENDBRANCH   1   6
BRANCH   1  16
ATOM     16  C   UNL d   1       0.438  -0.860   3.726  0.00  0.00    -0.042 A 
ATOM     17  C   UNL d   1      -0.799  -1.541   3.721  0.00  0.00     0.011 A 
ATOM     18  C   UNL d   1      -1.472  -1.846   4.910  0.00  0.00     0.043 A 
ATOM     19  C   UNL d   1      -0.908  -1.493   6.123  0.00  0.00     0.116 A 
ATOM     20  C   UNL d   1       0.337  -0.888   6.174  0.00  0.00     0.043 A 
ATOM     21  F   UNL d   1      -1.568  -1.753   7.259  0.00  0.00    -0.206 F 
ATOM     22  C   UNL d   1       1.018  -0.605   4.985  0.00  0.00     0.011 A 
ENDBRANCH   1  16
TORSDOF 6
