REMARK  4 active torsions:
REMARK  status: ('A' for Active; 'I' for Inactive)
REMARK    1  A    between atoms: C_10  and  C_6 
REMARK    2  A    between atoms: C_12  and  C_7 
REMARK    3  A    between atoms: C_8  and  C_9 
REMARK    4  A    between atoms: C_13  and  C_14 
ROOT
ATOM      1  O   UNL d   1       0.581   0.655  -1.062  0.00  0.00    -0.273 OA
ATOM      2  N   UNL d   1       0.230  -1.056   0.331  0.00  0.00    -0.277 N 
ATOM      3  HN  UNL d   1       0.267  -1.988   0.745  1.00  0.00     0.189 HD
ATOM      4  N   UNL d   1      -0.460   0.038   0.817  0.00  0.00    -0.277 N 
ATOM      5  HN  UNL d   1      -1.035   0.072   1.659  1.00  0.00     0.189 HD
ATOM      6  C   UNL d   1       0.833  -0.659  -0.772  0.00  0.00     0.174 A 
ATOM      7  C   UNL d   1      -0.229   1.029  -0.020  0.00  0.00     0.174 A 
ENDROOT
BRANCH   6   8
ATOM      8  C   UNL d   1       1.714  -1.386  -1.677  0.00  0.00     0.017 A 
ATOM      9  C   UNL d   1       2.238  -0.796  -2.841  0.00  0.00     0.032 A 
ATOM     10  C   UNL d   1       3.101  -1.507  -3.695  0.00  0.00     0.048 A 
ATOM     11  C   UNL d   1       3.437  -2.829  -3.371  0.00  0.00     0.016 A 
ATOM     12  C   UNL d   1       2.921  -3.429  -2.224  0.00  0.00     0.002 A 
ATOM     13  C   UNL d   1       2.066  -2.712  -1.385  0.00  0.00     0.016 A 
BRANCH  10  14
ATOM     14  C   UNL d   1       3.670  -0.870  -4.939  0.00  0.00     0.417 C 
ATOM     15  F   UNL d   1       3.233   0.403  -5.148  0.00  0.00    -0.166 F 
ATOM     16  F   UNL d   1       5.029  -0.798  -4.911  0.00  0.00    -0.166 F 
ATOM     17  F   UNL d   1       3.355  -1.562  -6.069  0.00  0.00    -0.166 F 
ENDBRANCH  10  14
ENDBRANCH   6   8
BRANCH   7  18
ATOM     18  C   UNL d   1      -0.678   2.414   0.008  0.00  0.00     0.017 A 
ATOM     19  C   UNL d   1      -1.499   2.870   1.043  0.00  0.00     0.016 A 
ATOM     20  C   UNL d   1      -1.925   4.206   1.087  0.00  0.00     0.009 A 
ATOM     21  C   UNL d   1      -1.548   5.132   0.097  0.00  0.00    -0.051 A 
ATOM     22  C   UNL d   1      -0.726   4.661  -0.938  0.00  0.00     0.009 A 
ATOM     23  C   UNL d   1      -0.299   3.328  -0.983  0.00  0.00     0.016 A 
BRANCH  21  24
ATOM     24  C   UNL d   1      -2.035   6.591   0.165  0.00  0.00    -0.024 C 
ATOM     25  C   UNL d   1      -1.523   7.469  -1.001  0.00  0.00     0.019 C 
ATOM     26  C   UNL d   1      -3.578   6.626   0.119  0.00  0.00     0.019 C 
ATOM     27  C   UNL d   1      -1.553   7.250   1.475  0.00  0.00     0.019 C 
ENDBRANCH  21  24
ENDBRANCH   7  18
TORSDOF 4
