REMARK  8 active torsions:
REMARK  status: ('A' for Active; 'I' for Inactive)
REMARK    1  A    between atoms: C_4  and  S_1 
REMARK    2  A    between atoms: N_7  and  S_1 
REMARK    3  A    between atoms: C_2  and  C_5 
REMARK    4  A    between atoms: C_3  and  C_6 
REMARK    5  A    between atoms: N_12  and  N_7 
REMARK    6  A    between atoms: O_27  and  C_11 
REMARK    7  A    between atoms: C_14  and  C_18 
REMARK    8  A    between atoms: O_29  and  C_26 
ROOT
ATOM      1  S   UNL d   1       1.106  -0.134  -0.021  0.00  0.00     0.276 S 
ATOM      2  O   UNL d   1       0.488  -0.919   1.024  0.00  0.00    -0.199 OA
ATOM      3  O   UNL d   1       2.543  -0.058  -0.159  0.00  0.00    -0.199 OA
ENDROOT
BRANCH   1   4
ATOM      4  C   UNL d   1       0.472   1.529   0.114  0.00  0.00     0.082 A 
ATOM      5  C   UNL d   1      -0.766   1.753   0.727  0.00  0.00     0.041 A 
ATOM      6  C   UNL d   1      -1.207   3.064   0.965  0.00  0.00     0.050 A 
ATOM      7  C   UNL d   1      -0.382   4.140   0.586  0.00  0.00     0.032 A 
ATOM      8  C   UNL d   1       0.877   3.923  -0.004  0.00  0.00     0.050 A 
ATOM      9  C   UNL d   1       1.289   2.605  -0.254  0.00  0.00     0.041 A 
BRANCH   6  10
ATOM     10  C   UNL d   1      -2.517   3.333   1.672  0.00  0.00     0.417 C 
ATOM     11  F   UNL d   1      -3.179   2.200   2.036  0.00  0.00    -0.166 F 
ATOM     12  F   UNL d   1      -2.347   4.052   2.815  0.00  0.00    -0.166 F 
ATOM     13  F   UNL d   1      -3.386   4.045   0.904  0.00  0.00    -0.166 F 
ENDBRANCH   6  10
BRANCH   8  14
ATOM     14  C   UNL d   1       1.792   5.094  -0.284  0.00  0.00     0.417 C 
ATOM     15  F   UNL d   1       3.006   4.733  -0.781  0.00  0.00    -0.166 F 
ATOM     16  F   UNL d   1       1.261   5.974  -1.175  0.00  0.00    -0.166 F 
ATOM     17  F   UNL d   1       2.051   5.815   0.844  0.00  0.00    -0.166 F 
ENDBRANCH   8  14
ENDBRANCH   1   4
BRANCH   1  18
ATOM     18  N   UNL d   1       0.438  -0.671  -1.483  0.00  0.00    -0.223 N 
ATOM     19  H   UNL d   1      -0.118  -1.525  -1.402  0.00  0.00     0.200 HD
BRANCH  18  20
ATOM     20  N   UNL d   1       0.707   0.002  -2.705  0.00  0.00    -0.301 N 
ATOM     21  C   UNL d   1       0.193  -0.543  -3.761  0.00  0.00     0.122 C 
ATOM     22  HN  UNL d   1       1.266   0.854  -2.748  1.00  0.00     0.186 HD
BRANCH  21  23
ATOM     23  C   UNL d   1       0.400   0.057  -5.095  0.00  0.00     0.014 A 
ATOM     24  C   UNL d   1       1.187   1.203  -5.278  0.00  0.00     0.080 A 
ATOM     25  C   UNL d   1       1.368   1.732  -6.552  0.00  0.00     0.074 A 
ATOM     26  C   UNL d   1       0.735   1.136  -7.637  0.00  0.00     0.068 A 
ATOM     27  C   UNL d   1      -0.053  -0.002  -7.473  0.00  0.00     0.037 A 
ATOM     28  C   UNL d   1      -0.217  -0.548  -6.196  0.00  0.00     0.018 A 
BRANCH  24  29
ATOM     29  O   UNL d   1       1.801   1.866  -4.251  0.00  0.00    -0.360 OA
ATOM     30  H   UNL d   1       1.601   1.390  -3.419  0.00  0.00     0.217 HD
ENDBRANCH  24  29
BRANCH  26  31
ATOM     31  O   UNL d   1       0.907   1.711  -8.862  0.00  0.00    -0.361 OA
ATOM     32  H   UNL d   1       0.302   1.296  -9.494  0.00  0.00     0.217 HD
ENDBRANCH  26  31
ENDBRANCH  21  23
ENDBRANCH  18  20
ENDBRANCH   1  18
TORSDOF 8
