REMARK  9 active torsions:
REMARK  status: ('A' for Active; 'I' for Inactive)
REMARK    1  A    between atoms: C_7  and  C_1 
REMARK    2  A    between atoms: C_8  and  C_7 
REMARK    3  A    between atoms: C_11  and  C_23 
REMARK    4  A    between atoms: O_16  and  C_11 
REMARK    5  A    between atoms: C_12  and  C_17 
REMARK    6  A    between atoms: C_20  and  C_12 
REMARK    7  A    between atoms: C_17  and  O_16 
REMARK    8  A    between atoms: O_22  and  C_21 
REMARK    9  A    between atoms: C_23  and  O_22 
ROOT
ATOM      1  C   UNL d   1      -1.772  -0.958   0.030  0.00  0.00     0.029 C 
ATOM      2  C   UNL d   1      -1.993   0.511   0.151  0.00  0.00     0.295 C 
ATOM      3  C   UNL d   1      -0.527  -1.480  -0.063  0.00  0.00    -0.036 C 
ATOM      4  O   UNL d   1      -0.892   1.334  -0.005  0.00  0.00    -0.274 OA
ATOM      5  C   UNL d   1       0.409   0.808  -0.056  0.00  0.00     0.092 A 
ATOM      6  C   UNL d   1       0.628  -0.566  -0.044  0.00  0.00     0.005 A 
ATOM      7  C   UNL d   1       1.450   1.746  -0.083  0.00  0.00     0.075 A 
ATOM      8  C   UNL d   1       1.964  -0.993  -0.011  0.00  0.00     0.017 A 
ATOM      9  O   UNL d   1      -3.107   0.984   0.354  0.00  0.00    -0.259 OA
ATOM     10  C   UNL d   1       2.769   1.302  -0.077  0.00  0.00     0.072 A 
ATOM     11  C   UNL d   1       3.019  -0.069  -0.013  0.00  0.00     0.038 A 
ATOM     12  C   UNL d   1      -0.246  -2.961  -0.129  0.00  0.00     0.050 C 
ENDROOT
BRANCH  10  13
ATOM     13  O   UNL d   1       3.879   2.104  -0.069  0.00  0.00    -0.341 OA
BRANCH  13  14
ATOM     14  C   UNL d   1       3.750   3.342  -0.760  0.00  0.00     0.286 C 
BRANCH  14  15
ATOM     15  C   UNL d   1       5.019   4.194  -0.795  0.00  0.00     0.283 C 
ATOM     16  O   UNL d   1       5.052   5.314  -1.295  0.00  0.00    -0.263 OA
BRANCH  15  17
ATOM     17  O   UNL d   1       6.070   3.606  -0.162  0.00  0.00    -0.312 OA
BRANCH  17  18
ATOM     18  C   UNL d   1       7.254   4.407  -0.096  0.00  0.00     0.262 C 
BRANCH  18  19
ATOM     19  C   UNL d   1       8.116   4.359  -1.358  0.00  0.00     0.183 C 
ATOM     20  O   UNL d   1       7.823   3.655  -2.325  0.00  0.00    -0.290 OA
BRANCH  19  21
ATOM     21  C   UNL d   1       9.376   5.172  -1.392  0.00  0.00     0.012 A 
ATOM     22  C   UNL d   1       9.773   5.995  -0.329  0.00  0.00     0.015 A 
ATOM     23  C   UNL d   1      10.967   6.723  -0.409  0.00  0.00     0.001 A 
ATOM     24  C   UNL d   1      11.770   6.634  -1.543  0.00  0.00     0.000 A 
ATOM     25  C   UNL d   1      11.384   5.820  -2.604  0.00  0.00     0.001 A 
ATOM     26  C   UNL d   1      10.192   5.092  -2.530  0.00  0.00     0.015 A 
ENDBRANCH  19  21
ENDBRANCH  18  19
ENDBRANCH  17  18
ENDBRANCH  15  17
ENDBRANCH  14  15
ENDBRANCH  13  14
ENDBRANCH  10  13
BRANCH   1  27
ATOM     27  C   UNL d   1      -3.050  -1.760  -0.009  0.00  0.00     0.087 C 
BRANCH  27  28
ATOM     28  C   UNL d   1      -3.676  -2.295   1.276  0.00  0.00    -0.010 A 
ATOM     29  C   UNL d   1      -3.179  -2.145   2.588  0.00  0.00     0.042 A 
ATOM     30 CL   UNL d   1      -1.694  -1.367   3.012  0.00  0.00    -0.084 Cl
ATOM     31  C   UNL d   1      -3.883  -2.653   3.694  0.00  0.00     0.024 A 
ATOM     32  C   UNL d   1      -5.088  -3.324   3.534  0.00  0.00     0.003 A 
ATOM     33  C   UNL d   1      -5.590  -3.510   2.256  0.00  0.00     0.024 A 
ATOM     34  C   UNL d   1      -4.897  -3.010   1.147  0.00  0.00     0.042 A 
ATOM     35 CL   UNL d   1      -5.618  -3.332  -0.400  0.00  0.00    -0.084 Cl
ENDBRANCH  27  28
ENDBRANCH   1  27
TORSDOF 9
