REMARK  3 active torsions:
REMARK  status: ('A' for Active; 'I' for Inactive)
REMARK    1  A    between atoms: C_4  and  C_1 
REMARK    2  A    between atoms: C_3  and  C_2 
REMARK    3  A    between atoms: C_9  and  C_4 
ROOT
ATOM      1  C   UNL d   1       0.570   0.542  -0.150  0.00  0.00     0.081 C 
ATOM      2  C   UNL d   1      -0.847   0.996   0.009  0.00  0.00     0.090 C 
ATOM      3  N   UNL d   1       0.734  -0.654  -0.630  0.00  0.00    -0.321 N 
ATOM      4  HN  UNL d   1       1.622  -1.135  -0.773  1.00  0.00     0.180 HD
ATOM      5  N   UNL d   1      -0.498  -1.140  -0.903  0.00  0.00    -0.239 NA
ATOM      6  C   UNL d   1      -1.572  -0.288  -0.396  0.00  0.00     0.126 C 
ATOM      7  H   UNL d   1      -0.609  -2.119  -0.626  0.00  0.00     0.146 HD
ENDROOT
BRANCH   2   8
ATOM      8  C   UNL d   1      -1.343   1.510   1.363  0.00  0.00    -0.025 A 
ATOM      9  C   UNL d   1      -2.389   2.512   1.348  0.00  0.00    -0.018 A 
ATOM     10  C   UNL d   1      -2.914   2.964   2.579  0.00  0.00    -0.025 A 
ATOM     11  C   UNL d   1      -2.962   3.087   0.182  0.00  0.00     0.013 A 
ATOM     12  C   UNL d   1      -3.942   3.925   2.621  0.00  0.00     0.012 A 
ATOM     13  C   UNL d   1      -2.417   2.457   3.781  0.00  0.00     0.024 A 
ATOM     14  C   UNL d   1      -4.473   4.466   1.455  0.00  0.00     0.001 A 
ATOM     15  C   UNL d   1      -3.980   4.048   0.232  0.00  0.00     0.001 A 
ATOM     16  C   UNL d   1      -1.418   1.484   3.820  0.00  0.00    -0.025 A 
ATOM     17  C   UNL d   1      -0.877   0.965   2.620  0.00  0.00    -0.018 A 
ATOM     18  C   UNL d   1      -0.983   1.029   5.077  0.00  0.00     0.012 A 
ATOM     19  C   UNL d   1       0.076  -0.078   2.789  0.00  0.00     0.013 A 
ATOM     20  C   UNL d   1       0.526  -0.509   4.043  0.00  0.00     0.001 A 
ATOM     21  C   UNL d   1      -0.002   0.051   5.192  0.00  0.00     0.001 A 
ENDBRANCH   2   8
BRANCH   1  22
ATOM     22  C   UNL d   1       1.707   1.467   0.189  0.00  0.00     0.206 C 
ATOM     23  O   UNL d   1       1.534   2.667   0.012  0.00  0.00    -0.285 OA
BRANCH  22  24
ATOM     24  C   UNL d   1       2.973   0.959   0.783  0.00  0.00     0.017 A 
ATOM     25  C   UNL d   1       3.485  -0.314   0.512  0.00  0.00     0.034 A 
ATOM     26  C   UNL d   1       4.664  -0.734   1.129  0.00  0.00     0.011 A 
ATOM     27 BR   UNL d   1       5.339  -2.466   0.771  0.00  0.00    -0.051 Br
ATOM     28  C   UNL d   1       5.349   0.103   2.004  0.00  0.00     0.019 A 
ATOM     29  C   UNL d   1       4.854   1.382   2.261  0.00  0.00     0.002 A 
ATOM     30  C   UNL d   1       3.674   1.809   1.651  0.00  0.00     0.015 A 
ENDBRANCH  22  24
ENDBRANCH   1  22
TORSDOF 3
