REMARK  8 active torsions:
REMARK  status: ('A' for Active; 'I' for Inactive)
REMARK    1  A    between atoms: C_3  and  C_1 
REMARK    2  A    between atoms: C_2  and  C_8 
REMARK    3  A    between atoms: C_6  and  C_2 
REMARK    4  A    between atoms: C_7  and  C_2 
REMARK    5  A    between atoms: C_4  and  C_6 
REMARK    6  A    between atoms: O_18  and  C_4 
REMARK    7  A    between atoms: C_5  and  C_7 
REMARK    8  A    between atoms: O_19  and  C_5 
ROOT
ATOM      1  C   UNL d   1      -0.596  -5.289   1.442  0.00  0.00     0.038 C 
ENDROOT
BRANCH   1   2
ATOM      2  C   UNL d   1      -0.152  -3.885   1.026  0.00  0.00    -0.053 A 
ATOM      3  C   UNL d   1       0.009  -2.893   2.007  0.00  0.00     0.008 A 
ATOM      4  C   UNL d   1       0.392  -1.593   1.660  0.00  0.00     0.017 A 
ATOM      5  C   UNL d   1       0.631  -1.252   0.322  0.00  0.00     0.047 A 
ATOM      6  C   UNL d   1       0.476  -2.240  -0.658  0.00  0.00     0.017 A 
ATOM      7  C   UNL d   1       0.079  -3.536  -0.312  0.00  0.00     0.008 A 
BRANCH   5   8
ATOM      8  C   UNL d   1       1.037   0.154  -0.046  0.00  0.00     0.417 C 
ATOM      9  F   UNL d   1       1.264   0.325  -1.380  0.00  0.00    -0.166 F 
ATOM     10  F   UNL d   1       2.176   0.556   0.580  0.00  0.00    -0.166 F 
ATOM     11  F   UNL d   1       0.085   1.070   0.286  0.00  0.00    -0.166 F 
ENDBRANCH   5   8
ENDBRANCH   1   2
BRANCH   1  12
ATOM     12  C   UNL d   1      -2.138  -5.319   1.438  0.00  0.00     0.119 C 
BRANCH  12  13
ATOM     13  C   UNL d   1      -2.695  -6.644   1.890  0.00  0.00     0.140 C 
ATOM     14  O   UNL d   1      -2.872  -7.593   1.139  0.00  0.00    -0.650 OA
BRANCH  13  15
ATOM     15  O   UNL d   1      -2.937  -6.718   3.214  0.00  0.00    -0.776 OA
ATOM     16  H   UNL d   1      -2.767  -5.895   3.713  0.00  0.00     0.167 HD
ENDBRANCH  13  15
ENDBRANCH  12  13
ENDBRANCH   1  12
BRANCH   1  17
ATOM     17  C   UNL d   1      -0.010  -6.433   0.583  0.00  0.00     0.119 C 
BRANCH  17  18
ATOM     18  C   UNL d   1       1.498  -6.521   0.623  0.00  0.00     0.140 C 
ATOM     19  O   UNL d   1       2.232  -5.851   1.329  0.00  0.00    -0.650 OA
BRANCH  18  20
ATOM     20  O   UNL d   1       1.972  -7.482  -0.206  0.00  0.00    -0.776 OA
ATOM     21  H   UNL d   1       1.275  -7.984  -0.671  0.00  0.00     0.167 HD
ENDBRANCH  18  20
ENDBRANCH  17  18
ENDBRANCH   1  17
TORSDOF 8
