REMARK  10 active torsions:
REMARK  status: ('A' for Active; 'I' for Inactive)
REMARK    1  A    between atoms: N_4  and  C_1 
REMARK    2  A    between atoms: C_5  and  C_1 
REMARK    3  A    between atoms: C_6  and  C_1 
REMARK    4  A    between atoms: N_8  and  C_1 
REMARK    5  A    between atoms: S_2  and  C_12 
REMARK    6  A    between atoms: N_3  and  S_2 
REMARK    7  A    between atoms: C_7  and  N_3 
REMARK       I    between atoms: C_9  and  N_4 
REMARK    8  A    between atoms: C_27  and  N_8 
REMARK    9  A    between atoms: O_28  and  C_9 
REMARK   10  A    between atoms: C_31  and  O_28 
ROOT
ATOM      1  N   UNL d   1       2.531   0.302   0.093  0.00  0.00    -0.349 N 
ATOM      2  H   UNL d   1       3.035  -0.320   0.731  0.00  0.00     0.162 HD
ENDROOT
BRANCH   1   3
ATOM      3  C   UNL d   1       1.034   0.084   0.141  0.00  0.00     0.308 C 
BRANCH   3   4
ATOM      4  N   UNL d   1       0.535   1.361  -0.370  0.00  0.00    -0.295 N 
ATOM      5  C   UNL d   1      -0.785   1.568  -0.571  0.00  0.00     0.362 C 
ATOM      6  O   UNL d   1      -1.640   0.754  -0.291  0.00  0.00    -0.238 OA
ATOM      7  H   UNL d   1       1.185   2.092  -0.617  0.00  0.00     0.168 HD
BRANCH   5   8
ATOM      8  O   UNL d   1      -0.951   2.754  -1.195  0.00  0.00    -0.304 OA
BRANCH   8   9
ATOM      9  C   UNL d   1      -2.236   2.944  -1.800  0.00  0.00     0.176 C 
ATOM     10  C   UNL d   1      -2.219   2.306  -3.178  0.00  0.00     0.034 C 
ENDBRANCH   8   9
ENDBRANCH   5   8
ENDBRANCH   3   4
BRANCH   3  11
ATOM     11  C   UNL d   1       0.597  -1.185  -0.680  0.00  0.00     0.441 C 
ATOM     12  F   UNL d   1       0.036  -0.839  -1.872  0.00  0.00    -0.166 F 
ATOM     13  F   UNL d   1       1.677  -1.951  -1.002  0.00  0.00    -0.166 F 
ATOM     14  F   UNL d   1      -0.273  -2.015  -0.076  0.00  0.00    -0.166 F 
ENDBRANCH   3  11
BRANCH   3  15
ATOM     15  C   UNL d   1       0.612  -0.134   1.649  0.00  0.00     0.441 C 
ATOM     16  F   UNL d   1       0.086   1.002   2.186  0.00  0.00    -0.166 F 
ATOM     17  F   UNL d   1      -0.262  -1.119   1.904  0.00  0.00    -0.166 F 
ATOM     18  F   UNL d   1       1.719  -0.406   2.404  0.00  0.00    -0.166 F 
ENDBRANCH   3  15
ENDBRANCH   1   3
BRANCH   1  19
ATOM     19  C   UNL d   1       3.325   0.776  -0.934  0.00  0.00     0.030 A 
ATOM     20  C   UNL d   1       4.603   1.242  -0.582  0.00  0.00     0.031 A 
ATOM     21  C   UNL d   1       5.406   1.932  -1.490  0.00  0.00     0.027 A 
ATOM     22  C   UNL d   1       4.946   2.143  -2.787  0.00  0.00     0.075 A 
ATOM     23  C   UNL d   1       3.696   1.661  -3.175  0.00  0.00     0.027 A 
ATOM     24  C   UNL d   1       2.895   0.979  -2.250  0.00  0.00     0.031 A 
BRANCH  22  25
ATOM     25  S   UNL d   1       5.882   3.182  -3.873  0.00  0.00     0.247 S 
ATOM     26  O   UNL d   1       4.953   3.747  -4.837  0.00  0.00    -0.205 OA
ATOM     27  O   UNL d   1       6.717   4.057  -3.084  0.00  0.00    -0.205 OA
BRANCH  25  28
ATOM     28  N   UNL d   1       6.822   2.100  -4.758  0.00  0.00    -0.160 NA
ATOM     29  H   UNL d   1       6.851   2.444  -5.714  0.00  0.00     0.148 HD
BRANCH  28  30
ATOM     30  C   UNL d   1       8.094   1.904  -4.183  0.00  0.00     0.136 A 
ATOM     31  N   UNL d   1       8.259   1.062  -3.194  0.00  0.00    -0.350 N 
ATOM     32  C   UNL d   1       9.609   0.967  -2.906  0.00  0.00     0.097 A 
ATOM     33  HN  UNL d   1       7.514   0.558  -2.714  1.00  0.00     0.166 HD
ATOM     34  C   UNL d   1      10.436   1.779  -3.654  0.00  0.00     0.069 A 
ATOM     35  S   UNL d   1       9.506   2.615  -4.829  0.00  0.00    -0.070 SA
ENDBRANCH  28  30
ENDBRANCH  25  28
ENDBRANCH  22  25
ENDBRANCH   1  19
TORSDOF 10
