REMARK  3 active torsions:
REMARK  status: ('A' for Active; 'I' for Inactive)
REMARK    1  A    between atoms: C_7  and  C_3 
REMARK    2  A    between atoms: C_10  and  C_4 
REMARK    3  A    between atoms: C_9  and  C_14 
ROOT
ATOM      1  N   UNL d   1       1.377  -0.623   0.158  0.00  0.00    -0.349 N 
ATOM      2  HN  UNL d   1       2.240  -1.145   0.307  1.00  0.00     0.166 HD
ATOM      3  C   UNL d   1       1.301   0.756   0.053  0.00  0.00     0.050 A 
ATOM      4  C   UNL d   1       0.180  -1.170   0.041  0.00  0.00     0.084 A 
ATOM      5  S   UNL d   1      -1.116  -0.034  -0.032  0.00  0.00    -0.081 SA
ATOM      6  C   UNL d   1       0.015   1.247  -0.037  0.00  0.00     0.082 A 
ENDROOT
BRANCH   4   7
ATOM      7  C   UNL d   1      -0.076  -2.621   0.004  0.00  0.00    -0.002 A 
ATOM      8  C   UNL d   1       0.811  -3.497   0.642  0.00  0.00     0.015 A 
ATOM      9  C   UNL d   1       0.586  -4.880   0.639  0.00  0.00     0.010 A 
ATOM     10  C   UNL d   1      -0.529  -5.429  -0.013  0.00  0.00    -0.035 A 
ATOM     11  C   UNL d   1      -1.400  -4.553  -0.679  0.00  0.00     0.010 A 
ATOM     12  C   UNL d   1      -1.171  -3.172  -0.676  0.00  0.00     0.015 A 
BRANCH  10  13
ATOM     13  C   UNL d   1      -0.777  -6.922   0.043  0.00  0.00     0.141 C 
ATOM     14  S   UNL d   1      -0.947  -7.705  -1.586  0.00  0.00    -0.148 SA
ATOM     15  C   UNL d   1      -1.843  -9.145  -0.967  0.00  0.00     0.085 C 
ATOM     16  C   UNL d   1      -2.920  -8.636  -0.028  0.00  0.00     0.085 C 
ATOM     17  S   UNL d   1      -2.238  -7.346   1.057  0.00  0.00    -0.148 SA
ENDBRANCH  10  13
ENDBRANCH   4   7
BRANCH   3  18
ATOM     18  C   UNL d   1       2.490   1.609   0.025  0.00  0.00    -0.003 A 
ATOM     19  C   UNL d   1       3.687   1.230  -0.620  0.00  0.00    -0.049 A 
ATOM     20  C   UNL d   1       4.788   2.112  -0.601  0.00  0.00     0.014 A 
ATOM     21  C   UNL d   1       3.895  -0.082  -1.332  0.00  0.00     0.049 C 
ATOM     22  C   UNL d   1       4.717   3.369   0.010  0.00  0.00    -0.061 A 
ATOM     23  C   UNL d   1       3.529   3.746   0.631  0.00  0.00     0.007 A 
ATOM     24  C   UNL d   1       5.909   4.278  -0.009  0.00  0.00     0.048 C 
ATOM     25  C   UNL d   1       2.436   2.875   0.645  0.00  0.00     0.015 A 
ENDBRANCH   3  18
TORSDOF 3
