REMARK  3 active torsions:
REMARK  status: ('A' for Active; 'I' for Inactive)
REMARK    1  A    between atoms: N_2  and  C_1 
REMARK    2  A    between atoms: C_8  and  C_3 
REMARK    3  A    between atoms: O_19  and  C_15 
ROOT
ATOM      1  C   UNL d   1       2.365  -0.835  -0.072  0.00  0.00     0.115 C 
ATOM      2  C   UNL d   1       2.468   0.655  -0.004  0.00  0.00     0.218 C 
ATOM      3  C   UNL d   1       1.229  -1.542  -0.082  0.00  0.00     0.049 C 
ATOM      4  O   UNL d   1       1.194   1.354  -0.086  0.00  0.00    -0.334 OA
ATOM      5  C   UNL d   1      -0.006  -0.774  -0.040  0.00  0.00     0.001 A 
ATOM      6  C   UNL d   1       0.036   0.625  -0.051  0.00  0.00     0.080 A 
ATOM      7  C   UNL d   1      -1.244  -1.428  -0.013  0.00  0.00     0.038 A 
ATOM      8  C   UNL d   1      -1.149   1.364  -0.034  0.00  0.00     0.039 A 
ATOM      9  C   UNL d   1      -2.423  -0.684   0.004  0.00  0.00     0.035 A 
ATOM     10  C   UNL d   1      -2.383   0.709  -0.006  0.00  0.00     0.026 A 
ATOM     11 CL   UNL d   1      -3.941  -1.494   0.030  0.00  0.00    -0.084 Cl
ENDROOT
BRANCH   2  12
ATOM     12  C   UNL d   1       3.147   1.151   1.268  0.00  0.00    -0.020 A 
ATOM     13  C   UNL d   1       2.593   0.873   2.533  0.00  0.00     0.046 A 
ATOM     14  C   UNL d   1       3.222   1.304   3.703  0.00  0.00     0.068 A 
ATOM     15  C   UNL d   1       4.422   2.009   3.611  0.00  0.00     0.037 A 
ATOM     16  C   UNL d   1       4.984   2.295   2.367  0.00  0.00     0.003 A 
ATOM     17  C   UNL d   1       4.347   1.874   1.200  0.00  0.00     0.010 A 
BRANCH  14  18
ATOM     18  O   UNL d   1       2.764   1.102   4.976  0.00  0.00    -0.356 OA
ATOM     19  C   UNL d   1       1.544   0.383   5.113  0.00  0.00     0.210 C 
ENDBRANCH  14  18
ENDBRANCH   2  12
BRANCH   1  20
ATOM     20  N   UNL d   1       3.615  -1.558  -0.165  0.00  0.00    -0.117 N 
ATOM     21  O   UNL d   1       3.653  -2.710   0.286  0.00  0.00    -0.532 OA
ATOM     22  O   UNL d   1       4.560  -0.978  -0.713  0.00  0.00    -0.532 OA
ENDBRANCH   1  20
TORSDOF 3
