REMARK  4 active torsions:
REMARK  status: ('A' for Active; 'I' for Inactive)
REMARK    1  A    between atoms: C_7  and  N_1 
REMARK    2  A    between atoms: N_11  and  N_2 
REMARK    3  A    between atoms: N_4  and  C_3 
REMARK    4  A    between atoms: C_14  and  C_15 
ROOT
ATOM      1  N   UNL d   1      -0.682  -1.148   0.192  0.00  0.00    -0.308 N 
ATOM      2  N   UNL d   1       0.837   1.115   0.199  0.00  0.00    -0.251 N 
ATOM      3  C   UNL d   1      -1.379   0.065   0.111  0.00  0.00     0.244 C 
ATOM      4  C   UNL d   1       1.526  -0.098   0.022  0.00  0.00     0.257 C 
ATOM      5  C   UNL d   1      -0.516   1.231  -0.352  0.00  0.00     0.255 C 
ATOM      6  C   UNL d   1       0.623  -1.236  -0.458  0.00  0.00     0.236 C 
ATOM      7  O   UNL d   1       2.737  -0.269   0.130  0.00  0.00    -0.270 OA
ATOM      8  O   UNL d   1      -2.599   0.175   0.237  0.00  0.00    -0.271 OA
ENDROOT
BRANCH   2   9
ATOM      9  N   UNL d   1       1.380   2.305   0.649  0.00  0.00    -0.304 N 
ATOM     10  C   UNL d   1       2.609   2.381   1.056  0.00  0.00     0.144 C 
ATOM     11  HN  UNL d   1       0.800   3.143   0.663  1.00  0.00     0.186 HD
BRANCH  10  12
ATOM     12  C   UNL d   1       3.117   3.624   1.582  0.00  0.00     0.095 A 
ATOM     13  O   UNL d   1       4.436   3.664   1.959  0.00  0.00    -0.287 OA
ATOM     14  C   UNL d   1       4.666   4.918   2.432  0.00  0.00     0.215 A 
ATOM     15  C   UNL d   1       3.530   5.689   2.381  0.00  0.00     0.065 A 
ATOM     16  C   UNL d   1       2.527   4.851   1.828  0.00  0.00     0.043 A 
BRANCH  14  17
ATOM     17  N   UNL d   1       5.987   5.195   2.887  0.00  0.00    -0.090 N 
ATOM     18  O   UNL d   1       6.192   6.347   3.302  0.00  0.00    -0.530 OA
ATOM     19  O   UNL d   1       6.826   4.284   2.833  0.00  0.00    -0.530 OA
ENDBRANCH  14  17
ENDBRANCH  10  12
ENDBRANCH   2   9
BRANCH   1  20
ATOM     20  C   UNL d   1      -1.347  -2.336   0.598  0.00  0.00     0.041 A 
ATOM     21  C   UNL d   1      -1.259  -3.511  -0.157  0.00  0.00     0.053 A 
ATOM     22  C   UNL d   1      -1.912  -4.667   0.273  0.00  0.00     0.037 A 
ATOM     23 CL   UNL d   1      -1.836  -6.091  -0.691  0.00  0.00    -0.084 Cl
ATOM     24  C   UNL d   1      -2.626  -4.681   1.468  0.00  0.00     0.048 A 
ATOM     25  C   UNL d   1      -2.698  -3.517   2.226  0.00  0.00     0.037 A 
ATOM     26  C   UNL d   1      -2.077  -2.345   1.793  0.00  0.00     0.053 A 
ATOM     27 CL   UNL d   1      -3.544  -3.530   3.725  0.00  0.00    -0.084 Cl
ENDBRANCH   1  20
TORSDOF 4
