REMARK  4 active torsions:
REMARK  status: ('A' for Active; 'I' for Inactive)
REMARK    1  A    between atoms: C_6  and  C_4 
REMARK    2  A    between atoms: O_20  and  C_13 
REMARK    3  A    between atoms: O_19  and  C_14 
REMARK    4  A    between atoms: O_21  and  C_17 
ROOT
ATOM      1  C   UNL d   1      -2.077   0.311   0.097  0.00  0.00    -0.006 C 
ATOM      2  C   UNL d   1      -1.093  -0.827   0.041  0.00  0.00     0.189 C 
ATOM      3  C   UNL d   1       0.354  -0.435   0.029  0.00  0.00     0.021 A 
ATOM      4  C   UNL d   1      -3.295   0.107  -0.437  0.00  0.00     0.022 C 
ATOM      5  C   UNL d   1       0.740   0.914  -0.027  0.00  0.00    -0.041 A 
ATOM      6  C   UNL d   1       1.330  -1.437   0.032  0.00  0.00     0.019 A 
ATOM      7  C   UNL d   1      -1.548   1.580   0.697  0.00  0.00     0.047 C 
ATOM      8  O   UNL d   1      -1.441  -1.999  -0.009  0.00  0.00    -0.287 OA
ATOM      9  C   UNL d   1       2.104   1.235  -0.105  0.00  0.00     0.044 A 
ATOM     10  C   UNL d   1      -0.290   2.015  -0.044  0.00  0.00     0.044 C 
ATOM     11  C   UNL d   1       3.080   0.235  -0.099  0.00  0.00     0.068 A 
ATOM     12  C   UNL d   1       2.689  -1.102  -0.022  0.00  0.00     0.038 A 
ENDROOT
BRANCH   4  13
ATOM     13  C   UNL d   1      -4.290   1.169  -0.627  0.00  0.00    -0.030 A 
ATOM     14  C   UNL d   1      -4.266   1.909  -1.818  0.00  0.00     0.048 A 
ATOM     15  C   UNL d   1      -5.152   2.970  -2.008  0.00  0.00     0.071 A 
ATOM     16  C   UNL d   1      -6.096   3.264  -1.020  0.00  0.00     0.073 A 
ATOM     17  C   UNL d   1      -6.166   2.493   0.143  0.00  0.00     0.071 A 
ATOM     18  C   UNL d   1      -5.239   1.468   0.352  0.00  0.00     0.048 A 
BRANCH  15  19
ATOM     19  O   UNL d   1      -5.193   3.785  -3.108  0.00  0.00    -0.356 OA
ATOM     20  C   UNL d   1      -4.253   3.510  -4.142  0.00  0.00     0.210 C 
ENDBRANCH  15  19
BRANCH  17  21
ATOM     21  O   UNL d   1      -7.078   2.676   1.147  0.00  0.00    -0.356 OA
ATOM     22  C   UNL d   1      -8.341   3.192   0.732  0.00  0.00     0.210 C 
ENDBRANCH  17  21
ENDBRANCH   4  13
BRANCH  11  23
ATOM     23  O   UNL d   1       4.366   0.695  -0.171  0.00  0.00    -0.356 OA
ATOM     24  C   UNL d   1       5.400  -0.282  -0.169  0.00  0.00     0.210 C 
ENDBRANCH  11  23
TORSDOF 4
