REMARK  5 active torsions:
REMARK  status: ('A' for Active; 'I' for Inactive)
REMARK    1  A    between atoms: N_3  and  C_11 
REMARK    2  A    between atoms: N_12  and  C_4 
REMARK    3  A    between atoms: C_16  and  C_5 
REMARK    4  A    between atoms: N_8  and  N_12 
REMARK    5  A    between atoms: C_10  and  N_8 
ROOT
ATOM      1  N   UNL d   1       1.319  -0.726  -0.561  0.00  0.00    -0.334 N 
ATOM      2  HN  UNL d   1       2.116  -1.179  -1.009  1.00  0.00     0.168 HD
ATOM      3  C   UNL d   1       0.249  -1.361  -0.129  0.00  0.00     0.163 A 
ATOM      4  C   UNL d   1       1.225   0.635  -0.329  0.00  0.00     0.051 A 
ATOM      5  S   UNL d   1      -0.974  -0.324   0.510  0.00  0.00    -0.062 SA
ATOM      6  C   UNL d   1       0.045   1.036   0.261  0.00  0.00     0.083 A 
ENDROOT
BRANCH   3   7
ATOM      7  N   UNL d   1       0.074  -2.716  -0.132  0.00  0.00    -0.280 N 
ATOM      8  H   UNL d   1      -0.788  -3.048   0.289  0.00  0.00     0.189 HD
BRANCH   7   9
ATOM      9  N   UNL d   1       1.162  -3.534  -0.143  0.00  0.00    -0.306 N 
ATOM     10  HN  UNL d   1       2.098  -3.131  -0.177  1.00  0.00     0.186 HD
BRANCH   9  11
ATOM     11  C   UNL d   1       1.016  -4.820  -0.111  0.00  0.00     0.012 A 
ATOM     12  C   UNL d   1      -0.264  -5.647  -0.112  0.00  0.00     0.093 A 
ATOM     13  C   UNL d   1       0.272  -7.055  -0.127  0.00  0.00    -0.046 A 
ATOM     14  C   UNL d   1      -0.445  -8.242  -0.166  0.00  0.00     0.008 A 
ATOM     15  C   UNL d   1       1.676  -7.077  -0.099  0.00  0.00    -0.046 A 
ATOM     16  C   UNL d   1       0.261  -9.449  -0.178  0.00  0.00     0.001 A 
ATOM     17  C   UNL d   1       1.664  -9.463  -0.147  0.00  0.00     0.001 A 
ATOM     18  C   UNL d   1       2.381  -8.269  -0.106  0.00  0.00     0.008 A 
ATOM     19  C   UNL d   1       2.255  -5.699  -0.067  0.00  0.00     0.093 A 
ENDBRANCH   9  11
ENDBRANCH   7   9
ENDBRANCH   3   7
BRANCH   4  20
ATOM     20  C   UNL d   1       2.315   1.530  -0.709  0.00  0.00    -0.009 A 
ATOM     21  C   UNL d   1       3.101   1.216  -1.828  0.00  0.00     0.016 A 
ATOM     22  C   UNL d   1       4.180   2.025  -2.203  0.00  0.00     0.037 A 
ATOM     23  C   UNL d   1       4.485   3.158  -1.442  0.00  0.00     0.102 A 
ATOM     24  C   UNL d   1       3.708   3.492  -0.326  0.00  0.00     0.037 A 
ATOM     25  C   UNL d   1       2.626   2.679   0.036  0.00  0.00     0.016 A 
BRANCH  23  26
ATOM     26  N   UNL d   1       5.638   3.993  -1.806  0.00  0.00    -0.116 N 
ATOM     27  O   UNL d   1       6.308   3.656  -2.792  0.00  0.00    -0.532 OA
ATOM     28  O   UNL d   1       5.873   4.987  -1.104  0.00  0.00    -0.532 OA
ENDBRANCH  23  26
ENDBRANCH   4  20
TORSDOF 5
