REMARK  1 active torsions:
REMARK  status: ('A' for Active; 'I' for Inactive)
REMARK    1  A    between atoms: C_6  and  N_1 
ROOT
ATOM      1  N   UNL d   1       2.481   0.038   0.060  0.00  0.00    -0.252 N 
ATOM      2  C   UNL d   1       1.682  -1.101   0.040  0.00  0.00     0.236 C 
ATOM      3  C   UNL d   1       1.692   1.184   0.089  0.00  0.00     0.236 C 
ATOM      4  C   UNL d   1       0.310  -0.623  -0.324  0.00  0.00     0.092 C 
ATOM      5  C   UNL d   1       0.291   0.718   0.379  0.00  0.00     0.092 C 
ATOM      6  C   UNL d   1      -0.888   1.548  -0.089  0.00  0.00     0.015 C 
ATOM      7  O   UNL d   1       1.981  -2.269   0.227  0.00  0.00    -0.272 OA
ATOM      8  O   UNL d   1       2.005   2.354  -0.064  0.00  0.00    -0.272 OA
ATOM      9  C   UNL d   1      -0.911  -1.438   0.053  0.00  0.00     0.019 C 
ATOM     10  C   UNL d   1      -2.188   0.773   0.192  0.00  0.00     0.005 C 
ATOM     11  C   UNL d   1      -2.189  -0.671  -0.365  0.00  0.00    -0.018 C 
ATOM     12  C   UNL d   1      -2.366  -0.664  -1.889  0.00  0.00     0.010 C 
ENDROOT
BRANCH   1  13
ATOM     13  C   UNL d   1       3.903   0.028   0.014  0.00  0.00     0.047 A 
ATOM     14  C   UNL d   1       4.605  -1.111  -0.418  0.00  0.00     0.057 A 
ATOM     15  C   UNL d   1       6.001  -1.111  -0.494  0.00  0.00     0.074 A 
ATOM     16 CL   UNL d   1       6.818  -2.513  -1.069  0.00  0.00    -0.081 Cl
ATOM     17  C   UNL d   1       6.715   0.022  -0.124  0.00  0.00     0.138 A 
ATOM     18  C   UNL d   1       6.048   1.156   0.315  0.00  0.00     0.046 A 
ATOM     19  F   UNL d   1       8.055   0.042  -0.184  0.00  0.00    -0.204 F 
ATOM     20  C   UNL d   1       4.649   1.161   0.378  0.00  0.00     0.033 A 
ENDBRANCH   1  13
TORSDOF 1
