REMARK  4 active torsions:
REMARK  status: ('A' for Active; 'I' for Inactive)
REMARK    1  A    between atoms: C_13  and  C_1 
REMARK    2  A    between atoms: C_4  and  C_2 
REMARK    3  A    between atoms: C_17  and  N_3 
REMARK    4  A    between atoms: N_14  and  C_19 
ROOT
ATOM      1  C   UNL d   1       1.048  -0.850   0.006  0.00  0.00     0.156 C 
ATOM      2  C   UNL d   1      -0.281  -1.242  -0.013  0.00  0.00     0.067 C 
ATOM      3  N   UNL d   1       1.033   0.536   0.025  0.00  0.00    -0.251 N 
ATOM      4  N   UNL d   1      -0.234   1.011   0.178  0.00  0.00    -0.303 N 
ATOM      5  HN  UNL d   1      -0.520   1.978   0.331  1.00  0.00     0.186 HD
ATOM      6  C   UNL d   1      -1.020  -0.060   0.085  0.00  0.00     0.126 C 
ENDROOT
BRANCH   2   7
ATOM      7  C   UNL d   1      -0.822  -2.623  -0.023  0.00  0.00     0.178 A 
ATOM      8  O   UNL d   1      -0.039  -3.738  -0.035  0.00  0.00    -0.272 OA
ATOM      9  C   UNL d   1      -0.932  -4.758   0.152  0.00  0.00     0.181 A 
ATOM     10  C   UNL d   1      -0.535  -6.113   0.393  0.00  0.00     0.057 A 
ATOM     11  N   UNL d   1      -2.176  -4.309   0.157  0.00  0.00    -0.277 N 
ATOM     12  S   UNL d   1       1.127  -6.531   0.503  0.00  0.00    -0.098 SA
ATOM     13  C   UNL d   1      -1.342  -7.213   0.612  0.00  0.00     0.024 A 
ATOM     14  C   UNL d   1       0.768  -8.155   0.885  0.00  0.00     0.050 A 
ATOM     15  C   UNL d   1      -0.589  -8.391   0.901  0.00  0.00     0.009 A 
ATOM     16  N   UNL d   1      -2.101  -2.929   0.044  0.00  0.00    -0.277 N 
ATOM     17  HN  UNL d   1      -3.026  -4.869   0.230  1.00  0.00     0.189 HD
ATOM     18  HN  UNL d   1      -2.885  -2.277   0.017  1.00  0.00     0.189 HD
ENDBRANCH   2   7
BRANCH   1  19
ATOM     19  C   UNL d   1       2.295  -1.624   0.118  0.00  0.00     0.435 C 
ATOM     20  F   UNL d   1       2.113  -2.875   0.602  0.00  0.00    -0.165 F 
ATOM     21  F   UNL d   1       2.906  -1.766  -1.084  0.00  0.00    -0.165 F 
ATOM     22  F   UNL d   1       3.186  -1.043   0.959  0.00  0.00    -0.165 F 
ENDBRANCH   1  19
BRANCH   3  23
ATOM     23  C   UNL d   1       2.104   1.475  -0.059  0.00  0.00     0.057 A 
ATOM     24  C   UNL d   1       3.265   1.208  -0.797  0.00  0.00     0.034 A 
ATOM     25  C   UNL d   1       4.324   2.127  -0.813  0.00  0.00     0.038 A 
ATOM     26  C   UNL d   1       4.212   3.324  -0.099  0.00  0.00     0.103 A 
ATOM     27  C   UNL d   1       3.040   3.624   0.604  0.00  0.00     0.038 A 
ATOM     28  C   UNL d   1       1.983   2.706   0.609  0.00  0.00     0.034 A 
BRANCH  26  29
ATOM     29  N   UNL d   1       5.334   4.273  -0.098  0.00  0.00    -0.116 N 
ATOM     30  O   UNL d   1       5.190   5.333   0.526  0.00  0.00    -0.532 OA
ATOM     31  O   UNL d   1       6.358   3.953  -0.717  0.00  0.00    -0.532 OA
ENDBRANCH  26  29
ENDBRANCH   3  23
TORSDOF 4
