REMARK  4 active torsions:
REMARK  status: ('A' for Active; 'I' for Inactive)
REMARK    1  A    between atoms: C_8  and  N_3 
REMARK    2  A    between atoms: C_9  and  C_8 
REMARK       I    between atoms: N_13  and  C_9 
REMARK    3  A    between atoms: C_11  and  C_12 
REMARK       I    between atoms: C_12  and  N_14 
REMARK    4  A    between atoms: N_14  and  N_13 
ROOT
ATOM      1  C   UNL d   1       2.022  -1.212   0.138  0.00  0.00     0.215 C 
ATOM      2  C   UNL d   1       1.794  -2.659  -0.304  0.00  0.00     0.046 C 
ENDROOT
BRANCH   1   3
ATOM      3  N   UNL d   1       0.770  -0.492   0.274  0.00  0.00    -0.189 N 
ATOM      4  N   UNL d   1       0.637   0.752  -0.218  0.00  0.00    -0.115 N 
ATOM      5  C   UNL d   1      -0.477   1.151   0.405  0.00  0.00     0.709 A 
ATOM      6  HN  UNL d   1       1.224   1.254  -0.884  1.00  0.00     0.207 HD
ATOM      7  N   UNL d   1      -0.985   0.176   1.230  0.00  0.00    -0.113 N 
ATOM      8  N   UNL d   1      -1.030   2.377   0.338  0.00  0.00    -0.211 N 
ATOM      9  N   UNL d   1      -0.177  -0.871   1.145  0.00  0.00     0.012 NA
ATOM     10  HN  UNL d   1      -1.827   0.245   1.801  1.00  0.00     0.203 HD
ATOM     11  C   UNL d   1      -2.187   2.764   1.140  0.00  0.00     0.167 C 
ATOM     12  C   UNL d   1      -0.555   3.400  -0.591  0.00  0.00     0.167 C 
ATOM     13  C   UNL d   1      -1.897   4.105   1.830  0.00  0.00     0.188 C 
ATOM     14  O   UNL d   1      -1.522   5.119   0.880  0.00  0.00    -0.388 OA
ATOM     15  C   UNL d   1      -0.339   4.721   0.164  0.00  0.00     0.188 C 
ENDBRANCH   1   3
BRANCH   1  16
ATOM     16  C   UNL d   1       2.855  -1.101   1.416  0.00  0.00     0.262 C 
ATOM     17  N   UNL d   1       2.898   0.142   2.022  0.00  0.00    -0.265 N 
ATOM     18  H   UNL d   1       2.192   0.865   1.863  0.00  0.00     0.190 HD
ATOM     19  O   UNL d   1       3.554  -2.027   1.817  0.00  0.00    -0.269 OA
BRANCH  17  20
ATOM     20  N   UNL d   1       3.675   0.305   3.190  0.00  0.00    -0.263 N 
ATOM     21  C   UNL d   1       4.050   1.579   3.571  0.00  0.00     0.271 C 
ATOM     22  O   UNL d   1       3.732   2.569   2.910  0.00  0.00    -0.266 OA
ATOM     23  H   UNL d   1       4.094  -0.542   3.579  0.00  0.00     0.190 HD
BRANCH  21  24
ATOM     24  C   UNL d   1       4.792   1.760   4.863  0.00  0.00     0.055 A 
ATOM     25  C   UNL d   1       5.497   0.778   5.571  0.00  0.00     0.049 A 
ATOM     26 CL   UNL d   1       5.740  -0.832   4.990  0.00  0.00    -0.083 Cl
ATOM     27  C   UNL d   1       6.085   1.078   6.812  0.00  0.00     0.025 A 
ATOM     28  C   UNL d   1       5.992   2.359   7.355  0.00  0.00     0.002 A 
ATOM     29  C   UNL d   1       5.318   3.354   6.657  0.00  0.00     0.001 A 
ATOM     30  C   UNL d   1       4.728   3.058   5.424  0.00  0.00     0.019 A 
ENDBRANCH  21  24
ENDBRANCH  17  20
ENDBRANCH   1  16
TORSDOF 4
