REMARK  10 active torsions:
REMARK  status: ('A' for Active; 'I' for Inactive)
REMARK    1  A    between atoms: C_3  and  N_1 
REMARK    2  A    between atoms: C_11  and  N_2 
REMARK    3  A    between atoms: C_9  and  C_3 
REMARK    4  A    between atoms: C_10  and  C_3 
REMARK    5  A    between atoms: C_4  and  C_5 
REMARK    6  A    between atoms: C_17  and  C_11 
REMARK    7  A    between atoms: O_16  and  C_19 
REMARK    8  A    between atoms: C_18  and  O_16 
REMARK    9  A    between atoms: C_19  and  C_17 
REMARK   10  A    between atoms: O_22  and  C_17 
ROOT
ATOM      1  N   UNL d   1      -1.475   0.069   0.210  0.00  0.00     0.105 N 
ATOM      2  N   UNL d   1       1.512   0.368  -0.452  0.00  0.00     0.094 N 
ATOM      3  C   UNL d   1      -0.574  -1.056  -0.141  0.00  0.00     0.304 C 
ATOM      4  C   UNL d   1      -0.884   1.320  -0.328  0.00  0.00     0.304 C 
ATOM      5  C   UNL d   1       0.920  -0.830   0.194  0.00  0.00     0.302 C 
ATOM      6  C   UNL d   1       0.645   1.522  -0.117  0.00  0.00     0.302 C 
ENDROOT
BRANCH   2   7
ATOM      7  C   UNL d   1       1.647   0.127  -1.903  0.00  0.00     0.306 C 
BRANCH   7   8
ATOM      8  C   UNL d   1       2.369   1.176  -2.774  0.00  0.00     0.170 C 
BRANCH   8   9
ATOM      9  C   UNL d   1       3.818   1.462  -2.348  0.00  0.00     0.209 C 
BRANCH   9  10
ATOM     10  O   UNL d   1       4.355   2.438  -3.258  0.00  0.00    -0.349 OA
BRANCH  10  11
ATOM     11  C   UNL d   1       5.646   2.845  -3.082  0.00  0.00     0.068 A 
ATOM     12  C   UNL d   1       6.510   2.416  -2.079  0.00  0.00     0.037 A 
ATOM     13  C   UNL d   1       7.808   2.938  -2.002  0.00  0.00     0.018 A 
ATOM     14  C   UNL d   1       8.261   3.879  -2.934  0.00  0.00     0.009 A 
ATOM     15  C   UNL d   1       7.394   4.311  -3.943  0.00  0.00     0.018 A 
ATOM     16  C   UNL d   1       6.098   3.788  -4.013  0.00  0.00     0.037 A 
BRANCH  14  17
ATOM     17  C   UNL d   1       9.649   4.399  -2.785  0.00  0.00     0.155 C 
ATOM     18  O   UNL d   1      10.188   4.359  -1.677  0.00  0.00    -0.293 OA
ATOM     19  C   UNL d   1      10.400   4.927  -3.980  0.00  0.00     0.096 C 
ENDBRANCH  14  17
ENDBRANCH  10  11
ENDBRANCH   9  10
ENDBRANCH   8   9
BRANCH   8  20
ATOM     20  O   UNL d   1       2.345   0.680  -4.130  0.00  0.00    -0.392 OA
ATOM     21  H   UNL d   1       3.034  -0.007  -4.209  0.00  0.00     0.210 HD
ENDBRANCH   8  20
ENDBRANCH   7   8
ENDBRANCH   2   7
BRANCH   1  22
ATOM     22  C   UNL d   1      -1.771   0.121   1.673  0.00  0.00     0.289 C 
BRANCH  22  23
ATOM     23  C   UNL d   1      -2.721   1.258   2.084  0.00  0.00    -0.021 A 
ATOM     24  C   UNL d   1      -3.997   1.396   1.510  0.00  0.00     0.010 A 
ATOM     25  C   UNL d   1      -4.900   2.347   1.991  0.00  0.00     0.001 A 
ATOM     26  C   UNL d   1      -4.535   3.188   3.039  0.00  0.00     0.000 A 
ATOM     27  C   UNL d   1      -3.265   3.085   3.603  0.00  0.00     0.001 A 
ATOM     28  C   UNL d   1      -2.363   2.126   3.131  0.00  0.00     0.010 A 
ENDBRANCH  22  23
BRANCH  22  29
ATOM     29  C   UNL d   1      -2.361  -1.198   2.218  0.00  0.00    -0.021 A 
ATOM     30  C   UNL d   1      -2.011  -1.644   3.503  0.00  0.00     0.010 A 
ATOM     31  C   UNL d   1      -2.562  -2.816   4.026  0.00  0.00     0.001 A 
ATOM     32  C   UNL d   1      -3.471  -3.559   3.273  0.00  0.00     0.000 A 
ATOM     33  C   UNL d   1      -3.839  -3.128   2.001  0.00  0.00     0.001 A 
ATOM     34  C   UNL d   1      -3.296  -1.953   1.482  0.00  0.00     0.010 A 
ENDBRANCH  22  29
ENDBRANCH   1  22
TORSDOF 10
