REMARK  2 active torsions:
REMARK  status: ('A' for Active; 'I' for Inactive)
REMARK    1  A    between atoms: N_14  and  C_2 
REMARK    2  A    between atoms: C_6  and  C_4 
ROOT
ATOM      1  C   UNL d   1      -0.389   0.386   0.009  0.00  0.00     0.110 A 
ATOM      2  C   UNL d   1       0.393   1.567  -0.007  0.00  0.00     0.053 A 
ATOM      3  C   UNL d   1       0.223  -0.883   0.006  0.00  0.00     0.149 A 
ATOM      4  C   UNL d   1       1.609  -1.040  -0.004  0.00  0.00     0.006 A 
ATOM      5  C   UNL d   1      -1.819   0.379   0.080  0.00  0.00     0.105 C 
ATOM      6  N   UNL d   1      -2.981   0.353   0.106  0.00  0.00    -0.191 NA
ATOM      7  C   UNL d   1       1.795   1.369  -0.041  0.00  0.00     0.032 A 
ATOM      8  C   UNL d   1       2.398   0.102  -0.032  0.00  0.00     0.017 A 
ATOM      9  F   UNL d   1      -0.542  -1.989   0.023  0.00  0.00    -0.203 F 
ENDROOT
BRANCH   2  10
ATOM     10  N   UNL d   1      -0.106   2.864   0.020  0.00  0.00    -0.388 N 
ATOM     11  C   UNL d   1       0.640   3.965   0.636  0.00  0.00     0.149 C 
ATOM     12  C   UNL d   1      -1.365   3.277  -0.600  0.00  0.00     0.149 C 
ENDBRANCH   2  10
BRANCH   4  13
ATOM     13  C   UNL d   1       2.222  -2.376   0.013  0.00  0.00     0.048 C 
ATOM     14  C   UNL d   1       2.533  -3.078   1.126  0.00  0.00     0.125 C 
ATOM     15  C   UNL d   1       2.307  -2.561   2.425  0.00  0.00     0.111 C 
ATOM     16  C   UNL d   1       3.113  -4.367   0.994  0.00  0.00     0.111 C 
ATOM     17  N   UNL d   1       2.127  -2.119   3.486  0.00  0.00    -0.191 NA
ATOM     18  N   UNL d   1       3.595  -5.412   0.865  0.00  0.00    -0.191 NA
ENDBRANCH   4  13
TORSDOF 2
