REMARK  4 active torsions:
REMARK  status: ('A' for Active; 'I' for Inactive)
REMARK    1  A    between atoms: N_5  and  C_1 
REMARK    2  A    between atoms: C_4  and  N_5 
REMARK    3  A    between atoms: N_10  and  C_4 
REMARK    4  A    between atoms: N_13  and  N_10 
ROOT
ATOM      1  C   UNL d   1      -0.714   1.288  -0.036  0.00  0.00     0.091 A 
ATOM      2  C   UNL d   1      -2.086   0.998   0.005  0.00  0.00     0.147 A 
ATOM      3  C   UNL d   1       0.174   0.187   0.025  0.00  0.00     0.043 A 
ATOM      4  C   UNL d   1      -2.549  -0.317   0.046  0.00  0.00     0.087 A 
ATOM      5  C   UNL d   1      -0.284  -1.131   0.059  0.00  0.00     0.064 A 
ATOM      6  C   UNL d   1      -1.651  -1.368   0.057  0.00  0.00     0.120 A 
ATOM      7 BR   UNL d   1       2.068   0.434  -0.001  0.00  0.00    -0.049 Br
ATOM      8  F   UNL d   1      -3.020   1.947   0.053  0.00  0.00    -0.204 F 
ATOM      9  F   UNL d   1      -2.099  -2.628   0.070  0.00  0.00    -0.206 F 
ENDROOT
BRANCH   1  10
ATOM     10  N   UNL d   1      -0.114   2.560  -0.191  0.00  0.00    -0.329 N 
ATOM     11  H   UNL d   1       0.894   2.545  -0.099  0.00  0.00     0.168 HD
BRANCH  10  12
ATOM     12  C   UNL d   1      -0.542   3.816  -0.555  0.00  0.00     0.186 C 
ATOM     13  S   UNL d   1      -2.060   4.482  -0.648  0.00  0.00    -0.040 SA
BRANCH  12  14
ATOM     14  N   UNL d   1       0.522   4.632  -0.948  0.00  0.00    -0.300 N 
ATOM     15  H   UNL d   1       0.239   5.544  -1.311  0.00  0.00     0.183 HD
BRANCH  14  16
ATOM     16  N   UNL d   1       1.742   4.099  -1.419  0.00  0.00    -0.248 NA
ATOM     17  H   UNL d   1       1.578   3.199  -1.877  0.00  0.00     0.143 HD
ATOM     18  H   UNL d   1       2.394   3.971  -0.645  0.00  0.00     0.143 HD
ENDBRANCH  14  16
ENDBRANCH  12  14
ENDBRANCH  10  12
ENDBRANCH   1  10
TORSDOF 4
