REMARK  7 active torsions:
REMARK  status: ('A' for Active; 'I' for Inactive)
REMARK    1  A    between atoms: O_9  and  N_1 
REMARK    2  A    between atoms: C_16  and  C_2 
REMARK    3  A    between atoms: C_21  and  C_8 
REMARK    4  A    between atoms: C_18  and  O_9 
REMARK    5  A    between atoms: O_19  and  C_10 
REMARK    6  A    between atoms: C_13  and  C_18 
REMARK    7  A    between atoms: O_23  and  C_21 
ROOT
ATOM      1  N   UNL d   1       2.175  -0.780   0.054  0.00  0.00    -0.166 N 
ATOM      2  C   UNL d   1       2.207   0.605  -0.099  0.00  0.00     0.147 C 
ATOM      3  C   UNL d   1       0.978  -1.467   0.245  0.00  0.00     0.285 C 
ATOM      4  N   UNL d   1       1.118   1.317  -0.173  0.00  0.00    -0.339 N 
ATOM      5  HN  UNL d   1       1.174   2.331  -0.273  1.00  0.00     0.167 HD
ATOM      6  C   UNL d   1      -0.252  -0.682   0.067  0.00  0.00     0.061 A 
ATOM      7  C   UNL d   1      -0.126   0.687  -0.115  0.00  0.00     0.049 A 
ATOM      8  O   UNL d   1       0.845  -2.647   0.561  0.00  0.00    -0.265 OA
ATOM      9  C   UNL d   1      -1.514  -1.294   0.112  0.00  0.00     0.019 A 
ATOM     10  C   UNL d   1      -1.283   1.461  -0.233  0.00  0.00     0.030 A 
ATOM     11  C   UNL d   1      -2.663  -0.514  -0.016  0.00  0.00     0.001 A 
ATOM     12  C   UNL d   1      -2.547   0.865  -0.182  0.00  0.00     0.002 A 
ENDROOT
BRANCH   1  13
ATOM     13  O   UNL d   1       3.424  -1.443   0.275  0.00  0.00    -0.264 OA
BRANCH  13  14
ATOM     14  C   UNL d   1       3.381  -2.833  -0.081  0.00  0.00     0.242 C 
BRANCH  14  15
ATOM     15  C   UNL d   1       4.726  -3.514  -0.230  0.00  0.00    -0.006 A 
ATOM     16  C   UNL d   1       5.730  -3.522   0.760  0.00  0.00     0.010 A 
ATOM     17  C   UNL d   1       6.836  -4.372   0.562  0.00  0.00     0.096 A 
ATOM     18  C   UNL d   1       6.896  -5.200  -0.562  0.00  0.00     0.039 A 
ATOM     19  N   UNL d   1       5.941  -5.189  -1.519  0.00  0.00    -0.367 N 
ATOM     20  C   UNL d   1       8.011  -6.190  -0.736  0.00  0.00     0.071 C 
ATOM     21  C   UNL d   1       4.895  -4.359  -1.331  0.00  0.00     0.098 A 
ATOM     22  HN  UNL d   1       6.010  -5.781  -2.347  1.00  0.00     0.165 HD
BRANCH  16  23
ATOM     23  C   UNL d   1       5.628  -2.634   1.975  0.00  0.00     0.206 C 
BRANCH  23  24
ATOM     24  O   UNL d   1       6.295  -3.235   3.088  0.00  0.00    -0.396 OA
ATOM     25  H   UNL d   1       5.635  -3.812   3.516  0.00  0.00     0.209 HD
ENDBRANCH  23  24
ENDBRANCH  16  23
BRANCH  17  26
ATOM     26  O   UNL d   1       7.859  -4.448   1.472  0.00  0.00    -0.358 OA
ATOM     27  H   UNL d   1       7.591  -3.930   2.262  0.00  0.00     0.217 HD
ENDBRANCH  17  26
ENDBRANCH  14  15
ENDBRANCH  13  14
ENDBRANCH   1  13
BRANCH   2  28
ATOM     28  C   UNL d   1       3.491   1.375  -0.164  0.00  0.00     0.010 A 
ATOM     29  C   UNL d   1       4.612   0.942  -0.875  0.00  0.00     0.015 A 
ATOM     30  C   UNL d   1       5.732   1.778  -0.990  0.00  0.00     0.001 A 
ATOM     31  C   UNL d   1       5.729   3.047  -0.414  0.00  0.00     0.000 A 
ATOM     32  C   UNL d   1       4.611   3.494   0.285  0.00  0.00     0.001 A 
ATOM     33  C   UNL d   1       3.502   2.659   0.408  0.00  0.00     0.015 A 
ENDBRANCH   2  28
TORSDOF 7
