REMARK  1 active torsions:
REMARK  status: ('A' for Active; 'I' for Inactive)
REMARK    1  A    between atoms: S_12  and  C_6 
ROOT
ATOM      1  N   UNL d   1       2.272  -0.647   0.011  0.00  0.00    -0.303 N 
ATOM      2  HN  UNL d   1       3.204  -1.062   0.016  1.00  0.00     0.171 HD
ATOM      3  C   UNL d   1      -0.106  -0.723   0.004  0.00  0.00     0.099 A 
ATOM      4  C   UNL d   1       1.144  -1.454   0.007  0.00  0.00     0.266 A 
ATOM      5  C   UNL d   1      -0.180   0.645   0.001  0.00  0.00     0.057 A 
ATOM      6  C   UNL d   1       2.127   0.638   0.008  0.00  0.00     0.147 A 
ATOM      7  N   UNL d   1       0.959   1.356   0.002  0.00  0.00    -0.335 N 
ATOM      8  S   UNL d   1      -1.643  -1.443   0.004  0.00  0.00    -0.094 SA
ATOM      9  C   UNL d   1      -1.506   1.135  -0.002  0.00  0.00     0.038 A 
ATOM     10  C   UNL d   1      -2.415   0.094  -0.001  0.00  0.00     0.053 A 
ATOM     11  O   UNL d   1       1.225  -2.677   0.008  0.00  0.00    -0.267 OA
ATOM     12  H   UNL d   1       1.021   2.367   0.001  0.00  0.00     0.168 HD
ENDROOT
BRANCH   6  13
ATOM     13  S   UNL d   1       3.547   1.675   0.013  0.00  0.00    -0.098 SA
ATOM     14  C   UNL d   1       4.882   0.458   0.022  0.00  0.00     0.099 C 
ENDBRANCH   6  13
TORSDOF 1
