REMARK  5 active torsions:
REMARK  status: ('A' for Active; 'I' for Inactive)
REMARK    1  A    between atoms: C_2  and  C_1 
REMARK       I    between atoms: N_5  and  C_1 
REMARK    2  A    between atoms: C_3  and  C_4 
REMARK    3  A    between atoms: O_13  and  C_3 
REMARK    4  A    between atoms: C_12  and  N_5 
REMARK    5  A    between atoms: C_6  and  C_7 
ROOT
ATOM      1  C   UNL d   1      -3.926   0.985   1.143  0.00  0.00    -0.051 A 
ATOM      2  C   UNL d   1      -3.218   2.191   1.015  0.00  0.00     0.010 A 
ATOM      3  C   UNL d   1      -3.166  -0.193   1.201  0.00  0.00     0.010 A 
ATOM      4  C   UNL d   1      -1.084   1.039   0.914  0.00  0.00     0.035 A 
ATOM      5  C   UNL d   1      -1.822   2.218   0.902  0.00  0.00     0.030 A 
ATOM      6  C   UNL d   1      -1.767  -0.167   1.088  0.00  0.00     0.030 A 
ENDROOT
BRANCH   4   7
ATOM      7  N   UNL d   1       0.317   0.984   0.729  0.00  0.00    -0.324 N 
ATOM      8  C   UNL d   1       1.152   2.051   0.477  0.00  0.00     0.245 C 
ATOM      9  O   UNL d   1       0.855   3.239   0.441  0.00  0.00    -0.268 OA
ATOM     10  H   UNL d   1       0.721   0.057   0.732  0.00  0.00     0.169 HD
BRANCH   8  11
ATOM     11  C   UNL d   1       2.553   1.633   0.212  0.00  0.00     0.081 C 
ATOM     12  C   UNL d   1       3.443   2.581  -0.119  0.00  0.00     0.086 C 
BRANCH  12  13
ATOM     13  C   UNL d   1       4.832   2.196  -0.402  0.00  0.00     0.165 C 
ATOM     14  O   UNL d   1       5.250   1.051  -0.350  0.00  0.00    -0.647 OA
BRANCH  13  15
ATOM     15  O   UNL d   1       5.598   3.253  -0.731  0.00  0.00    -0.773 OA
ATOM     16  H   UNL d   1       5.145   4.117  -0.739  0.00  0.00     0.167 HD
ENDBRANCH  13  15
ENDBRANCH  12  13
ENDBRANCH   8  11
ENDBRANCH   4   7
BRANCH   1  17
ATOM     17  C   UNL d   1      -5.464   0.998   1.188  0.00  0.00    -0.024 C 
ATOM     18  C   UNL d   1      -6.090  -0.410   1.285  0.00  0.00     0.019 C 
ATOM     19  C   UNL d   1      -5.951   1.809   2.408  0.00  0.00     0.019 C 
ATOM     20  C   UNL d   1      -6.016   1.653  -0.099  0.00  0.00     0.019 C 
ENDBRANCH   1  17
TORSDOF 5
