REMARK  8 active torsions:
REMARK  status: ('A' for Active; 'I' for Inactive)
REMARK    1  A    between atoms: C_3  and  N_1 
REMARK    2  A    between atoms: C_10  and  C_5 
REMARK    3  A    between atoms: S_9  and  C_6 
REMARK    4  A    between atoms: C_14  and  S_9 
REMARK    5  A    between atoms: O_22  and  C_10 
REMARK    6  A    between atoms: C_12  and  C_11 
REMARK    7  A    between atoms: O_23  and  C_12 
REMARK    8  A    between atoms: N_21  and  C_19 
ROOT
ATOM      1  N   UNL d   1       0.055   0.877  -0.102  0.00  0.00    -0.250 N 
ATOM      2  C   UNL d   1      -1.104   0.156  -0.106  0.00  0.00     0.232 C 
ATOM      3  C   UNL d   1       1.167   0.063  -0.074  0.00  0.00     0.245 C 
ATOM      4  C   UNL d   1       0.712  -1.387  -0.109  0.00  0.00     0.154 C 
ATOM      5  C   UNL d   1      -0.771  -1.272   0.196  0.00  0.00     0.129 C 
ATOM      6  O   UNL d   1      -2.239   0.580  -0.295  0.00  0.00    -0.273 OA
ATOM      7  O   UNL d   1       2.341   0.432  -0.019  0.00  0.00    -0.271 OA
ENDROOT
BRANCH   1   8
ATOM      8  C   UNL d   1       0.094   2.290  -0.064  0.00  0.00     0.062 A 
ATOM      9  C   UNL d   1      -0.477   3.041   0.985  0.00  0.00     0.067 A 
ATOM     10  C   UNL d   1      -0.386   4.441   0.949  0.00  0.00     0.021 A 
ATOM     11  C   UNL d   1       0.230   5.094  -0.122  0.00  0.00     0.019 A 
ATOM     12  C   UNL d   1       0.785   4.358  -1.173  0.00  0.00     0.041 A 
ATOM     13  C   UNL d   1       0.717   2.957  -1.140  0.00  0.00     0.049 A 
BRANCH   9  14
ATOM     14  C   UNL d   1      -1.071   2.421   2.206  0.00  0.00     0.295 C 
ATOM     15  O   UNL d   1      -0.712   1.335   2.650  0.00  0.00    -0.259 OA
BRANCH  14  16
ATOM     16  O   UNL d   1      -2.034   3.217   2.741  0.00  0.00    -0.322 OA
ATOM     17  C   UNL d   1      -2.676   2.721   3.919  0.00  0.00     0.213 C 
ENDBRANCH  14  16
ENDBRANCH   9  14
BRANCH  12  18
ATOM     18  C   UNL d   1       1.468   5.010  -2.326  0.00  0.00     0.293 C 
ATOM     19  O   UNL d   1       1.957   4.391  -3.258  0.00  0.00    -0.259 OA
BRANCH  18  20
ATOM     20  O   UNL d   1       1.482   6.358  -2.173  0.00  0.00    -0.323 OA
ATOM     21  C   UNL d   1       2.178   7.054  -3.209  0.00  0.00     0.213 C 
ENDBRANCH  18  20
ENDBRANCH  12  18
ENDBRANCH   1   8
BRANCH   4  22
ATOM     22  S   UNL d   1       1.127  -2.071  -1.778  0.00  0.00    -0.113 SA
BRANCH  22  23
ATOM     23  C   UNL d   1       0.616  -3.802  -1.694  0.00  0.00     0.022 A 
ATOM     24  C   UNL d   1      -0.350  -4.307  -2.599  0.00  0.00     0.022 A 
ATOM     25  C   UNL d   1      -0.695  -5.667  -2.562  0.00  0.00     0.024 A 
ATOM     26  C   UNL d   1       0.009  -6.554  -1.752  0.00  0.00     0.002 A 
ATOM     27  C   UNL d   1       1.014  -6.075  -0.916  0.00  0.00     0.001 A 
ATOM     28  C   UNL d   1       1.298  -4.704  -0.864  0.00  0.00     0.020 A 
BRANCH  24  29
ATOM     29  N   UNL d   1      -1.033  -3.464  -3.499  0.00  0.00    -0.302 NA
ATOM     30  H   UNL d   1      -0.378  -2.832  -3.959  0.00  0.00     0.124 HD
ATOM     31  H   UNL d   1      -1.623  -3.950  -4.166  0.00  0.00     0.124 HD
ENDBRANCH  24  29
ENDBRANCH  22  23
ENDBRANCH   4  22
TORSDOF 8
