REMARK  4 active torsions:
REMARK  status: ('A' for Active; 'I' for Inactive)
REMARK    1  A    between atoms: C_7  and  C_1 
REMARK    2  A    between atoms: C_8  and  N_2 
REMARK    3  A    between atoms: O_12  and  C_7 
REMARK    4  A    between atoms: N_15  and  C_13 
ROOT
ATOM      1  C   UNL d   1      -0.357   1.207   0.040  0.00  0.00     0.078 C 
ATOM      2  N   UNL d   1       0.985  -0.579  -0.043  0.00  0.00    -0.260 N 
ATOM      3  C   UNL d   1       0.979   0.809   0.037  0.00  0.00     0.049 C 
ATOM      4  N   UNL d   1      -0.268  -1.059  -0.253  0.00  0.00    -0.304 N 
ATOM      5  HN  UNL d   1      -0.540  -2.021  -0.458  1.00  0.00     0.186 HD
ATOM      6  C   UNL d   1      -1.062   0.001  -0.134  0.00  0.00     0.128 C 
ATOM      7  C   UNL d   1       2.191   1.678  -0.001  0.00  0.00     0.071 C 
ENDROOT
BRANCH   2   8
ATOM      8  C   UNL d   1       2.081  -1.484   0.017  0.00  0.00     0.056 A 
ATOM      9  C   UNL d   1       3.222  -1.194   0.769  0.00  0.00     0.033 A 
ATOM     10  C   UNL d   1       4.332  -2.041   0.708  0.00  0.00     0.025 A 
ATOM     11  C   UNL d   1       4.304  -3.213  -0.051  0.00  0.00     0.005 A 
ATOM     12  C   UNL d   1       3.153  -3.505  -0.786  0.00  0.00     0.025 A 
ATOM     13  C   UNL d   1       2.030  -2.670  -0.725  0.00  0.00     0.033 A 
BRANCH  11  14
ATOM     14  N   UNL d   1       5.481  -3.940  -0.259  0.00  0.00    -0.303 NA
ATOM     15  H   UNL d   1       5.331  -4.897  -0.557  0.00  0.00     0.124 HD
ATOM     16  H   UNL d   1       6.154  -3.868   0.498  0.00  0.00     0.124 HD
ENDBRANCH  11  14
ENDBRANCH   2   8
BRANCH   1  17
ATOM     17  C   UNL d   1      -0.835   2.581   0.144  0.00  0.00     0.179 C 
ATOM     18  O   UNL d   1      -0.098   3.546   0.272  0.00  0.00    -0.646 OA
BRANCH  17  19
ATOM     19  O   UNL d   1      -2.182   2.740   0.091  0.00  0.00    -0.773 OA
ATOM     20  H   UNL d   1      -2.690   1.919  -0.011  0.00  0.00     0.167 HD
ENDBRANCH  17  19
ENDBRANCH   1  17
TORSDOF 4
