REMARK  8 active torsions:
REMARK  status: ('A' for Active; 'I' for Inactive)
REMARK    1  A    between atoms: C_3  and  C_1 
REMARK    2  A    between atoms: C_2  and  C_4 
REMARK    3  A    between atoms: C_5  and  N_11 
REMARK    4  A    between atoms: N_18  and  C_5 
REMARK    5  A    between atoms: N_19  and  C_8 
REMARK    6  A    between atoms: N_11  and  C_10 
REMARK    7  A    between atoms: C_12  and  C_22 
REMARK    8  A    between atoms: N_13  and  N_18 
ROOT
ATOM      1  C   UNL d   1       1.291   6.441   0.171  0.00  0.00     0.191 C 
ATOM      2  S   UNL d   1       1.402   4.935  -0.539  0.00  0.00    -0.039 SA
ENDROOT
BRANCH   1   3
ATOM      3  N   UNL d   1       0.388   6.859   1.130  0.00  0.00    -0.332 N 
ATOM      4  H   UNL d   1       0.746   7.654   1.649  0.00  0.00     0.168 HD
BRANCH   3   5
ATOM      5  C   UNL d   1      -0.961   6.525   1.326  0.00  0.00     0.035 A 
ATOM      6  C   UNL d   1      -1.542   6.805   2.571  0.00  0.00     0.045 A 
ATOM      7  C   UNL d   1      -2.908   6.571   2.798  0.00  0.00     0.050 A 
ATOM      8  C   UNL d   1      -3.706   6.129   1.733  0.00  0.00     0.032 A 
ATOM      9  C   UNL d   1      -3.150   5.897   0.464  0.00  0.00     0.050 A 
ATOM     10  C   UNL d   1      -1.765   6.063   0.288  0.00  0.00     0.045 A 
BRANCH   7  11
ATOM     11  C   UNL d   1      -3.505   6.799   4.168  0.00  0.00     0.417 C 
ATOM     12  F   UNL d   1      -4.844   6.554   4.224  0.00  0.00    -0.166 F 
ATOM     13  F   UNL d   1      -3.343   8.079   4.603  0.00  0.00    -0.166 F 
ATOM     14  F   UNL d   1      -2.942   6.005   5.120  0.00  0.00    -0.166 F 
ENDBRANCH   7  11
BRANCH   9  15
ATOM     15  C   UNL d   1      -4.006   5.530  -0.721  0.00  0.00     0.417 C 
ATOM     16  F   UNL d   1      -5.338   5.510  -0.438  0.00  0.00    -0.166 F 
ATOM     17  F   UNL d   1      -3.861   6.413  -1.750  0.00  0.00    -0.166 F 
ATOM     18  F   UNL d   1      -3.709   4.306  -1.230  0.00  0.00    -0.166 F 
ENDBRANCH   9  15
ENDBRANCH   3   5
ENDBRANCH   1   3
BRANCH   1  19
ATOM     19  N   UNL d   1       2.206   7.433  -0.163  0.00  0.00    -0.276 N 
ATOM     20  H   UNL d   1       2.891   7.260  -0.890  0.00  0.00     0.189 HD
BRANCH  19  21
ATOM     21  N   UNL d   1       2.024   8.671   0.358  0.00  0.00    -0.309 N 
ATOM     22  C   UNL d   1       2.712   9.661  -0.113  0.00  0.00     0.120 C 
ATOM     23  HN  UNL d   1       1.353   8.820   1.112  1.00  0.00     0.186 HD
BRANCH  22  24
ATOM     24  C   UNL d   1       2.460  11.006   0.459  0.00  0.00     0.003 A 
ATOM     25  C   UNL d   1       3.141  12.160   0.088  0.00  0.00     0.047 A 
ATOM     26  C   UNL d   1       2.851  13.382   0.730  0.00  0.00     0.054 A 
ATOM     27 CL   UNL d   1       4.358  12.160  -1.139  0.00  0.00    -0.083 Cl
ATOM     28  C   UNL d   1       1.887  13.491   1.751  0.00  0.00     0.031 A 
ATOM     29  C   UNL d   1       1.214  12.310   2.086  0.00  0.00     0.030 A 
ATOM     30  C   UNL d   1       1.479  11.098   1.449  0.00  0.00     0.017 A 
BRANCH  28  31
ATOM     31  N   UNL d   1       1.638  14.662   2.452  0.00  0.00    -0.390 N 
ATOM     32  C   UNL d   1       0.303  14.951   2.986  0.00  0.00     0.149 C 
ATOM     33  C   UNL d   1       2.500  15.834   2.337  0.00  0.00     0.149 C 
ENDBRANCH  28  31
ENDBRANCH  22  24
ENDBRANCH  19  21
ENDBRANCH   1  19
TORSDOF 8
