REMARK  1 active torsions:
REMARK  status: ('A' for Active; 'I' for Inactive)
REMARK       I    between atoms: N_2  and  C_1 
REMARK    1  A    between atoms: C_4  and  C_1 
REMARK       I    between atoms: C_3  and  N_2 
REMARK       I    between atoms: N_5  and  C_3 
ROOT
ATOM      1  C   UNL d   1      -0.854  -0.811   0.280  0.00  0.00     0.263 C 
ATOM      2  N   UNL d   1       0.386  -1.054   0.861  0.00  0.00    -0.275 N 
ATOM      3  C   UNL d   1       0.984  -2.291   0.895  0.00  0.00     0.325 C 
ATOM      4  N   UNL d   1       2.361  -2.317   1.141  0.00  0.00    -0.332 N 
ATOM      5  O   UNL d   1      -1.670  -1.655  -0.065  0.00  0.00    -0.267 OA
ATOM      6  O   UNL d   1       0.352  -3.340   0.772  0.00  0.00    -0.247 OA
ATOM      7  S   UNL d   1       5.240  -2.715   2.474  0.00  0.00    -0.166 SA
ATOM      8  C   UNL d   1       3.290  -1.176   1.204  0.00  0.00     0.137 C 
ATOM      9  C   UNL d   1       3.022  -3.634   1.071  0.00  0.00     0.137 C 
ATOM     10  C   UNL d   1       4.205  -1.220   2.433  0.00  0.00     0.093 C 
ATOM     11  C   UNL d   1       3.903  -3.938   2.282  0.00  0.00     0.093 C 
ATOM     12  H   UNL d   1       0.948  -0.253   1.068  0.00  0.00     0.173 HD
ENDROOT
BRANCH   1  13
ATOM     13  C   UNL d   1      -1.206   0.619   0.077  0.00  0.00     0.075 A 
ATOM     14  C   UNL d   1      -0.337   1.488  -0.604  0.00  0.00     0.051 A 
ATOM     15 CL   UNL d   1       1.179   0.980  -1.268  0.00  0.00    -0.083 Cl
ATOM     16  C   UNL d   1      -0.684   2.830  -0.808  0.00  0.00     0.025 A 
ATOM     17  C   UNL d   1      -1.911   3.315  -0.365  0.00  0.00     0.003 A 
ATOM     18  C   UNL d   1      -2.798   2.456   0.276  0.00  0.00     0.025 A 
ATOM     19  C   UNL d   1      -2.453   1.115   0.501  0.00  0.00     0.051 A 
ATOM     20 CL   UNL d   1      -3.619   0.164   1.356  0.00  0.00    -0.083 Cl
ENDBRANCH   1  13
TORSDOF 1
