REMARK  10 active torsions:
REMARK  status: ('A' for Active; 'I' for Inactive)
REMARK    1  A    between atoms: N_3  and  C_1 
REMARK    2  A    between atoms: N_7  and  C_1 
REMARK    3  A    between atoms: C_2  and  N_3 
REMARK    4  A    between atoms: C_6  and  N_7 
REMARK    5  A    between atoms: C_12  and  C_6 
REMARK    6  A    between atoms: C_13  and  C_6 
REMARK    7  A    between atoms: C_14  and  C_6 
REMARK    8  A    between atoms: O_16  and  C_12 
REMARK    9  A    between atoms: O_17  and  C_13 
REMARK   10  A    between atoms: O_15  and  C_14 
ROOT
ATOM      1  C   UNL d   1       0.946   0.690  -0.165  0.00  0.00     0.173 C 
ATOM      2  S   UNL d   1       1.542   2.107  -0.799  0.00  0.00    -0.041 SA
ENDROOT
BRANCH   1   3
ATOM      3  N   UNL d   1       0.873  -0.549  -0.801  0.00  0.00    -0.332 N 
ATOM      4  H   UNL d   1       0.083  -1.068  -0.453  0.00  0.00     0.168 HD
BRANCH   3   5
ATOM      5  C   UNL d   1       1.419  -1.091  -2.001  0.00  0.00     0.046 A 
ATOM      6  C   UNL d   1       0.611  -2.034  -2.700  0.00  0.00    -0.034 A 
ATOM      7  C   UNL d   1       1.107  -2.682  -3.853  0.00  0.00     0.015 A 
ATOM      8  C   UNL d   1      -0.799  -2.429  -2.328  0.00  0.00     0.050 C 
ATOM      9  C   UNL d   1       2.380  -2.416  -4.347  0.00  0.00    -0.061 A 
ATOM     10  C   UNL d   1       3.172  -1.502  -3.660  0.00  0.00     0.015 A 
ATOM     11  C   UNL d   1       2.898  -3.157  -5.543  0.00  0.00     0.048 C 
ATOM     12  C   UNL d   1       2.730  -0.863  -2.474  0.00  0.00    -0.034 A 
ATOM     13  C   UNL d   1       3.787  -0.041  -1.788  0.00  0.00     0.050 C 
ENDBRANCH   3   5
ENDBRANCH   1   3
BRANCH   1  14
ATOM     14  N   UNL d   1       0.258   0.590   1.043  0.00  0.00    -0.351 N 
ATOM     15  H   UNL d   1       0.187  -0.369   1.366  0.00  0.00     0.163 HD
BRANCH  14  16
ATOM     16  C   UNL d   1       0.101   1.492   2.245  0.00  0.00     0.095 C 
BRANCH  16  17
ATOM     17  C   UNL d   1       0.043   3.013   1.975  0.00  0.00     0.199 C 
BRANCH  17  18
ATOM     18  O   UNL d   1      -0.941   3.338   1.000  0.00  0.00    -0.398 OA
ATOM     19  H   UNL d   1      -0.581   3.014   0.150  0.00  0.00     0.209 HD
ENDBRANCH  17  18
ENDBRANCH  16  17
BRANCH  16  20
ATOM     20  C   UNL d   1      -1.260   1.105   2.901  0.00  0.00     0.199 C 
BRANCH  20  21
ATOM     21  O   UNL d   1      -1.289  -0.284   3.264  0.00  0.00    -0.398 OA
ATOM     22  H   UNL d   1      -2.209  -0.479   3.519  0.00  0.00     0.209 HD
ENDBRANCH  20  21
ENDBRANCH  16  20
BRANCH  16  23
ATOM     23  C   UNL d   1       1.268   1.204   3.226  0.00  0.00     0.199 C 
BRANCH  23  24
ATOM     24  O   UNL d   1       1.339  -0.177   3.604  0.00  0.00    -0.398 OA
ATOM     25  H   UNL d   1       0.419  -0.476   3.772  0.00  0.00     0.209 HD
ENDBRANCH  23  24
ENDBRANCH  16  23
ENDBRANCH  14  16
ENDBRANCH   1  14
TORSDOF 10
