REMARK  4 active torsions:
REMARK  status: ('A' for Active; 'I' for Inactive)
REMARK       I    between atoms: N_4  and  C_1 
REMARK    1  A    between atoms: C_8  and  C_1 
REMARK    2  A    between atoms: N_2  and  N_4 
REMARK    3  A    between atoms: C_10  and  C_9 
REMARK    4  A    between atoms: O_16  and  C_11 
ROOT
ATOM      1  N   UNL d   1       1.018   2.462  -0.035  0.00  0.00    -0.308 N 
ATOM      2  HN  UNL d   1       2.013   2.486  -0.256  1.00  0.00     0.186 HD
ATOM      3  C   UNL d   1       0.349   3.556   0.139  0.00  0.00     0.118 C 
ENDROOT
BRANCH   1   4
ATOM      4  N   UNL d   1       0.356   1.277   0.085  0.00  0.00    -0.266 N 
ATOM      5  C   UNL d   1       1.069   0.111  -0.167  0.00  0.00     0.270 C 
ATOM      6  O   UNL d   1       2.251   0.077  -0.508  0.00  0.00    -0.266 OA
ATOM      7  H   UNL d   1      -0.642   1.276   0.258  0.00  0.00     0.190 HD
BRANCH   5   8
ATOM      8  C   UNL d   1       0.341  -1.177  -0.042  0.00  0.00     0.036 A 
ATOM      9  C   UNL d   1       0.806  -2.256  -0.800  0.00  0.00     0.034 A 
ATOM     10  C   UNL d   1       0.169  -3.475  -0.665  0.00  0.00     0.088 A 
ATOM     11  N   UNL d   1      -0.875  -3.680   0.163  0.00  0.00    -0.375 N 
ATOM     12  C   UNL d   1      -1.292  -2.627   0.899  0.00  0.00     0.088 A 
ATOM     13  HN  UNL d   1      -1.330  -4.590   0.231  1.00  0.00     0.164 HD
ATOM     14  C   UNL d   1      -0.726  -1.363   0.835  0.00  0.00     0.034 A 
ENDBRANCH   5   8
ENDBRANCH   1   4
BRANCH   3  15
ATOM     15  C   UNL d   1       1.032   4.865   0.028  0.00  0.00    -0.019 A 
ATOM     16  C   UNL d   1       2.387   4.923  -0.316  0.00  0.00     0.015 A 
ATOM     17  C   UNL d   1       3.045   6.155  -0.398  0.00  0.00     0.037 A 
ATOM     18  C   UNL d   1       2.352   7.336  -0.133  0.00  0.00     0.068 A 
ATOM     19  C   UNL d   1       0.994   7.272   0.200  0.00  0.00     0.037 A 
ATOM     20  C   UNL d   1       0.328   6.043   0.280  0.00  0.00     0.015 A 
BRANCH  18  21
ATOM     21  O   UNL d   1       2.881   8.597  -0.161  0.00  0.00    -0.356 OA
ATOM     22  C   UNL d   1       4.264   8.707  -0.481  0.00  0.00     0.210 C 
ENDBRANCH  18  21
ENDBRANCH   3  15
TORSDOF 4
