REMARK  3 active torsions:
REMARK  status: ('A' for Active; 'I' for Inactive)
REMARK    1  A    between atoms: C_7  and  N_1 
REMARK    2  A    between atoms: O_10  and  C_4 
REMARK    3  A    between atoms: C_11  and  C_7 
ROOT
ATOM      1  N   UNL d   1       1.268   1.287   0.063  0.00  0.00    -0.308 N 
ATOM      2  C   UNL d   1       2.400  -0.894   0.143  0.00  0.00     0.136 C 
ATOM      3  C   UNL d   1       2.460   0.589   0.255  0.00  0.00     0.273 C 
ATOM      4  C   UNL d   1       1.235  -1.547   0.036  0.00  0.00     0.105 C 
ATOM      5  C   UNL d   1      -0.038  -0.798   0.015  0.00  0.00     0.026 A 
ATOM      6  C   UNL d   1       0.004   0.614  -0.021  0.00  0.00     0.051 A 
ATOM      7  O   UNL d   1       3.528   1.154   0.496  0.00  0.00    -0.266 OA
ATOM      8 CL   UNL d   1       3.917  -1.733   0.125  0.00  0.00    -0.075 Cl
ATOM      9  C   UNL d   1      -1.295  -1.440   0.029  0.00  0.00     0.016 A 
ATOM     10  C   UNL d   1      -1.205   1.328  -0.096  0.00  0.00     0.031 A 
ATOM     11  C   UNL d   1      -2.485  -0.710  -0.035  0.00  0.00     0.001 A 
ATOM     12  C   UNL d   1      -2.437   0.672  -0.108  0.00  0.00     0.002 A 
ENDROOT
BRANCH   1  13
ATOM     13  C   UNL d   1       1.350   2.755   0.067  0.00  0.00     0.171 C 
BRANCH  13  14
ATOM     14  C   UNL d   1       0.888   3.398   1.358  0.00  0.00    -0.040 A 
ATOM     15  C   UNL d   1       1.191   2.836   2.607  0.00  0.00     0.009 A 
ATOM     16  C   UNL d   1       0.681   3.393   3.780  0.00  0.00     0.001 A 
ATOM     17  C   UNL d   1      -0.107   4.539   3.721  0.00  0.00     0.000 A 
ATOM     18  C   UNL d   1      -0.357   5.150   2.494  0.00  0.00     0.001 A 
ATOM     19  C   UNL d   1       0.146   4.589   1.319  0.00  0.00     0.009 A 
ENDBRANCH  13  14
ENDBRANCH   1  13
BRANCH   4  20
ATOM     20  O   UNL d   1       1.216  -2.929  -0.086  0.00  0.00    -0.358 OA
ATOM     21  H   UNL d   1       0.336  -3.246  -0.330  0.00  0.00     0.217 HD
ENDBRANCH   4  20
TORSDOF 3
