REMARK  4 active torsions:
REMARK  status: ('A' for Active; 'I' for Inactive)
REMARK       I    between atoms: N_2  and  C_1 
REMARK    1  A    between atoms: C_4  and  C_1 
REMARK    2  A    between atoms: C_7  and  N_2 
REMARK    3  A    between atoms: C_3  and  C_7 
REMARK       I    between atoms: N_10  and  C_3 
REMARK    4  A    between atoms: O_14  and  C_11 
ROOT
ATOM      1  C   UNL d   1       0.988   0.006  -0.070  0.00  0.00     0.252 C 
ATOM      2  N   UNL d   1       0.895   1.151  -0.824  0.00  0.00    -0.348 N 
ATOM      3  O   UNL d   1       1.658  -0.057   0.956  0.00  0.00    -0.268 OA
ATOM      4  H   UNL d   1       0.471   1.152  -1.745  0.00  0.00     0.163 HD
ENDROOT
BRANCH   1   5
ATOM      5  C   UNL d   1       0.262  -1.195  -0.568  0.00  0.00     0.032 A 
ATOM      6  C   UNL d   1       0.724  -2.456  -0.168  0.00  0.00     0.020 A 
ATOM      7  C   UNL d   1       0.076  -3.621  -0.593  0.00  0.00     0.038 A 
ATOM      8  C   UNL d   1      -1.044  -3.535  -1.419  0.00  0.00     0.068 A 
ATOM      9  C   UNL d   1      -1.514  -2.276  -1.806  0.00  0.00     0.038 A 
ATOM     10  C   UNL d   1      -0.870  -1.108  -1.384  0.00  0.00     0.020 A 
BRANCH   8  11
ATOM     11  O   UNL d   1      -1.763  -4.591  -1.909  0.00  0.00    -0.356 OA
ATOM     12  C   UNL d   1      -1.314  -5.893  -1.554  0.00  0.00     0.210 C 
ENDBRANCH   8  11
ENDBRANCH   1   5
BRANCH   2  13
ATOM     13  C   UNL d   1       1.626   2.342  -0.441  0.00  0.00     0.225 C 
BRANCH  13  14
ATOM     14  C   UNL d   1       1.461   3.431  -1.494  0.00  0.00     0.233 C 
ATOM     15  O   UNL d   1       0.845   3.274  -2.545  0.00  0.00    -0.272 OA
ATOM     16  N   UNL d   1       2.066   4.620  -1.202  0.00  0.00    -0.369 N 
ATOM     17  H   UNL d   1       2.569   4.789  -0.342  0.00  0.00     0.159 HD
ATOM     18  H   UNL d   1       1.981   5.373  -1.873  0.00  0.00     0.159 HD
ENDBRANCH  13  14
ENDBRANCH   2  13
TORSDOF 4
