REMARK  8 active torsions:
REMARK  status: ('A' for Active; 'I' for Inactive)
REMARK    1  A    between atoms: N_2  and  C_1 
REMARK    2  A    between atoms: C_5  and  C_1 
REMARK    3  A    between atoms: C_6  and  C_1 
REMARK    4  A    between atoms: C_15  and  C_1 
REMARK    5  A    between atoms: S_3  and  O_7 
REMARK    6  A    between atoms: S_4  and  O_8 
REMARK    7  A    between atoms: O_8  and  C_5 
REMARK    8  A    between atoms: O_7  and  C_6 
ROOT
ATOM      1  C   UNL d   1       0.876  -0.039   0.025  0.00  0.00     0.145 C 
ENDROOT
BRANCH   1   2
ATOM      2  N   UNL d   1       0.161  -0.209  -1.338  0.00  0.00    -0.140 N 
ATOM      3  O   UNL d   1      -0.099  -1.355  -1.726  0.00  0.00    -0.536 OA
ATOM      4  O   UNL d   1      -0.085   0.810  -1.998  0.00  0.00    -0.536 OA
ENDBRANCH   1   2
BRANCH   1   5
ATOM      5  C   UNL d   1       0.393  -1.226   0.923  0.00  0.00     0.230 C 
BRANCH   5   6
ATOM      6  O   UNL d   1       0.828  -2.514   0.490  0.00  0.00    -0.273 OA
BRANCH   6   7
ATOM      7  S   UNL d   1       0.157  -3.800   1.240  0.00  0.00     0.261 S 
ATOM      8  O   UNL d   1       0.783  -3.915   2.540  0.00  0.00    -0.199 OA
ATOM      9  O   UNL d   1      -1.281  -3.729   1.094  0.00  0.00    -0.199 OA
ATOM     10  C   UNL d   1       0.785  -5.082   0.178  0.00  0.00     0.194 C 
ENDBRANCH   6   7
ENDBRANCH   5   6
ENDBRANCH   1   5
BRANCH   1  11
ATOM     11  C   UNL d   1       0.280   1.229   0.696  0.00  0.00     0.230 C 
BRANCH  11  12
ATOM     12  O   UNL d   1       0.550   2.423  -0.008  0.00  0.00    -0.273 OA
BRANCH  12  13
ATOM     13  S   UNL d   1       0.160   3.850   0.651  0.00  0.00     0.261 S 
ATOM     14  O   UNL d   1      -1.269   3.868   0.890  0.00  0.00    -0.199 OA
ATOM     15  O   UNL d   1       1.108   4.135   1.703  0.00  0.00    -0.199 OA
ATOM     16  C   UNL d   1       0.534   4.874  -0.766  0.00  0.00     0.194 C 
ENDBRANCH  12  13
ENDBRANCH  11  12
ENDBRANCH   1  11
BRANCH   1  17
ATOM     17  C   UNL d   1       2.434  -0.106  -0.240  0.00  0.00     0.025 C 
ATOM     18  C   UNL d   1       3.321  -0.034   1.023  0.00  0.00     0.007 C 
ATOM     19  C   UNL d   1       3.557   1.374   1.560  0.00  0.00     0.000 C 
ATOM     20  C   UNL d   1       4.027   2.369   0.506  0.00  0.00     0.000 C 
ATOM     21  C   UNL d   1       3.367   2.246  -0.860  0.00  0.00     0.000 C 
ATOM     22  C   UNL d   1       3.068   0.822  -1.302  0.00  0.00     0.007 C 
ENDBRANCH   1  17
TORSDOF 8
