REMARK  3 active torsions:
REMARK  status: ('A' for Active; 'I' for Inactive)
REMARK    1  A    between atoms: C_8  and  C_4 
REMARK    2  A    between atoms: C_17  and  C_10 
REMARK    3  A    between atoms: N_12  and  C_11 
ROOT
ATOM      1  N   UNL d   1       1.919  -2.149   0.118  0.00  0.00    -0.357 N 
ATOM      2  HN  UNL d   1       1.529  -2.733  -0.622  1.00  0.00     0.166 HD
ATOM      3  C   UNL d   1       1.689  -2.267   1.516  0.00  0.00     0.051 C 
ATOM      4  C   UNL d   1       2.735  -1.136  -0.022  0.00  0.00     0.022 C 
ATOM      5  C   UNL d   1       2.346  -1.253   2.225  0.00  0.00    -0.017 C 
ATOM      6  C   UNL d   1       3.401  -0.704   1.306  0.00  0.00     0.024 C 
ATOM      7  C   UNL d   1       0.859  -3.166   2.189  0.00  0.00     0.001 A 
ATOM      8  C   UNL d   1       1.982  -0.914   3.513  0.00  0.00     0.011 C 
ATOM      9  C   UNL d   1       0.494  -2.850   3.522  0.00  0.00    -0.024 A 
ATOM     10  C   UNL d   1       1.003  -1.687   4.138  0.00  0.00     0.013 C 
ATOM     11  C   UNL d   1       4.688  -1.543   1.467  0.00  0.00     0.027 C 
ATOM     12  C   UNL d   1       3.701   0.773   1.489  0.00  0.00     0.027 C 
ATOM     13  C   UNL d   1       0.434  -4.382   1.627  0.00  0.00     0.014 A 
ATOM     14  C   UNL d   1      -0.352  -3.722   4.224  0.00  0.00     0.012 A 
ATOM     15  C   UNL d   1      -0.326  -5.281   2.379  0.00  0.00     0.001 A 
ATOM     16  C   UNL d   1      -0.740  -4.940   3.664  0.00  0.00     0.001 A 
ENDROOT
BRANCH   4  17
ATOM     17  C   UNL d   1       3.025  -0.402  -1.278  0.00  0.00     0.027 C 
ATOM     18  C   UNL d   1       2.001  -0.145  -2.112  0.00  0.00     0.013 C 
BRANCH  18  19
ATOM     19  C   UNL d   1       2.042   0.751  -3.275  0.00  0.00    -0.036 A 
ATOM     20  C   UNL d   1       2.783   1.934  -3.309  0.00  0.00     0.013 A 
ATOM     21  C   UNL d   1       2.721   2.805  -4.417  0.00  0.00     0.030 A 
ATOM     22  C   UNL d   1       1.909   2.549  -5.538  0.00  0.00     0.029 A 
ATOM     23  C   UNL d   1       1.175   1.353  -5.482  0.00  0.00     0.030 A 
ATOM     24  C   UNL d   1       1.229   0.479  -4.380  0.00  0.00     0.013 A 
BRANCH  22  25
ATOM     25  N   UNL d   1       1.872   3.385  -6.662  0.00  0.00    -0.390 N 
ATOM     26  C   UNL d   1       0.602   3.526  -7.381  0.00  0.00     0.149 C 
ATOM     27  C   UNL d   1       2.700   4.591  -6.686  0.00  0.00     0.149 C 
ENDBRANCH  22  25
ENDBRANCH  18  19
ENDBRANCH   4  17
TORSDOF 3
