REMARK  4 active torsions:
REMARK  status: ('A' for Active; 'I' for Inactive)
REMARK    1  A    between atoms: S_7  and  C_2 
REMARK    2  A    between atoms: C_15  and  S_7 
REMARK    3  A    between atoms: C_13  and  C_15 
REMARK    4  A    between atoms: O_16  and  C_13 
ROOT
ATOM      1  C   UNL d   1       0.119  -0.619   0.032  0.00  0.00     0.065 A 
ATOM      2  C   UNL d   1      -0.908  -1.561   0.051  0.00  0.00     0.090 A 
ATOM      3  N   UNL d   1      -2.192  -1.142   0.017  0.00  0.00    -0.346 N 
ATOM      4  HN  UNL d   1      -2.963  -1.809   0.028  1.00  0.00     0.167 HD
ATOM      5  S   UNL d   1       1.833  -0.801   0.061  0.00  0.00    -0.097 SA
ATOM      6  C   UNL d   1      -0.229   0.730  -0.022  0.00  0.00     0.053 A 
ATOM      7  C   UNL d   1       2.094   0.885   0.004  0.00  0.00     0.053 A 
ATOM      8  C   UNL d   1       0.912   1.586  -0.034  0.00  0.00     0.038 A 
ATOM      9  N   UNL d   1      -1.515   1.158  -0.054  0.00  0.00    -0.351 N 
ATOM     10  HN  UNL d   1      -1.769   2.145  -0.091  1.00  0.00     0.166 HD
ATOM     11  C   UNL d   1      -2.420   0.178  -0.033  0.00  0.00     0.181 A 
ENDROOT
BRANCH   2  12
ATOM     12  S   UNL d   1      -0.580  -3.302   0.155  0.00  0.00    -0.101 SA
BRANCH  12  13
ATOM     13  C   UNL d   1      -1.987  -3.942  -0.806  0.00  0.00     0.191 C 
BRANCH  13  14
ATOM     14  C   UNL d   1      -2.004  -3.414  -2.225  0.00  0.00     0.268 C 
ATOM     15  O   UNL d   1      -1.036  -3.018  -2.863  0.00  0.00    -0.264 OA
BRANCH  14  16
ATOM     16  O   UNL d   1      -3.273  -3.501  -2.726  0.00  0.00    -0.326 OA
ATOM     17  C   UNL d   1      -3.401  -3.019  -4.064  0.00  0.00     0.213 C 
ENDBRANCH  14  16
ENDBRANCH  13  14
ENDBRANCH  12  13
ENDBRANCH   2  12
TORSDOF 4
