REMARK  1 active torsions:
REMARK  status: ('A' for Active; 'I' for Inactive)
REMARK    1  A    between atoms: C_6  and  C_3 
ROOT
ATOM      1  C   UNL d   1       1.176   1.172  -0.075  0.00  0.00     0.176 A 
ATOM      2  C   UNL d   1       1.142  -1.211  -0.070  0.00  0.00     0.176 A 
ATOM      3  C   UNL d   1       2.103  -0.033  -0.119  0.00  0.00     0.168 A 
ATOM      4  C   UNL d   1      -0.206   0.694  -0.045  0.00  0.00     0.025 A 
ATOM      5  C   UNL d   1      -0.226  -0.693  -0.042  0.00  0.00     0.025 A 
ATOM      6  O   UNL d   1       1.479   2.351  -0.077  0.00  0.00    -0.291 OA
ATOM      7  O   UNL d   1       1.411  -2.398  -0.069  0.00  0.00    -0.291 OA
ATOM      8  C   UNL d   1      -1.371   1.438  -0.015  0.00  0.00     0.016 A 
ATOM      9  C   UNL d   1      -1.413  -1.402  -0.012  0.00  0.00     0.016 A 
ATOM     10  C   UNL d   1      -2.603  -0.669   0.015  0.00  0.00     0.001 A 
ATOM     11  C   UNL d   1      -2.582   0.740   0.014  0.00  0.00     0.001 A 
ENDROOT
BRANCH   3  12
ATOM     12  C   UNL d   1       3.135  -0.045   0.987  0.00  0.00    -0.039 A 
ATOM     13  C   UNL d   1       4.500  -0.097   0.662  0.00  0.00     0.010 A 
ATOM     14  C   UNL d   1       5.472  -0.101   1.666  0.00  0.00     0.024 A 
ATOM     15  C   UNL d   1       5.087  -0.054   3.003  0.00  0.00     0.034 A 
ATOM     16  C   UNL d   1       3.738  -0.006   3.345  0.00  0.00     0.024 A 
ATOM     17 CL   UNL d   1       6.283  -0.054   4.240  0.00  0.00    -0.084 Cl
ATOM     18  C   UNL d   1       2.765  -0.002   2.341  0.00  0.00     0.010 A 
ENDBRANCH   3  12
TORSDOF 1
