REMARK  5 active torsions:
REMARK  status: ('A' for Active; 'I' for Inactive)
REMARK    1  A    between atoms: C_2  and  S_1 
REMARK    2  A    between atoms: N_3  and  S_1 
REMARK    3  A    between atoms: C_10  and  N_3 
REMARK    4  A    between atoms: C_9  and  O_13 
REMARK    5  A    between atoms: O_13  and  C_14 
ROOT
ATOM      1  N   UNL d   1       0.682   0.291  -1.573  0.00  0.00    -0.178 NA
ATOM      2  H   UNL d   1       0.025  -0.204  -2.182  0.00  0.00     0.146 HD
ENDROOT
BRANCH   1   3
ATOM      3  S   UNL d   1       0.190   0.033   0.030  0.00  0.00     0.250 S 
ATOM      4  O   UNL d   1      -0.691   1.101   0.431  0.00  0.00    -0.205 OA
ATOM      5  O   UNL d   1      -0.245  -1.347   0.065  0.00  0.00    -0.205 OA
BRANCH   3   6
ATOM      6  C   UNL d   1       1.505   0.104   1.112  0.00  0.00     0.130 A 
ATOM      7  C   UNL d   1       2.212   1.231   1.465  0.00  0.00     0.097 A 
ATOM      8  O   UNL d   1       3.163   0.891   2.374  0.00  0.00    -0.241 OA
ATOM      9  C   UNL d   1       2.143   2.663   1.134  0.00  0.00     0.081 C 
ATOM     10  N   UNL d   1       3.065  -0.450   2.669  0.00  0.00    -0.264 N 
ATOM     11  C   UNL d   1       2.044  -0.920   1.937  0.00  0.00     0.054 A 
ATOM     12  HN  UNL d   1       3.651  -0.980   3.314  1.00  0.00     0.194 HD
ATOM     13  C   UNL d   1       1.641  -2.336   2.129  0.00  0.00     0.072 C 
ENDBRANCH   3   6
ENDBRANCH   1   3
BRANCH   1  14
ATOM     14  C   UNL d   1       0.982   1.605  -2.060  0.00  0.00     0.056 A 
ATOM     15  C   UNL d   1       2.311   1.979  -2.312  0.00  0.00     0.100 A 
ATOM     16  C   UNL d   1       2.599   3.261  -2.794  0.00  0.00     0.039 A 
ATOM     17  C   UNL d   1       1.569   4.147  -3.106  0.00  0.00     0.003 A 
ATOM     18  C   UNL d   1       0.244   3.758  -2.912  0.00  0.00     0.002 A 
ATOM     19  C   UNL d   1      -0.048   2.496  -2.382  0.00  0.00     0.027 A 
BRANCH  15  20
ATOM     20  O   UNL d   1       3.399   1.200  -2.051  0.00  0.00    -0.253 OA
BRANCH  20  21
ATOM     21  C   UNL d   1       3.397  -0.109  -2.612  0.00  0.00     0.530 C 
ATOM     22  F   UNL d   1       2.328  -0.391  -3.389  0.00  0.00    -0.144 F 
ATOM     23  F   UNL d   1       4.500  -0.242  -3.385  0.00  0.00    -0.144 F 
ATOM     24  F   UNL d   1       3.474  -1.014  -1.613  0.00  0.00    -0.144 F 
ENDBRANCH  20  21
ENDBRANCH  15  20
ENDBRANCH   1  14
TORSDOF 5
