REMARK  2 active torsions:
REMARK  status: ('A' for Active; 'I' for Inactive)
REMARK    1  A    between atoms: C_8  and  C_3 
REMARK    2  A    between atoms: C_10  and  C_7 
ROOT
ATOM      1  N   UNL d   1       1.559  -0.069   0.038  0.00  0.00    -0.331 N 
ATOM      2  HN  UNL d   1       2.509  -0.441   0.052  1.00  0.00     0.168 HD
ATOM      3  C   UNL d   1       1.176   1.167  -0.004  0.00  0.00     0.162 A 
ATOM      4  C   UNL d   1       0.371  -0.756   0.060  0.00  0.00     0.111 A 
ATOM      5  O   UNL d   1      -0.154   1.414   0.010  0.00  0.00    -0.256 OA
ATOM      6  C   UNL d   1      -0.774   0.201   0.055  0.00  0.00     0.316 A 
ATOM      7  C   UNL d   1       0.295  -2.093   0.051  0.00  0.00     0.047 C 
ATOM      8  O   UNL d   1      -1.971   0.003   0.081  0.00  0.00    -0.257 OA
ENDROOT
BRANCH   7   9
ATOM      9  C   UNL d   1      -0.939  -2.875   0.017  0.00  0.00    -0.034 A 
ATOM     10  C   UNL d   1      -1.488  -3.260  -1.212  0.00  0.00     0.013 A 
ATOM     11  C   UNL d   1      -2.663  -4.015  -1.251  0.00  0.00     0.024 A 
ATOM     12  C   UNL d   1      -3.288  -4.385  -0.061  0.00  0.00     0.034 A 
ATOM     13  C   UNL d   1      -2.748  -4.006   1.167  0.00  0.00     0.024 A 
ATOM     14 CL   UNL d   1      -4.732  -5.320  -0.109  0.00  0.00    -0.084 Cl
ATOM     15  C   UNL d   1      -1.573  -3.250   1.207  0.00  0.00     0.013 A 
ENDBRANCH   7   9
BRANCH   3  16
ATOM     16  C   UNL d   1       2.037   2.357  -0.094  0.00  0.00     0.015 A 
ATOM     17  C   UNL d   1       3.426   2.186  -0.148  0.00  0.00     0.016 A 
ATOM     18  C   UNL d   1       4.263   3.294  -0.291  0.00  0.00     0.001 A 
ATOM     19  C   UNL d   1       3.717   4.574  -0.377  0.00  0.00     0.000 A 
ATOM     20  C   UNL d   1       2.336   4.751  -0.309  0.00  0.00     0.001 A 
ATOM     21  C   UNL d   1       1.494   3.646  -0.166  0.00  0.00     0.016 A 
ENDBRANCH   3  16
TORSDOF 2
