REMARK  4 active torsions:
REMARK  status: ('A' for Active; 'I' for Inactive)
REMARK    1  A    between atoms: C_5  and  C_1 
REMARK    2  A    between atoms: N_8  and  C_2 
REMARK       I    between atoms: C_9  and  N_8 
REMARK       I    between atoms: N_14  and  C_9 
REMARK    3  A    between atoms: N_10  and  N_14 
REMARK    4  A    between atoms: C_19  and  C_15 
ROOT
ATOM      1  N   UNL d   1       0.422  -2.495  -0.679  0.00  0.00    -0.303 N 
ATOM      2  C   UNL d   1       1.611  -2.708  -1.333  0.00  0.00     0.339 C 
ATOM      3  N   UNL d   1       2.245  -1.582  -1.829  0.00  0.00    -0.252 N 
ATOM      4  O   UNL d   1       1.969  -3.869  -1.517  0.00  0.00    -0.245 OA
ATOM      5  H   UNL d   1      -0.131  -3.342  -0.606  0.00  0.00     0.171 HD
ATOM      6  H   UNL d   1       1.636  -0.782  -1.960  0.00  0.00     0.191 HD
ENDROOT
BRANCH   1   7
ATOM      7  C   UNL d   1      -0.115  -1.345  -0.119  0.00  0.00     0.097 C 
ATOM      8  C   UNL d   1      -1.501  -1.073   0.163  0.00  0.00     0.097 C 
ATOM      9  N   UNL d   1      -1.632   0.155   0.689  0.00  0.00    -0.258 N 
ATOM     10  O   UNL d   1      -0.361   0.637   0.876  0.00  0.00    -0.240 OA
ATOM     11  HN  UNL d   1      -2.505   0.636   0.906  1.00  0.00     0.195 HD
ATOM     12  C   UNL d   1       0.545  -0.292   0.479  0.00  0.00     0.101 C 
ATOM     13  C   UNL d   1       1.926  -0.039   0.937  0.00  0.00     0.081 C 
BRANCH   8  14
ATOM     14  C   UNL d   1      -2.685  -1.926   0.019  0.00  0.00     0.038 A 
ATOM     15  C   UNL d   1      -2.752  -3.180   0.661  0.00  0.00     0.048 A 
ATOM     16 CL   UNL d   1      -1.437  -3.853   1.569  0.00  0.00    -0.083 Cl
ATOM     17  C   UNL d   1      -3.925  -3.945   0.638  0.00  0.00     0.025 A 
ATOM     18  C   UNL d   1      -5.065  -3.468   0.001  0.00  0.00     0.003 A 
ATOM     19  C   UNL d   1      -5.021  -2.237  -0.645  0.00  0.00     0.025 A 
ATOM     20  C   UNL d   1      -3.842  -1.476  -0.652  0.00  0.00     0.048 A 
ATOM     21 CL   UNL d   1      -3.899   0.010  -1.543  0.00  0.00    -0.083 Cl
ENDBRANCH   8  14
ENDBRANCH   1   7
BRANCH   3  22
ATOM     22  N   UNL d   1       3.290  -1.584  -2.737  0.00  0.00    -0.306 N 
ATOM     23  C   UNL d   1       4.184  -2.526  -2.674  0.00  0.00     0.136 C 
ATOM     24  HN  UNL d   1       3.357  -0.855  -3.448  1.00  0.00     0.186 HD
BRANCH  23  25
ATOM     25  C   UNL d   1       5.313  -2.622  -3.634  0.00  0.00     0.049 A 
ATOM     26  N   UNL d   1       6.184  -3.634  -3.386  0.00  0.00    -0.365 N 
ATOM     27  C   UNL d   1       7.233  -3.748  -4.229  0.00  0.00     0.088 A 
ATOM     28  HN  UNL d   1       6.052  -4.275  -2.604  1.00  0.00     0.165 HD
ATOM     29  C   UNL d   1       7.465  -2.902  -5.308  0.00  0.00     0.017 A 
ATOM     30  C   UNL d   1       6.549  -1.879  -5.536  0.00  0.00     0.004 A 
ATOM     31  C   UNL d   1       5.449  -1.734  -4.690  0.00  0.00     0.031 A 
ENDBRANCH  23  25
ENDBRANCH   3  22
TORSDOF 4
