REMARK  5 active torsions:
REMARK  status: ('A' for Active; 'I' for Inactive)
REMARK    1  A    between atoms: N_9  and  C_6 
REMARK       I    between atoms: C_8  and  N_9 
REMARK    2  A    between atoms: O_13  and  C_8 
REMARK    3  A    between atoms: C_16  and  O_13 
REMARK    4  A    between atoms: C_17  and  C_16 
REMARK    5  A    between atoms: C_18  and  C_17 
ROOT
ATOM      1  C   UNL d   1       1.842   0.371   0.144  0.00  0.00     0.106 A 
ATOM      2  C   UNL d   1       1.739  -1.101   0.124  0.00  0.00     0.304 A 
ATOM      3  C   UNL d   1       0.638   1.237   0.097  0.00  0.00     0.202 A 
ATOM      4  O   UNL d   1       0.459  -1.626   0.053  0.00  0.00    -0.274 OA
ATOM      5  C   UNL d   1      -0.659   0.548   0.060  0.00  0.00     0.049 A 
ATOM      6  C   UNL d   1       3.045   0.982   0.149  0.00  0.00     0.115 C 
ATOM      7  C   UNL d   1      -0.698  -0.838   0.037  0.00  0.00     0.093 A 
ATOM      8  O   UNL d   1       2.719  -1.843   0.157  0.00  0.00    -0.259 OA
ATOM      9  O   UNL d   1       0.689   2.461   0.088  0.00  0.00    -0.286 OA
ATOM     10  C   UNL d   1      -1.858   1.270   0.049  0.00  0.00     0.018 A 
ATOM     11  C   UNL d   1      -1.916  -1.522  -0.001  0.00  0.00     0.038 A 
ATOM     12  C   UNL d   1      -3.080   0.594   0.019  0.00  0.00     0.001 A 
ATOM     13  C   UNL d   1      -3.108  -0.801  -0.009  0.00  0.00     0.003 A 
ENDROOT
BRANCH   6  14
ATOM     14  N   UNL d   1       4.252   0.319   0.164  0.00  0.00    -0.312 N 
ATOM     15  C   UNL d   1       5.469   0.885  -0.102  0.00  0.00     0.364 C 
ATOM     16  O   UNL d   1       5.679   2.071  -0.310  0.00  0.00    -0.238 OA
ATOM     17  H   UNL d   1       4.257  -0.701   0.203  0.00  0.00     0.170 HD
BRANCH  15  18
ATOM     18  O   UNL d   1       6.390  -0.106  -0.224  0.00  0.00    -0.304 OA
BRANCH  18  19
ATOM     19  C   UNL d   1       7.489   0.184  -1.098  0.00  0.00     0.180 C 
BRANCH  19  20
ATOM     20  C   UNL d   1       8.766   0.562  -0.359  0.00  0.00     0.026 C 
BRANCH  20  21
ATOM     21  C   UNL d   1       9.311  -0.570   0.513  0.00  0.00    -0.002 C 
ATOM     22  C   UNL d   1      10.722  -0.259   0.995  0.00  0.00     0.005 C 
ENDBRANCH  20  21
ENDBRANCH  19  20
ENDBRANCH  18  19
ENDBRANCH  15  18
ENDBRANCH   6  14
TORSDOF 5
