REMARK  4 active torsions:
REMARK  status: ('A' for Active; 'I' for Inactive)
REMARK    1  A    between atoms: C_6  and  C_1 
REMARK    2  A    between atoms: C_7  and  C_2 
REMARK    3  A    between atoms: C_9  and  C_5 
REMARK       I    between atoms: N_8  and  C_6 
REMARK    4  A    between atoms: C_16  and  N_8 
ROOT
ATOM      1  C   UNL d   1       1.113   0.690   0.133  0.00  0.00     0.073 A 
ATOM      2  C   UNL d   1      -0.182   1.154  -0.055  0.00  0.00     0.175 A 
ATOM      3  O   UNL d   1      -1.062   0.101  -0.021  0.00  0.00    -0.304 OA
ATOM      4  C   UNL d   1       0.974  -0.720   0.347  0.00  0.00     0.058 A 
ATOM      5  C   UNL d   1      -0.356  -1.041   0.215  0.00  0.00     0.087 A 
ENDROOT
BRANCH   1   6
ATOM      6  C   UNL d   1       2.409   1.369   0.138  0.00  0.00     0.259 C 
ATOM      7  N   UNL d   1       2.490   2.554  -0.567  0.00  0.00    -0.323 N 
ATOM      8  H   UNL d   1       1.631   2.995  -0.864  0.00  0.00     0.169 HD
ATOM      9  O   UNL d   1       3.351   0.831   0.709  0.00  0.00    -0.267 OA
BRANCH   7  10
ATOM     10  C   UNL d   1       3.672   3.230  -0.946  0.00  0.00     0.035 A 
ATOM     11  C   UNL d   1       4.962   2.726  -0.739  0.00  0.00     0.032 A 
ATOM     12  C   UNL d   1       6.082   3.429  -1.193  0.00  0.00     0.044 A 
ATOM     13  C   UNL d   1       5.913   4.638  -1.852  0.00  0.00     0.116 A 
ATOM     14  C   UNL d   1       4.645   5.158  -2.066  0.00  0.00     0.044 A 
ATOM     15  F   UNL d   1       6.987   5.305  -2.294  0.00  0.00    -0.206 F 
ATOM     16  C   UNL d   1       3.524   4.455  -1.615  0.00  0.00     0.032 A 
ENDBRANCH   7  10
ENDBRANCH   1   6
BRANCH   2  17
ATOM     17  C   UNL d   1      -0.809   2.481  -0.265  0.00  0.00     0.440 C 
ATOM     18  F   UNL d   1       0.108   3.485  -0.242  0.00  0.00    -0.164 F 
ATOM     19  F   UNL d   1      -1.423   2.567  -1.472  0.00  0.00    -0.164 F 
ATOM     20  F   UNL d   1      -1.734   2.778   0.680  0.00  0.00    -0.164 F 
ENDBRANCH   2  17
BRANCH   5  21
ATOM     21  C   UNL d   1      -1.109  -2.291   0.273  0.00  0.00    -0.002 A 
ATOM     22  C   UNL d   1      -0.454  -3.497   0.577  0.00  0.00     0.016 A 
ATOM     23  C   UNL d   1      -1.157  -4.705   0.632  0.00  0.00     0.024 A 
ATOM     24  C   UNL d   1      -2.525  -4.719   0.380  0.00  0.00     0.034 A 
ATOM     25  C   UNL d   1      -3.193  -3.538   0.072  0.00  0.00     0.024 A 
ATOM     26 CL   UNL d   1      -3.392  -6.202   0.453  0.00  0.00    -0.084 Cl
ATOM     27  C   UNL d   1      -2.488  -2.330   0.018  0.00  0.00     0.016 A 
ENDBRANCH   5  21
TORSDOF 4
