REMARK  5 active torsions:
REMARK  status: ('A' for Active; 'I' for Inactive)
REMARK    1  A    between atoms: O_2  and  C_1 
REMARK    2  A    between atoms: C_4  and  O_2 
REMARK    3  A    between atoms: C_6  and  C_3 
REMARK    4  A    between atoms: C_13  and  C_4 
REMARK    5  A    between atoms: C_14  and  N_8 
ROOT
ATOM      1  C   UNL d   1      -1.299  -1.249   0.212  0.00  0.00     0.113 A 
ATOM      2  C   UNL d   1      -0.192  -2.096   0.062  0.00  0.00     0.017 A 
ATOM      3  C   UNL d   1      -1.107   0.144   0.233  0.00  0.00     0.070 A 
ATOM      4  C   UNL d   1       0.171   0.681   0.059  0.00  0.00     0.050 A 
ATOM      5  C   UNL d   1       1.091  -1.548  -0.090  0.00  0.00     0.039 A 
ATOM      6  C   UNL d   1       1.263  -0.168  -0.093  0.00  0.00     0.036 A 
ATOM      7 CL   UNL d   1      -2.385   1.257   0.578  0.00  0.00    -0.081 Cl
ATOM      8 CL   UNL d   1       2.844   0.494  -0.240  0.00  0.00    -0.084 Cl
ENDROOT
BRANCH   2   9
ATOM      9  C   UNL d   1      -0.327  -3.570   0.088  0.00  0.00     0.102 C 
ATOM     10  N   UNL d   1       0.724  -4.315   0.225  0.00  0.00    -0.365 N 
ATOM     11  HN  UNL d   1       1.640  -3.883   0.348  1.00  0.00     0.165 HD
BRANCH  10  12
ATOM     12  C   UNL d   1       0.607  -5.711   0.204  0.00  0.00     0.032 A 
ATOM     13  C   UNL d   1      -0.046  -6.393  -0.830  0.00  0.00     0.031 A 
ATOM     14  C   UNL d   1      -0.040  -7.790  -0.875  0.00  0.00     0.026 A 
ATOM     15  C   UNL d   1       0.633  -8.512   0.107  0.00  0.00     0.034 A 
ATOM     16  C   UNL d   1       1.289  -7.850   1.141  0.00  0.00     0.026 A 
ATOM     17 CL   UNL d   1       0.675 -10.231   0.027  0.00  0.00    -0.084 Cl
ATOM     18  C   UNL d   1       1.276  -6.452   1.184  0.00  0.00     0.031 A 
ENDBRANCH  10  12
ENDBRANCH   2   9
BRANCH   1  19
ATOM     19  O   UNL d   1      -2.544  -1.818   0.541  0.00  0.00    -0.272 OA
BRANCH  19  20
ATOM     20  C   UNL d   1      -3.618  -1.519  -0.286  0.00  0.00     0.298 C 
ATOM     21  O   UNL d   1      -3.575  -1.019  -1.398  0.00  0.00    -0.259 OA
BRANCH  20  22
ATOM     22  C   UNL d   1      -4.855  -1.813   0.473  0.00  0.00     0.039 A 
ATOM     23  C   UNL d   1      -4.977  -2.987   1.228  0.00  0.00     0.017 A 
ATOM     24  C   UNL d   1      -6.136  -3.219   1.971  0.00  0.00     0.001 A 
ATOM     25  C   UNL d   1      -7.168  -2.281   1.969  0.00  0.00     0.000 A 
ATOM     26  C   UNL d   1      -7.052  -1.112   1.213  0.00  0.00     0.001 A 
ATOM     27  C   UNL d   1      -5.900  -0.880   0.457  0.00  0.00     0.017 A 
ENDBRANCH  20  22
ENDBRANCH  19  20
ENDBRANCH   1  19
TORSDOF 5
