REMARK  6 active torsions:
REMARK  status: ('A' for Active; 'I' for Inactive)
REMARK    1  A    between atoms: C_3  and  C_1 
REMARK    2  A    between atoms: S_4  and  C_2 
REMARK       I    between atoms: N_14  and  C_3 
REMARK    3  A    between atoms: C_5  and  S_4 
REMARK    4  A    between atoms: C_10  and  C_6 
REMARK    5  A    between atoms: C_8  and  O_12 
REMARK    6  A    between atoms: O_12  and  C_10 
ROOT
ATOM      1  C   UNL d   1       6.360  -1.694   0.320  0.00  0.00     0.050 A 
ATOM      2  C   UNL d   1       5.464  -1.150  -0.621  0.00  0.00     0.021 A 
ATOM      3  C   UNL d   1       7.420  -2.510  -0.119  0.00  0.00     0.042 A 
ATOM      4  C   UNL d   1       5.628  -1.474  -1.981  0.00  0.00     0.021 A 
ATOM      5  C   UNL d   1       7.579  -2.788  -1.474  0.00  0.00     0.035 A 
ATOM      6  C   UNL d   1       6.681  -2.285  -2.408  0.00  0.00     0.025 A 
ATOM      7 CL   UNL d   1       8.883  -3.783  -1.994  0.00  0.00    -0.084 Cl
ENDROOT
BRANCH   2   8
ATOM      8  S   UNL d   1       4.094  -0.065  -0.239  0.00  0.00    -0.089 SA
BRANCH   8   9
ATOM      9  C   UNL d   1       4.902   1.506   0.080  0.00  0.00     0.014 A 
ATOM     10  C   UNL d   1       4.600   2.277   1.222  0.00  0.00    -0.017 A 
ATOM     11  C   UNL d   1       5.209   3.539   1.377  0.00  0.00     0.011 A 
ATOM     12  C   UNL d   1       6.101   4.031   0.426  0.00  0.00     0.001 A 
ATOM     13  C   UNL d   1       6.397   3.272  -0.699  0.00  0.00     0.001 A 
ATOM     14  C   UNL d   1       5.797   2.024  -0.873  0.00  0.00     0.019 A 
BRANCH  10  15
ATOM     15  C   UNL d   1       3.629   1.825   2.290  0.00  0.00     0.218 C 
BRANCH  15  16
ATOM     16  O   UNL d   1       2.283   1.780   1.797  0.00  0.00    -0.317 OA
BRANCH  16  17
ATOM     17  C   UNL d   1       1.589   2.944   1.840  0.00  0.00     0.255 C 
ATOM     18  O   UNL d   1       2.009   4.016   2.252  0.00  0.00    -0.266 OA
ATOM     19  C   UNL d   1       0.191   2.734   1.339  0.00  0.00     0.126 C 
ENDBRANCH  16  17
ENDBRANCH  15  16
ENDBRANCH  10  15
ENDBRANCH   8   9
ENDBRANCH   2   8
BRANCH   1  20
ATOM     20  C   UNL d   1       6.169  -1.534   1.789  0.00  0.00     0.252 C 
ATOM     21  O   UNL d   1       5.051  -1.594   2.289  0.00  0.00    -0.268 OA
ATOM     22  N   UNL d   1       7.314  -1.381   2.544  0.00  0.00    -0.361 N 
ATOM     23  C   UNL d   1       7.242  -1.366   3.986  0.00  0.00     0.149 C 
ATOM     24  H   UNL d   1       8.224  -1.338   2.108  0.00  0.00     0.162 HD
ENDBRANCH   1  20
TORSDOF 6
