REMARK  12 active torsions:
REMARK  status: ('A' for Active; 'I' for Inactive)
REMARK       I    between atoms: N_11  and  C1_1 
REMARK    1  A    between atoms: C8_4  and  C1_1 
REMARK    2  A    between atoms: C2_2  and  C7_3 
REMARK       I    between atoms: N_12  and  C2_2 
REMARK    3  A    between atoms: CA_13  and  N_11 
REMARK    4  A    between atoms: CA_14  and  N_12 
REMARK    5  A    between atoms: C_15  and  CA_13 
REMARK    6  A    between atoms: CB_18  and  CA_13 
REMARK    7  A    between atoms: C_16  and  CA_14 
REMARK    8  A    between atoms: CB_17  and  CA_14 
REMARK    9  A    between atoms: OXT_22  and  C_15 
REMARK   10  A    between atoms: OXT_21  and  C_16 
REMARK   11  A    between atoms: CG_24  and  CB_17 
REMARK   12  A    between atoms: CG_23  and  CB_18 
ROOT
ATOM      1  C7  <1> d   1      -1.432  -3.626  -0.207  0.00  0.00     0.032 A 
ATOM      2  C8  <1> d   1       0.170  -1.326   0.109  0.00  0.00     0.032 A 
ATOM      3  C11 <1> d   1      -1.098  -1.225  -0.470  0.00  0.00     0.018 A 
ATOM      4  C12 <1> d   1       0.637  -2.575   0.534  0.00  0.00     0.018 A 
ATOM      5  C13 <1> d   1      -1.894  -2.366  -0.620  0.00  0.00     0.018 A 
ATOM      6  C14 <1> d   1      -0.163  -3.723   0.381  0.00  0.00     0.018 A 
ENDROOT
BRANCH   1   7
ATOM      7  C2  <1> d   1      -2.293  -4.809  -0.516  0.00  0.00     0.252 C 
ATOM      8  N   PHE d   1      -2.082  -5.984   0.170  0.00  0.00    -0.342 N 
ATOM      9  H   PHE d   1      -1.369  -6.038   0.885  0.00  0.00     0.163 HD
ATOM     10  O2  <1> d   1      -3.129  -4.743  -1.411  0.00  0.00    -0.268 OA
BRANCH   8  11
ATOM     11  CA  PHE d   1      -2.955  -7.172  -0.001  0.00  0.00     0.186 C 
BRANCH  11  12
ATOM     12  C   PHE d   1      -2.322  -8.186  -0.970  0.00  0.00     0.163 C 
ATOM     13  O   PHE d   1      -2.447  -9.397  -0.893  0.00  0.00    -0.648 OA
BRANCH  12  14
ATOM     14  OXT PHE d   1      -1.677  -7.603  -2.013  0.00  0.00    -0.775 OA
ATOM     15  HXT PHE d   1      -1.830  -6.634  -2.019  0.00  0.00     0.167 HD
ENDBRANCH  12  14
ENDBRANCH  11  12
BRANCH  11  16
ATOM     16  CB  PHE d   1      -3.274  -7.856   1.339  0.00  0.00     0.074 C 
BRANCH  16  17
ATOM     17  CG  PHE d   1      -4.194  -7.023   2.204  0.00  0.00    -0.056 A 
ATOM     18  CD1 PHE d   1      -5.583  -7.098   2.022  0.00  0.00     0.007 A 
ATOM     19  CE1 PHE d   1      -6.439  -6.301   2.783  0.00  0.00     0.001 A 
ATOM     20  CZ  PHE d   1      -5.915  -5.422   3.728  0.00  0.00     0.000 A 
ATOM     21  CE2 PHE d   1      -4.536  -5.350   3.923  0.00  0.00     0.001 A 
ATOM     22  CD2 PHE d   1      -3.678  -6.149   3.166  0.00  0.00     0.007 A 
ENDBRANCH  16  17
ENDBRANCH  11  16
ENDBRANCH   8  11
ENDBRANCH   1   7
BRANCH   2  23
ATOM     23  C1  <1> d   1       1.049  -0.128   0.206  0.00  0.00     0.252 C 
ATOM     24  N   PHE d   1       0.422   1.067   0.454  0.00  0.00    -0.342 N 
ATOM     25  H   PHE d   1      -0.572   1.078   0.644  0.00  0.00     0.163 HD
ATOM     26  O1  <1> d   1       2.258  -0.194   0.012  0.00  0.00    -0.268 OA
BRANCH  24  27
ATOM     27  CA  PHE d   1       1.141   2.342   0.610  0.00  0.00     0.186 C 
BRANCH  27  28
ATOM     28  C   PHE d   1       1.400   2.963  -0.770  0.00  0.00     0.163 C 
ATOM     29  O   PHE d   1       1.088   4.100  -1.094  0.00  0.00    -0.648 OA
BRANCH  28  30
ATOM     30  OXT PHE d   1       2.086   2.141  -1.605  0.00  0.00    -0.775 OA
ATOM     31  HXT PHE d   1       2.334   1.289  -1.173  0.00  0.00     0.167 HD
ENDBRANCH  28  30
ENDBRANCH  27  28
BRANCH  27  32
ATOM     32  CB  PHE d   1       0.356   3.317   1.504  0.00  0.00     0.074 C 
BRANCH  32  33
ATOM     33  CG  PHE d   1       0.125   2.776   2.900  0.00  0.00    -0.056 A 
ATOM     34  CD1 PHE d   1       1.209   2.460   3.732  0.00  0.00     0.007 A 
ATOM     35  CE1 PHE d   1       0.996   1.937   5.008  0.00  0.00     0.001 A 
ATOM     36  CZ  PHE d   1      -0.302   1.736   5.471  0.00  0.00     0.000 A 
ATOM     37  CE2 PHE d   1      -1.388   2.061   4.660  0.00  0.00     0.001 A 
ATOM     38  CD2 PHE d   1      -1.177   2.581   3.381  0.00  0.00     0.007 A 
ENDBRANCH  32  33
ENDBRANCH  27  32
ENDBRANCH  24  27
ENDBRANCH   2  23
TORSDOF 12
