REMARK  1 active torsions:
REMARK  status: ('A' for Active; 'I' for Inactive)
REMARK    1  A    between atoms: N_3  and  C_1 
REMARK       I    between atoms: C_2  and  N_3 
REMARK       I    between atoms: N_10  and  C_2 
ROOT
ATOM      1  C   UNL d   1       1.456  -0.309   0.006  0.00  0.00     0.047 A 
ATOM      2  C   UNL d   1       1.053   1.047  -0.024  0.00  0.00    -0.034 A 
ATOM      3  C   UNL d   1       0.447  -1.312   0.013  0.00  0.00    -0.034 A 
ATOM      4  C   UNL d   1      -0.917  -0.946   0.027  0.00  0.00     0.015 A 
ATOM      5  C   UNL d   1      -0.324   1.367   0.020  0.00  0.00     0.015 A 
ATOM      6  C   UNL d   1      -1.312   0.387   0.036  0.00  0.00    -0.061 A 
ATOM      7  C   UNL d   1       1.978   2.227  -0.149  0.00  0.00     0.050 C 
ATOM      8  C   UNL d   1       0.697  -2.801   0.057  0.00  0.00     0.050 C 
ATOM      9  C   UNL d   1      -2.760   0.773   0.044  0.00  0.00     0.048 C 
ENDROOT
BRANCH   1  10
ATOM     10  N   UNL d   1       2.801  -0.751  -0.031  0.00  0.00    -0.313 N 
ATOM     11  C   UNL d   1       3.961  -0.141   0.357  0.00  0.00     0.296 C 
ATOM     12  O   UNL d   1       4.139   0.943   0.889  0.00  0.00    -0.254 OA
ATOM     13  N   UNL d   1       5.052  -0.924   0.095  0.00  0.00    -0.254 NA
ATOM     14  H   UNL d   1       4.978  -1.909   0.298  0.00  0.00     0.128 HD
ATOM     15  H   UNL d   1       5.908  -0.504   0.441  0.00  0.00     0.128 HD
ATOM     16  H   UNL d   1       2.946  -1.705  -0.308  0.00  0.00     0.170 HD
ENDBRANCH   1  10
TORSDOF 1
