REMARK  2 active torsions:
REMARK  status: ('A' for Active; 'I' for Inactive)
REMARK       I    between atoms: C_7  and  N_1 
REMARK    1  A    between atoms: C_8  and  C_7 
REMARK    2  A    between atoms: C_14  and  N_9 
ROOT
ATOM      1  N   UNL d   1      -0.594  -0.998   0.134  0.00  0.00    -0.235 N 
ATOM      2  S   UNL d   1      -0.429   1.608   0.497  0.00  0.00    -0.060 SA
ATOM      3  C   UNL d   1       0.968   0.626   0.142  0.00  0.00     0.162 C 
ATOM      4  C   UNL d   1      -1.521   0.164   0.136  0.00  0.00     0.105 C 
ATOM      5  N   UNL d   1       0.754  -0.641   0.013  0.00  0.00    -0.273 N 
ATOM      6  HN  UNL d   1       1.498  -1.317  -0.162  1.00  0.00     0.189 HD
ATOM      7  C   UNL d   1      -0.825  -2.384   0.073  0.00  0.00     0.274 C 
ATOM      8  N   UNL d   1       2.125   1.333   0.016  0.00  0.00    -0.336 N 
ATOM      9  O   UNL d   1       0.054  -3.209  -0.192  0.00  0.00    -0.266 OA
ATOM     10  C   UNL d   1      -2.597   0.166   1.217  0.00  0.00     0.053 C 
ATOM     11  C   UNL d   1      -2.077   0.472  -1.262  0.00  0.00     0.053 C 
ATOM     12  H   UNL d   1       2.038   2.339   0.007  0.00  0.00     0.168 HD
ENDROOT
BRANCH   7  13
ATOM     13  C   UNL d   1      -2.148  -2.970   0.418  0.00  0.00     0.039 A 
ATOM     14  C   UNL d   1      -2.271  -3.887   1.489  0.00  0.00    -0.046 A 
ATOM     15  C   UNL d   1      -1.093  -4.423   2.263  0.00  0.00     0.049 C 
ATOM     16  C   UNL d   1      -3.535  -4.439   1.772  0.00  0.00     0.007 A 
ATOM     17  C   UNL d   1      -4.651  -4.096   1.012  0.00  0.00     0.001 A 
ATOM     18  C   UNL d   1      -4.507  -3.255  -0.086  0.00  0.00     0.001 A 
ATOM     19  C   UNL d   1      -3.251  -2.732  -0.402  0.00  0.00     0.017 A 
ENDBRANCH   7  13
BRANCH   8  20
ATOM     20  C   UNL d   1       3.435   0.850   0.132  0.00  0.00     0.034 A 
ATOM     21  C   UNL d   1       4.465   1.503  -0.559  0.00  0.00     0.029 A 
ATOM     22  C   UNL d   1       5.781   1.034  -0.500  0.00  0.00     0.002 A 
ATOM     23  C   UNL d   1       6.084  -0.090   0.261  0.00  0.00     0.000 A 
ATOM     24  C   UNL d   1       5.071  -0.756   0.945  0.00  0.00     0.002 A 
ATOM     25  C   UNL d   1       3.753  -0.301   0.863  0.00  0.00     0.029 A 
ENDBRANCH   8  20
TORSDOF 2
