REMARK  6 active torsions:
REMARK  status: ('A' for Active; 'I' for Inactive)
REMARK    1  A    between atoms: C_9  and  C_1 
REMARK    2  A    between atoms: N_6  and  C_2 
REMARK    3  A    between atoms: C_12  and  C_4 
REMARK       I    between atoms: C_7  and  N_6 
REMARK    4  A    between atoms: C_10  and  C_7 
REMARK    5  A    between atoms: C_8  and  O_11 
REMARK    6  A    between atoms: O_11  and  C_20 
ROOT
ATOM      1  N   UNL d   1       2.390   1.590   0.069  0.00  0.00    -0.322 N 
ATOM      2  C   UNL d   1       2.448   2.957   0.247  0.00  0.00     0.256 C 
ATOM      3  O   UNL d   1       1.487   3.709   0.375  0.00  0.00    -0.267 OA
ATOM      4  H   UNL d   1       3.260   1.075   0.071  0.00  0.00     0.169 HD
ENDROOT
BRANCH   1   5
ATOM      5  C   UNL d   1       1.258   0.780  -0.021  0.00  0.00     0.057 A 
ATOM      6  C   UNL d   1      -0.061   1.112  -0.284  0.00  0.00     0.077 A 
ATOM      7  S   UNL d   1      -1.091  -0.263  -0.164  0.00  0.00    -0.084 SA
ATOM      8  C   UNL d   1       0.214  -1.340   0.066  0.00  0.00     0.018 A 
ATOM      9  C   UNL d   1       1.404  -0.642   0.128  0.00  0.00     0.051 A 
BRANCH   6  10
ATOM     10  C   UNL d   1      -0.700   2.344  -0.718  0.00  0.00     0.164 C 
ATOM     11  O   UNL d   1      -1.767   2.758  -0.257  0.00  0.00    -0.292 OA
ATOM     12  C   UNL d   1      -0.118   3.008  -1.948  0.00  0.00     0.097 C 
ENDBRANCH   6  10
BRANCH   8  13
ATOM     13  C   UNL d   1      -0.002  -2.790   0.135  0.00  0.00    -0.019 A 
ATOM     14  C   UNL d   1       0.865  -3.660  -0.548  0.00  0.00     0.013 A 
ATOM     15  C   UNL d   1       0.671  -5.043  -0.509  0.00  0.00     0.001 A 
ATOM     16  C   UNL d   1      -0.388  -5.578   0.219  0.00  0.00     0.000 A 
ATOM     17  C   UNL d   1      -1.250  -4.732   0.913  0.00  0.00     0.001 A 
ATOM     18  C   UNL d   1      -1.057  -3.348   0.873  0.00  0.00     0.013 A 
ENDBRANCH   8  13
ENDBRANCH   1   5
BRANCH   2  19
ATOM     19  C   UNL d   1       3.828   3.536   0.234  0.00  0.00     0.032 A 
ATOM     20  C   UNL d   1       4.001   4.849  -0.223  0.00  0.00     0.020 A 
ATOM     21  C   UNL d   1       5.285   5.403  -0.350  0.00  0.00     0.038 A 
ATOM     22  C   UNL d   1       6.408   4.656   0.004  0.00  0.00     0.078 A 
ATOM     23  C   UNL d   1       6.231   3.359   0.497  0.00  0.00     0.038 A 
ATOM     24  C   UNL d   1       4.955   2.804   0.625  0.00  0.00     0.020 A 
BRANCH  22  25
ATOM     25  O   UNL d   1       7.712   5.049  -0.044  0.00  0.00    -0.255 OA
BRANCH  25  26
ATOM     26  C   UNL d   1       8.030   6.313  -0.600  0.00  0.00     0.530 C 
ATOM     27  F   UNL d   1       7.335   7.308  -0.012  0.00  0.00    -0.144 F 
ATOM     28  F   UNL d   1       9.345   6.549  -0.398  0.00  0.00    -0.144 F 
ATOM     29  F   UNL d   1       7.798   6.321  -1.929  0.00  0.00    -0.144 F 
ENDBRANCH  25  26
ENDBRANCH  22  25
ENDBRANCH   2  19
TORSDOF 6
