REMARK  3 active torsions:
REMARK  status: ('A' for Active; 'I' for Inactive)
REMARK       I    between atoms: N_3  and  C_1 
REMARK       I    between atoms: N_4  and  C_1 
REMARK    1  A    between atoms: C_2  and  C_6 
REMARK    2  A    between atoms: C_7  and  N_4 
REMARK    3  A    between atoms: C_6  and  N_5 
ROOT
ATOM      1  C   UNL d   1       0.709  -0.426   0.106  0.00  0.00     0.322 C 
ATOM      2  N   UNL d   1       0.209   0.004  -1.127  0.00  0.00    -0.332 N 
ATOM      3  N   UNL d   1       1.569  -1.502   0.043  0.00  0.00    -0.309 N 
ATOM      4  N   UNL d   1      -2.129   0.398  -3.156  0.00  0.00     0.094 N 
ATOM      5  O   UNL d   1       0.388   0.140   1.147  0.00  0.00    -0.247 OA
ATOM      6  C   UNL d   1      -0.741   1.126  -1.114  0.00  0.00     0.157 C 
ATOM      7  C   UNL d   1      -2.101   0.794  -1.744  0.00  0.00     0.292 C 
ATOM      8  C   UNL d   1      -0.102  -1.227  -3.296  0.00  0.00     0.050 C 
ATOM      9  C   UNL d   1       0.771  -0.322  -2.428  0.00  0.00     0.129 C 
ATOM     10  C   UNL d   1      -1.610  -0.953  -3.362  0.00  0.00     0.274 C 
ATOM     11  H   UNL d   1       1.554  -2.039  -0.807  0.00  0.00     0.170 HD
ENDROOT
BRANCH   3  12
ATOM     12  C   UNL d   1       2.400  -1.997   1.077  0.00  0.00     0.037 A 
ATOM     13  C   UNL d   1       2.492  -1.415   2.344  0.00  0.00     0.036 A 
ATOM     14  C   UNL d   1       3.406  -1.886   3.297  0.00  0.00    -0.059 A 
ATOM     15  C   UNL d   1       3.556  -1.186   4.616  0.00  0.00     0.048 C 
ATOM     16  C   UNL d   1       4.229  -2.969   2.977  0.00  0.00     0.013 A 
ATOM     17  C   UNL d   1       4.141  -3.586   1.723  0.00  0.00    -0.059 A 
ATOM     18  C   UNL d   1       3.222  -3.094   0.781  0.00  0.00     0.036 A 
ATOM     19  C   UNL d   1       5.061  -4.723   1.396  0.00  0.00     0.048 C 
ENDBRANCH   3  12
BRANCH   4  20
ATOM     20  C   UNL d   1      -1.665   1.393  -4.125  0.00  0.00     0.316 C 
BRANCH  20  21
ATOM     21  C   UNL d   1      -2.432   2.699  -4.105  0.00  0.00     0.030 A 
ATOM     22  C   UNL d   1      -3.792   2.804  -4.429  0.00  0.00     0.045 A 
ATOM     23 CL   UNL d   1      -4.726   1.435  -4.923  0.00  0.00    -0.084 Cl
ATOM     24  C   UNL d   1      -4.448   4.045  -4.386  0.00  0.00     0.024 A 
ATOM     25  C   UNL d   1      -3.757   5.202  -4.034  0.00  0.00     0.005 A 
ATOM     26  C   UNL d   1      -2.401   5.120  -3.729  0.00  0.00     0.043 A 
ATOM     27  C   UNL d   1      -1.757   3.882  -3.766  0.00  0.00     0.126 A 
ATOM     28  F   UNL d   1      -0.450   3.846  -3.471  0.00  0.00    -0.205 F 
ENDBRANCH  20  21
ENDBRANCH   4  20
TORSDOF 3
