REMARK  5 active torsions:
REMARK  status: ('A' for Active; 'I' for Inactive)
REMARK    1  A    between atoms: C_5  and  C_1 
REMARK    2  A    between atoms: N_10  and  C_1 
REMARK    3  A    between atoms: O_2  and  C_5 
REMARK    4  A    between atoms: C_3  and  O_2 
REMARK    5  A    between atoms: O_13  and  N_7 
ROOT
ATOM      1  C   UNL d   1       2.435   0.215   0.125  0.00  0.00     0.193 C 
ATOM      2  C   UNL d   1       3.000  -1.183   0.363  0.00  0.00     0.048 C 
ENDROOT
BRANCH   1   3
ATOM      3  O   UNL d   1       2.705   0.990   1.294  0.00  0.00    -0.337 OA
BRANCH   3   4
ATOM      4  C   UNL d   1       2.225   2.276   1.291  0.00  0.00     0.091 A 
ATOM      5  C   UNL d   1       1.763   2.804   2.507  0.00  0.00     0.069 A 
ATOM      6  C   UNL d   1       1.234   4.094   2.569  0.00  0.00     0.050 A 
ATOM      7 CL   UNL d   1       1.794   1.865   3.960  0.00  0.00    -0.081 Cl
ATOM      8  C   UNL d   1       1.178   4.867   1.413  0.00  0.00     0.035 A 
ATOM      9  C   UNL d   1       1.661   4.369   0.205  0.00  0.00     0.026 A 
ATOM     10 CL   UNL d   1       0.508   6.450   1.472  0.00  0.00    -0.084 Cl
ATOM     11  C   UNL d   1       2.190   3.079   0.145  0.00  0.00     0.040 A 
ENDBRANCH   3   4
ENDBRANCH   1   3
BRANCH   1  12
ATOM     12  C   UNL d   1       0.927   0.090  -0.200  0.00  0.00     0.124 C 
ATOM     13  N   UNL d   1       0.574   0.162  -1.452  0.00  0.00    -0.255 N 
ATOM     14  HN  UNL d   1       1.220   0.290  -2.231  1.00  0.00     0.195 HD
BRANCH  13  15
ATOM     15  O   UNL d   1      -0.819   0.037  -1.581  0.00  0.00    -0.288 OA
ATOM     16  H   UNL d   1      -0.958   0.244  -2.524  0.00  0.00     0.244 HD
ENDBRANCH  13  15
BRANCH  12  17
ATOM     17  N   UNL d   1       0.039  -0.094   0.832  0.00  0.00    -0.385 N 
ATOM     18  H   UNL d   1       0.385  -0.456   1.712  0.00  0.00     0.157 HD
ATOM     19  H   UNL d   1      -0.874  -0.418   0.531  0.00  0.00     0.157 HD
ENDBRANCH  12  17
ENDBRANCH   1  12
TORSDOF 5
