REMARK  4 active torsions:
REMARK  status: ('A' for Active; 'I' for Inactive)
REMARK    1  A    between atoms: C_2  and  S_1 
REMARK    2  A    between atoms: N_5  and  S_1 
REMARK    3  A    between atoms: C_6  and  C_4 
REMARK       I    between atoms: N_9  and  C_6 
REMARK    4  A    between atoms: C_16  and  N_9 
ROOT
ATOM      1  C   UNL d   1       0.434   0.415   1.801  0.00  0.00     0.185 A 
ATOM      2  O   UNL d   1       0.638   1.735   2.185  0.00  0.00    -0.292 OA
ATOM      3  C   UNL d   1      -0.093   1.958   3.323  0.00  0.00     0.144 A 
ATOM      4  C   UNL d   1      -0.401  -0.179   2.740  0.00  0.00     0.054 A 
ATOM      5  C   UNL d   1      -0.738   0.796   3.696  0.00  0.00     0.046 A 
ENDROOT
BRANCH   3   6
ATOM      6  C   UNL d   1      -0.158   3.268   3.946  0.00  0.00     0.280 C 
ATOM      7  N   UNL d   1       0.921   4.101   3.687  0.00  0.00    -0.321 N 
ATOM      8  H   UNL d   1       1.725   3.664   3.252  0.00  0.00     0.169 HD
ATOM      9  O   UNL d   1      -1.083   3.555   4.704  0.00  0.00    -0.265 OA
BRANCH   7  10
ATOM     10  C   UNL d   1       1.073   5.407   4.208  0.00  0.00     0.035 A 
ATOM     11  C   UNL d   1       2.368   5.922   4.347  0.00  0.00     0.032 A 
ATOM     12  C   UNL d   1       2.566   7.190   4.908  0.00  0.00     0.044 A 
ATOM     13  C   UNL d   1       1.472   7.955   5.291  0.00  0.00     0.116 A 
ATOM     14  C   UNL d   1       0.180   7.477   5.124  0.00  0.00     0.044 A 
ATOM     15  F   UNL d   1       1.663   9.167   5.828  0.00  0.00    -0.206 F 
ATOM     16  C   UNL d   1      -0.017   6.202   4.586  0.00  0.00     0.032 A 
ENDBRANCH   7  10
ENDBRANCH   3   6
BRANCH   1  17
ATOM     17  S   UNL d   1       1.169  -0.312   0.323  0.00  0.00     0.266 S 
ATOM     18  O   UNL d   1       1.203  -1.729   0.611  0.00  0.00    -0.204 OA
ATOM     19  O   UNL d   1       2.379   0.445   0.083  0.00  0.00    -0.204 OA
BRANCH  17  20
ATOM     20  N   UNL d   1       0.084  -0.056  -0.963  0.00  0.00    -0.201 NA
ATOM     21  C   UNL d   1       0.063   1.321  -1.549  0.00  0.00     0.134 C 
ATOM     22  C   UNL d   1       1.181   1.513  -2.588  0.00  0.00     0.183 C 
ATOM     23  O   UNL d   1       1.145   0.497  -3.603  0.00  0.00    -0.389 OA
ATOM     24  C   UNL d   1       1.276  -0.809  -3.021  0.00  0.00     0.183 C 
ATOM     25  C   UNL d   1       0.119  -1.079  -2.057  0.00  0.00     0.134 C 
ENDBRANCH  17  20
ENDBRANCH   1  17
TORSDOF 4
