REMARK  2 active torsions:
REMARK  status: ('A' for Active; 'I' for Inactive)
REMARK    1  A    between atoms: N_9  and  N_5 
REMARK    2  A    between atoms: C_8  and  N_9 
ROOT
ATOM      1  C   UNL d   1      -1.093   0.912   0.023  0.00  0.00     0.129 A 
ATOM      2  C   UNL d   1      -1.825  -0.435   0.021  0.00  0.00     0.275 A 
ATOM      3  N   UNL d   1      -0.832  -1.393   0.023  0.00  0.00    -0.321 N 
ATOM      4  C   UNL d   1       0.328   0.592   0.006  0.00  0.00     0.024 A 
ATOM      5  N   UNL d   1      -1.583   2.109   0.054  0.00  0.00    -0.293 N 
ATOM      6  HN  UNL d   1      -0.983   2.934   0.051  1.00  0.00     0.187 HD
ATOM      7  C   UNL d   1       0.427  -0.797   0.019  0.00  0.00     0.047 A 
ATOM      8  O   UNL d   1      -3.028  -0.576   0.024  0.00  0.00    -0.266 OA
ATOM      9  C   UNL d   1       1.432   1.419  -0.002  0.00  0.00     0.016 A 
ATOM     10  C   UNL d   1       1.655  -1.424   0.034  0.00  0.00     0.030 A 
ATOM     11  C   UNL d   1       2.684   0.800   0.011  0.00  0.00     0.001 A 
ATOM     12  C   UNL d   1       2.793  -0.607   0.032  0.00  0.00     0.002 A 
ATOM     13  H   UNL d   1      -1.019  -2.385   0.030  0.00  0.00     0.169 HD
ENDROOT
BRANCH   5  14
ATOM     14  N   UNL d   1      -2.948   2.212   0.090  0.00  0.00    -0.276 N 
ATOM     15  H   UNL d   1      -3.530   1.371   0.089  0.00  0.00     0.189 HD
BRANCH  14  16
ATOM     16  C   UNL d   1      -3.557   3.436   0.154  0.00  0.00     0.184 C 
ATOM     17  S   UNL d   1      -5.202   3.622   0.224  0.00  0.00    -0.040 SA
ATOM     18  N   UNL d   1      -2.716   4.499   0.159  0.00  0.00    -0.375 N 
ATOM     19  H   UNL d   1      -1.724   4.297   0.159  0.00  0.00     0.158 HD
ATOM     20  H   UNL d   1      -3.057   5.446   0.233  0.00  0.00     0.158 HD
ENDBRANCH  14  16
ENDBRANCH   5  14
TORSDOF 2
