REMARK  6 active torsions:
REMARK  status: ('A' for Active; 'I' for Inactive)
REMARK    1  A    between atoms: N_4  and  C_1 
REMARK    2  A    between atoms: N_5  and  C_1 
REMARK    3  A    between atoms: C_2  and  N_3 
REMARK    4  A    between atoms: N_6  and  C_2 
REMARK    5  A    between atoms: C_7  and  N_5 
REMARK    6  A    between atoms: C_8  and  N_6 
ROOT
ATOM      1  N   UNL d   1      -0.056  -2.926  -3.234  0.00  0.00    -0.355 N 
ATOM      2  N   UNL d   1       0.657  -0.996  -1.182  0.00  0.00    -0.355 N 
ATOM      3  C   UNL d   1      -0.496  -0.766  -2.062  0.00  0.00     0.145 C 
ATOM      4  C   UNL d   1       0.974  -2.427  -1.008  0.00  0.00     0.145 C 
ATOM      5  C   UNL d   1      -0.343  -1.491  -3.410  0.00  0.00     0.145 C 
ATOM      6  C   UNL d   1       1.113  -3.152  -2.357  0.00  0.00     0.145 C 
ENDROOT
BRANCH   1   7
ATOM      7  C   UNL d   1      -1.012  -3.893  -3.463  0.00  0.00     0.170 C 
ATOM      8  S   UNL d   1      -1.216  -5.295  -2.562  0.00  0.00    -0.041 SA
BRANCH   7   9
ATOM      9  N   UNL d   1      -1.902  -3.727  -4.477  0.00  0.00    -0.362 N 
ATOM     10  H   UNL d   1      -2.575  -4.484  -4.492  0.00  0.00     0.162 HD
BRANCH   9  11
ATOM     11  C   UNL d   1      -1.719  -3.093  -5.785  0.00  0.00     0.092 C 
ATOM     12  C   UNL d   1      -1.376  -4.085  -6.939  0.00  0.00     0.031 C 
ATOM     13  C   UNL d   1      -2.430  -5.170  -7.015  0.00  0.00    -0.024 C 
ATOM     14  C   UNL d   1      -1.820  -3.256  -8.154  0.00  0.00     0.019 C 
ATOM     15  C   UNL d   1      -3.565  -4.589  -7.431  0.00  0.00    -0.026 C 
ATOM     16  C   UNL d   1      -3.264  -3.125  -7.659  0.00  0.00     0.010 C 
ATOM     17  C   UNL d   1      -3.051  -2.453  -6.286  0.00  0.00     0.034 C 
ENDBRANCH   9  11
ENDBRANCH   7   9
ENDBRANCH   1   7
BRANCH   2  18
ATOM     18  C   UNL d   1       0.904  -0.139  -0.097  0.00  0.00     0.170 C 
ATOM     19  S   UNL d   1      -0.266   0.714   0.741  0.00  0.00    -0.041 SA
BRANCH  18  20
ATOM     20  N   UNL d   1       2.255  -0.043   0.142  0.00  0.00    -0.362 N 
ATOM     21  H   UNL d   1       2.828  -0.617  -0.459  0.00  0.00     0.162 HD
BRANCH  20  22
ATOM     22  C   UNL d   1       2.944   0.568   1.279  0.00  0.00     0.092 C 
ATOM     23  C   UNL d   1       3.028  -0.379   2.517  0.00  0.00     0.031 C 
ATOM     24  C   UNL d   1       3.534  -1.727   2.045  0.00  0.00    -0.024 C 
ATOM     25  C   UNL d   1       4.312   0.110   3.196  0.00  0.00     0.019 C 
ATOM     26  C   UNL d   1       4.809  -1.553   1.661  0.00  0.00    -0.026 C 
ATOM     27  C   UNL d   1       5.173  -0.111   1.949  0.00  0.00     0.010 C 
ATOM     28  C   UNL d   1       4.450   0.809   0.945  0.00  0.00     0.034 C 
ENDBRANCH  20  22
ENDBRANCH  18  20
ENDBRANCH   2  18
TORSDOF 6
