REMARK  5 active torsions:
REMARK  status: ('A' for Active; 'I' for Inactive)
REMARK    1  A    between atoms: C_9  and  C_1 
REMARK    2  A    between atoms: C_12  and  C_4 
REMARK    3  A    between atoms: N_6  and  C_5 
REMARK       I    between atoms: N_20  and  C_9 
REMARK    4  A    between atoms: C_14  and  C_22 
REMARK    5  A    between atoms: N_16  and  N_20 
ROOT
ATOM      1  C   UNL d   1       1.065  -2.390  -0.083  0.00  0.00     0.313 C 
ATOM      2  N   UNL d   1       0.125  -3.415   0.053  0.00  0.00    -0.263 N 
ATOM      3  O   UNL d   1       2.278  -2.599  -0.136  0.00  0.00    -0.262 OA
ATOM      4  H   UNL d   1      -0.865  -3.189   0.086  0.00  0.00     0.190 HD
ENDROOT
BRANCH   1   5
ATOM      5  C   UNL d   1       0.489  -1.066  -0.176  0.00  0.00     0.241 A 
ATOM      6  N   UNL d   1      -0.787  -0.731  -0.134  0.00  0.00    -0.314 N 
ATOM      7  C   UNL d   1      -0.729   0.635  -0.345  0.00  0.00     0.145 A 
ATOM      8  HN  UNL d   1      -1.603  -1.324   0.014  1.00  0.00     0.170 HD
ATOM      9  N   UNL d   1       0.513   1.121  -0.487  0.00  0.00    -0.241 N 
ATOM     10  O   UNL d   1       1.323  -0.005  -0.371  0.00  0.00    -0.212 OA
ATOM     11  HN  UNL d   1       0.797   2.088  -0.643  1.00  0.00     0.196 HD
BRANCH   7  12
ATOM     12  C   UNL d   1      -1.941   1.510  -0.439  0.00  0.00     0.050 A 
ATOM     13  S   UNL d   1      -3.538   0.951  -0.212  0.00  0.00    -0.098 SA
ATOM     14  C   UNL d   1      -4.192   2.506  -0.501  0.00  0.00     0.050 A 
ATOM     15  C   UNL d   1      -3.213   3.436  -0.774  0.00  0.00     0.009 A 
ATOM     16  C   UNL d   1      -1.907   2.860  -0.731  0.00  0.00     0.023 A 
ENDBRANCH   7  12
ENDBRANCH   1   5
BRANCH   2  17
ATOM     17  N   UNL d   1       0.560  -4.712   0.065  0.00  0.00    -0.308 N 
ATOM     18  C   UNL d   1      -0.330  -5.649   0.140  0.00  0.00     0.126 C 
ATOM     19  HN  UNL d   1       1.555  -4.934   0.016  1.00  0.00     0.186 HD
BRANCH  18  20
ATOM     20  C   UNL d   1       0.100  -7.029   0.131  0.00  0.00     0.024 A 
ATOM     21  S   UNL d   1      -1.055  -8.289   0.227  0.00  0.00    -0.065 SA
ATOM     22  C   UNL d   1       0.152  -9.485   0.130  0.00  0.00     0.144 A 
ATOM     23  C   UNL d   1       1.421  -8.956   0.042  0.00  0.00     0.045 A 
ATOM     24  C   UNL d   1       1.387  -7.529   0.044  0.00  0.00     0.023 A 
BRANCH  22  25
ATOM     25  N   UNL d   1      -0.192 -10.885   0.141  0.00  0.00    -0.108 N 
ATOM     26  O   UNL d   1       0.751 -11.683   0.050  0.00  0.00    -0.531 OA
ATOM     27  O   UNL d   1      -1.386 -11.194   0.237  0.00  0.00    -0.531 OA
ENDBRANCH  22  25
ENDBRANCH  18  20
ENDBRANCH   2  17
TORSDOF 5
