REMARK  5 active torsions:
REMARK  status: ('A' for Active; 'I' for Inactive)
REMARK    1  A    between atoms: N_2  and  C_1 
REMARK       I    between atoms: C_3  and  N_2 
REMARK    2  A    between atoms: C_4  and  C_3 
REMARK    3  A    between atoms: C_8  and  C_7 
REMARK    4  A    between atoms: O_18  and  C_8 
REMARK    5  A    between atoms: C_19  and  O_18 
ROOT
ATOM      1  C   UNL d   1      -0.221   0.553   0.351  0.00  0.00     0.079 A 
ATOM      2  C   UNL d   1      -1.343  -0.271   0.553  0.00  0.00     0.063 A 
ATOM      3  C   UNL d   1       1.005  -0.080   0.049  0.00  0.00     0.063 A 
ATOM      4  C   UNL d   1      -0.039  -2.254  -0.013  0.00  0.00     0.043 A 
ATOM      5  C   UNL d   1       1.100  -1.461  -0.135  0.00  0.00     0.044 A 
ATOM      6  C   UNL d   1      -1.251  -1.659   0.350  0.00  0.00     0.044 A 
ATOM      7 CL   UNL d   1      -2.834   0.276   1.236  0.00  0.00    -0.082 Cl
ATOM      8 CL   UNL d   1       2.459   0.848  -0.145  0.00  0.00    -0.082 Cl
ENDROOT
BRANCH   1   9
ATOM      9  N   UNL d   1      -0.179   1.970   0.458  0.00  0.00    -0.317 N 
ATOM     10  C   UNL d   1      -1.173   2.894   0.126  0.00  0.00     0.330 C 
ATOM     11  O   UNL d   1      -2.281   2.614  -0.323  0.00  0.00    -0.263 OA
ATOM     12  H   UNL d   1       0.764   2.364   0.461  0.00  0.00     0.169 HD
BRANCH  10  13
ATOM     13  C   UNL d   1      -0.695   4.349   0.327  0.00  0.00     0.472 C 
ATOM     14  F   UNL d   1       0.672   4.419   0.326  0.00  0.00    -0.162 F 
ATOM     15  F   UNL d   1      -1.118   5.196  -0.648  0.00  0.00    -0.162 F 
ATOM     16  F   UNL d   1      -1.095   4.874   1.516  0.00  0.00    -0.162 F 
ENDBRANCH  10  13
ENDBRANCH   1   9
BRANCH   4  17
ATOM     17  C   UNL d   1       0.096  -3.711  -0.290  0.00  0.00     0.293 C 
ATOM     18  O   UNL d   1       1.156  -4.240  -0.572  0.00  0.00    -0.259 OA
BRANCH  17  19
ATOM     19  O   UNL d   1      -1.119  -4.304  -0.255  0.00  0.00    -0.318 OA
BRANCH  19  20
ATOM     20  C   UNL d   1      -1.166  -5.658  -0.730  0.00  0.00     0.174 C 
ATOM     21  C   UNL d   1      -1.395  -5.647  -2.231  0.00  0.00     0.034 C 
ENDBRANCH  19  20
ENDBRANCH  17  19
ENDBRANCH   4  17
TORSDOF 5
