REMARK  2 active torsions:
REMARK  status: ('A' for Active; 'I' for Inactive)
REMARK    1  A    between atoms: C_2  and  C_5 
REMARK    2  A    between atoms: C_5  and  C_8 
ROOT
ATOM      1  C   UNL d   1      -2.499  -0.956   0.047  0.00  0.00     0.100 C 
ATOM      2  C   UNL d   1      -3.799  -1.306  -0.059  0.00  0.00     0.131 C 
ATOM      3  N   UNL d   1      -1.954   0.322   0.151  0.00  0.00    -0.348 N 
ATOM      4  S   UNL d   1      -1.226  -2.240   0.032  0.00  0.00    -0.069 SA
ATOM      5  C   UNL d   1      -0.555   0.322   0.033  0.00  0.00     0.050 A 
ATOM      6  C   UNL d   1       0.020  -0.966   0.017  0.00  0.00     0.033 A 
ATOM      7  C   UNL d   1       0.267   1.437   0.049  0.00  0.00     0.031 A 
ATOM      8  C   UNL d   1       1.391  -1.158  -0.018  0.00  0.00     0.021 A 
ATOM      9  C   UNL d   1       1.656   1.254   0.009  0.00  0.00     0.002 A 
ATOM     10  C   UNL d   1       2.215  -0.034  -0.024  0.00  0.00     0.002 A 
ATOM     11  C   UNL d   1      -4.202  -2.659  -0.255  0.00  0.00     0.106 C 
ATOM     12  N   UNL d   1      -4.540  -3.755  -0.445  0.00  0.00    -0.191 NA
ATOM     13  H   UNL d   1      -2.514   1.120  -0.140  0.00  0.00     0.166 HD
ENDROOT
BRANCH   2  14
ATOM     14  C   UNL d   1      -4.872  -0.256  -0.050  0.00  0.00     0.229 C 
ATOM     15  O   UNL d   1      -4.615   0.890  -0.427  0.00  0.00    -0.284 OA
BRANCH  14  16
ATOM     16  C   UNL d   1      -6.208  -0.661   0.360  0.00  0.00     0.126 A 
ATOM     17  C   UNL d   1      -7.464  -0.211  -0.006  0.00  0.00     0.043 A 
ATOM     18  C   UNL d   1      -8.404  -1.031   0.668  0.00  0.00     0.027 A 
ATOM     19  C   UNL d   1      -7.671  -1.896   1.445  0.00  0.00     0.142 A 
ATOM     20  O   UNL d   1      -6.345  -1.669   1.279  0.00  0.00    -0.319 OA
ENDBRANCH  14  16
ENDBRANCH   2  14
TORSDOF 2
