REMARK  3 active torsions:
REMARK  status: ('A' for Active; 'I' for Inactive)
REMARK    1  A    between atoms: C_10  and  C_5 
REMARK    2  A    between atoms: C_11  and  N_7 
REMARK    3  A    between atoms: O_18  and  C_12 
ROOT
ATOM      1  C   UNL d   1       0.420   1.381   0.240  0.00  0.00     0.161 C 
ATOM      2  N   UNL d   1      -1.350  -0.378   0.172  0.00  0.00    -0.299 N 
ATOM      3  HN  UNL d   1      -2.351  -0.572   0.202  1.00  0.00     0.187 HD
ATOM      4  N   UNL d   1      -0.890   0.923   0.107  0.00  0.00    -0.275 N 
ATOM      5  C   UNL d   1      -0.486  -1.355   0.194  0.00  0.00     0.046 C 
ATOM      6  S   UNL d   1       1.468   0.281   1.142  0.00  0.00    -0.086 SA
ATOM      7  N   UNL d   1       0.820   2.519  -0.259  0.00  0.00    -0.336 N 
ATOM      8  HN  UNL d   1       0.126   3.122  -0.701  1.00  0.00     0.168 HD
ATOM      9  C   UNL d   1       1.014  -1.169   0.181  0.00  0.00     0.142 C 
ATOM     10  C   UNL d   1      -1.946   1.910  -0.109  0.00  0.00     0.180 C 
ENDROOT
BRANCH   7  11
ATOM     11  C   UNL d   1       2.152   2.958  -0.219  0.00  0.00     0.034 A 
ATOM     12  C   UNL d   1       3.201   2.204  -0.757  0.00  0.00     0.032 A 
ATOM     13  C   UNL d   1       4.523   2.652  -0.693  0.00  0.00     0.039 A 
ATOM     14  C   UNL d   1       4.809   3.901  -0.152  0.00  0.00     0.068 A 
ATOM     15  C   UNL d   1       3.759   4.702   0.302  0.00  0.00     0.039 A 
ATOM     16  C   UNL d   1       2.441   4.231   0.274  0.00  0.00     0.032 A 
BRANCH  14  17
ATOM     17  O   UNL d   1       6.058   4.448  -0.034  0.00  0.00    -0.356 OA
ATOM     18  C   UNL d   1       7.152   3.578  -0.297  0.00  0.00     0.210 C 
ENDBRANCH  14  17
ENDBRANCH   7  11
BRANCH   5  19
ATOM     19  C   UNL d   1      -0.997  -2.761   0.187  0.00  0.00    -0.011 A 
ATOM     20  C   UNL d   1      -2.236  -3.036   0.773  0.00  0.00     0.013 A 
ATOM     21  C   UNL d   1      -2.726  -4.344   0.794  0.00  0.00     0.001 A 
ATOM     22  C   UNL d   1      -1.986  -5.377   0.220  0.00  0.00     0.000 A 
ATOM     23  C   UNL d   1      -0.761  -5.105  -0.387  0.00  0.00     0.001 A 
ATOM     24  C   UNL d   1      -0.266  -3.799  -0.408  0.00  0.00     0.013 A 
ENDBRANCH   5  19
TORSDOF 3
