REMARK  5 active torsions:
REMARK  status: ('A' for Active; 'I' for Inactive)
REMARK    1  A    between atoms: C_3  and  C_1 
REMARK    2  A    between atoms: N_2  and  C_7 
REMARK    3  A    between atoms: O_14  and  C_3 
REMARK    4  A    between atoms: C_11  and  C_4 
REMARK    5  A    between atoms: C_17  and  O_14 
ROOT
ATOM      1  C   UNL d   1       0.910   0.054   0.083  0.00  0.00     0.120 C 
ATOM      2  C   UNL d   1       0.254   1.083  -0.488  0.00  0.00     0.040 C 
ATOM      3  C   UNL d   1       0.250  -1.017   0.751  0.00  0.00     0.105 C 
ATOM      4  N   UNL d   1      -0.309  -1.883   1.283  0.00  0.00    -0.191 NA
ENDROOT
BRANCH   1   5
ATOM      5  C   UNL d   1       2.384   0.035  -0.083  0.00  0.00     0.303 C 
ATOM      6  O   UNL d   1       3.016   0.891  -0.687  0.00  0.00    -0.258 OA
BRANCH   5   7
ATOM      7  O   UNL d   1       2.907  -1.098   0.447  0.00  0.00    -0.317 OA
BRANCH   7   8
ATOM      8  C   UNL d   1       4.247  -1.414   0.042  0.00  0.00     0.174 C 
ATOM      9  C   UNL d   1       4.173  -2.232  -1.235  0.00  0.00     0.034 C 
ENDBRANCH   7   8
ENDBRANCH   5   7
ENDBRANCH   1   5
BRANCH   2  10
ATOM     10  C   UNL d   1      -1.202   1.231  -0.492  0.00  0.00    -0.035 A 
ATOM     11  C   UNL d   1      -1.836   1.911   0.554  0.00  0.00     0.014 A 
ATOM     12  C   UNL d   1      -3.227   2.042   0.561  0.00  0.00     0.037 A 
ATOM     13  C   UNL d   1      -3.979   1.486  -0.484  0.00  0.00     0.102 A 
ATOM     14  C   UNL d   1      -3.350   0.805  -1.532  0.00  0.00     0.037 A 
ATOM     15  C   UNL d   1      -1.958   0.678  -1.532  0.00  0.00     0.014 A 
BRANCH  13  16
ATOM     16  N   UNL d   1      -5.440   1.630  -0.479  0.00  0.00    -0.116 N 
ATOM     17  O   UNL d   1      -5.958   2.235   0.470  0.00  0.00    -0.532 OA
ATOM     18  O   UNL d   1      -6.070   1.143  -1.430  0.00  0.00    -0.532 OA
ENDBRANCH  13  16
ENDBRANCH   2  10
TORSDOF 5
