REMARK  4 active torsions:
REMARK  status: ('A' for Active; 'I' for Inactive)
REMARK    1  A    between atoms: C_12  and  N_1 
REMARK       I    between atoms: C_2  and  N_6 
REMARK    2  A    between atoms: C_4  and  C_2 
REMARK    3  A    between atoms: N_8  and  C_3 
REMARK    4  A    between atoms: N_9  and  C_5 
ROOT
ATOM      1  C   UNL d   1      -3.749  -3.358  -7.906  0.00  0.00     0.255 C 
ATOM      2  N   UNL d   1      -2.821  -2.942  -6.954  0.00  0.00    -0.345 N 
ATOM      3  N   UNL d   1      -1.489  -1.835  -4.673  0.00  0.00    -0.376 N 
ATOM      4  O   UNL d   1      -4.465  -4.347  -7.748  0.00  0.00    -0.267 OA
ATOM      5  C   UNL d   1      -1.804  -1.885  -7.111  0.00  0.00     0.146 C 
ATOM      6  C   UNL d   1      -2.667  -3.745  -5.732  0.00  0.00     0.146 C 
ATOM      7  C   UNL d   1      -1.730  -0.985  -5.850  0.00  0.00     0.143 C 
ATOM      8  C   UNL d   1      -2.545  -2.861  -4.471  0.00  0.00     0.143 C 
ENDROOT
BRANCH   3   9
ATOM      9  C   UNL d   1      -0.887  -1.322  -3.526  0.00  0.00     0.058 A 
ATOM     10  C   UNL d   1      -1.117   0.005  -3.118  0.00  0.00     0.034 A 
ATOM     11  C   UNL d   1      -0.569   0.521  -1.936  0.00  0.00     0.038 A 
ATOM     12  C   UNL d   1       0.220  -0.300  -1.127  0.00  0.00     0.105 A 
ATOM     13  C   UNL d   1       0.461  -1.628  -1.485  0.00  0.00     0.068 A 
ATOM     14  C   UNL d   1      -0.058  -2.123  -2.696  0.00  0.00     0.067 A 
BRANCH  12  15
ATOM     15  N   UNL d   1       0.826   0.245   0.096  0.00  0.00    -0.116 N 
ATOM     16  O   UNL d   1       1.462  -0.532   0.822  0.00  0.00    -0.532 OA
ATOM     17  O   UNL d   1       0.675   1.454   0.324  0.00  0.00    -0.532 OA
ENDBRANCH  12  15
BRANCH  14  18
ATOM     18  N   UNL d   1       0.345  -3.433  -3.096  0.00  0.00    -0.331 N 
ATOM     19  C   UNL d   1       0.546  -4.518  -2.266  0.00  0.00     0.097 A 
ATOM     20  C   UNL d   1       0.843  -5.622  -3.039  0.00  0.00     0.019 A 
ATOM     21  C   UNL d   1       0.905  -5.189  -4.381  0.00  0.00     0.019 A 
ATOM     22  C   UNL d   1       0.632  -3.843  -4.385  0.00  0.00     0.097 A 
ENDBRANCH  14  18
ENDBRANCH   3   9
BRANCH   1  23
ATOM     23  C   UNL d   1      -3.934  -2.577  -9.161  0.00  0.00     0.044 A 
ATOM     24  C   UNL d   1      -3.775  -3.218 -10.413  0.00  0.00    -0.045 A 
ATOM     25  C   UNL d   1      -4.009  -2.482 -11.591  0.00  0.00     0.014 A 
ATOM     26  C   UNL d   1      -3.443  -4.678 -10.578  0.00  0.00     0.049 C 
ATOM     27  C   UNL d   1      -4.380  -1.136 -11.546  0.00  0.00    -0.061 A 
ATOM     28  C   UNL d   1      -4.559  -0.524 -10.306  0.00  0.00     0.014 A 
ATOM     29  C   UNL d   1      -4.641  -0.385 -12.819  0.00  0.00     0.048 C 
ATOM     30  C   UNL d   1      -4.380  -1.237  -9.108  0.00  0.00    -0.045 A 
ATOM     31  C   UNL d   1      -4.696  -0.509  -7.830  0.00  0.00     0.049 C 
ENDBRANCH   1  23
TORSDOF 4
