REMARK  4 active torsions:
REMARK  status: ('A' for Active; 'I' for Inactive)
REMARK    1  A    between atoms: N_3  and  C_2 
REMARK    2  A    between atoms: N_12  and  N_4 
REMARK    3  A    between atoms: C_6  and  C_11 
REMARK    4  A    between atoms: C_10  and  N_12 
ROOT
ATOM      1  N   UNL d   1      -3.029  -1.106   0.936  0.00  0.00    -0.298 N 
ATOM      2  H   UNL d   1      -2.790  -1.981   0.439  0.00  0.00     0.187 HD
ENDROOT
BRANCH   1   3
ATOM      3  C   UNL d   1      -4.379  -1.039   1.350  0.00  0.00     0.081 A 
ATOM      4  C   UNL d   1      -4.996  -2.035   2.135  0.00  0.00     0.131 A 
ATOM      5  C   UNL d   1      -6.365  -1.940   2.468  0.00  0.00     0.054 A 
ATOM      6  C   UNL d   1      -7.139  -0.857   2.027  0.00  0.00     0.050 A 
ATOM      7  C   UNL d   1      -6.514   0.163   1.306  0.00  0.00     0.018 A 
ATOM      8  C   UNL d   1      -5.157   0.071   0.982  0.00  0.00     0.034 A 
BRANCH   4   9
ATOM      9  N   UNL d   1      -4.255  -3.195   2.674  0.00  0.00    -0.113 N 
ATOM     10  O   UNL d   1      -4.886  -4.002   3.369  0.00  0.00    -0.532 OA
ATOM     11  O   UNL d   1      -3.052  -3.315   2.400  0.00  0.00    -0.532 OA
ENDBRANCH   4   9
BRANCH   6  12
ATOM     12  C   UNL d   1      -8.622  -0.796   2.300  0.00  0.00     0.417 C 
ATOM     13  F   UNL d   1      -9.093  -1.882   2.971  0.00  0.00    -0.166 F 
ATOM     14  F   UNL d   1      -8.978   0.288   3.039  0.00  0.00    -0.166 F 
ATOM     15  F   UNL d   1      -9.350  -0.725   1.150  0.00  0.00    -0.166 F 
ENDBRANCH   6  12
ENDBRANCH   1   3
BRANCH   1  16
ATOM     16  N   UNL d   1      -2.386   0.047   0.608  0.00  0.00    -0.294 N 
ATOM     17  C   UNL d   1      -1.203  -0.041   0.065  0.00  0.00     0.140 C 
ATOM     18  C   UNL d   1      -0.536  -1.358  -0.274  0.00  0.00     0.181 C 
ATOM     19  C   UNL d   1      -0.469   1.267  -0.192  0.00  0.00     0.181 C 
ATOM     20  C   UNL d   1       0.968  -1.356  -0.438  0.00  0.00     0.095 C 
ATOM     21  O   UNL d   1      -1.213  -2.355  -0.494  0.00  0.00    -0.291 OA
ATOM     22  C   UNL d   1       1.668  -0.088   0.073  0.00  0.00    -0.034 C 
ATOM     23  C   UNL d   1       0.996   1.158  -0.530  0.00  0.00     0.095 C 
ATOM     24  C   UNL d   1       3.135  -0.136  -0.397  0.00  0.00     0.015 C 
ATOM     25  C   UNL d   1       1.668  -0.023   1.613  0.00  0.00     0.015 C 
ATOM     26  O   UNL d   1      -1.063   2.335  -0.180  0.00  0.00    -0.291 OA
ATOM     27  HN  UNL d   1      -2.818   0.955   0.781  1.00  0.00     0.187 HD
ENDBRANCH   1  16
TORSDOF 4
