REMARK  5 active torsions:
REMARK  status: ('A' for Active; 'I' for Inactive)
REMARK    1  A    between atoms: C_8  and  C_3 
REMARK    2  A    between atoms: C_16  and  C_4 
REMARK    3  A    between atoms: C_7  and  C_11 
REMARK    4  A    between atoms: O_17  and  C_16 
REMARK    5  A    between atoms: C_18  and  O_17 
ROOT
ATOM      1  N   UNL d   1       0.518  -0.438  -1.071  0.00  0.00    -0.351 N 
ATOM      2  HN  UNL d   1       0.561  -0.782  -2.030  1.00  0.00     0.166 HD
ATOM      3  C   UNL d   1       0.698   0.884  -0.694  0.00  0.00     0.049 A 
ATOM      4  C   UNL d   1       0.282  -1.185  -0.010  0.00  0.00     0.075 A 
ATOM      5  S   UNL d   1       0.254  -0.341   1.492  0.00  0.00    -0.084 SA
ATOM      6  C   UNL d   1       0.589   1.118   0.665  0.00  0.00     0.082 A 
ENDROOT
BRANCH   4   7
ATOM      7  C   UNL d   1       0.017  -2.660  -0.030  0.00  0.00     0.240 C 
BRANCH   7   8
ATOM      8  O   UNL d   1       1.281  -3.322   0.088  0.00  0.00    -0.345 OA
BRANCH   8   9
ATOM      9  C   UNL d   1       1.228  -4.688   0.025  0.00  0.00     0.069 A 
ATOM     10  C   UNL d   1       2.372  -5.314  -0.470  0.00  0.00     0.037 A 
ATOM     11  C   UNL d   1       2.416  -6.705  -0.608  0.00  0.00     0.012 A 
ATOM     12  C   UNL d   1       1.320  -7.499  -0.234  0.00  0.00    -0.035 A 
ATOM     13  C   UNL d   1       0.197  -6.859   0.316  0.00  0.00     0.012 A 
ATOM     14  C   UNL d   1       0.149  -5.467   0.440  0.00  0.00     0.037 A 
BRANCH  12  15
ATOM     15  C   UNL d   1       1.346  -8.995  -0.479  0.00  0.00     0.141 C 
ATOM     16  S   UNL d   1       0.024  -9.505  -1.627  0.00  0.00    -0.148 SA
ATOM     17  C   UNL d   1      -0.250 -11.133  -0.905  0.00  0.00     0.085 C 
ATOM     18  C   UNL d   1      -0.166 -11.004   0.602  0.00  0.00     0.085 C 
ATOM     19  S   UNL d   1       1.261  -9.978   1.052  0.00  0.00    -0.148 SA
ENDBRANCH  12  15
ENDBRANCH   8   9
ENDBRANCH   7   8
ENDBRANCH   4   7
BRANCH   3  20
ATOM     20  C   UNL d   1       1.008   1.923  -1.667  0.00  0.00    -0.009 A 
ATOM     21  C   UNL d   1       0.636   3.259  -1.463  0.00  0.00     0.014 A 
ATOM     22  C   UNL d   1       0.967   4.241  -2.400  0.00  0.00     0.007 A 
ATOM     23  C   UNL d   1       1.671   3.906  -3.560  0.00  0.00    -0.062 A 
ATOM     24  C   UNL d   1       2.035   2.574  -3.774  0.00  0.00     0.007 A 
ATOM     25  C   UNL d   1       2.028   4.975  -4.549  0.00  0.00     0.048 C 
ATOM     26  C   UNL d   1       1.705   1.589  -2.838  0.00  0.00     0.014 A 
ENDBRANCH   3  20
TORSDOF 5
