REMARK  7 active torsions:
REMARK  status: ('A' for Active; 'I' for Inactive)
REMARK    1  A    between atoms: C_12  and  N_1 
REMARK    2  A    between atoms: S_2  and  N_8 
REMARK    3  A    between atoms: C_11  and  S_2 
REMARK    4  A    between atoms: C_10  and  C_3 
REMARK       I    between atoms: N_8  and  C_9 
REMARK       I    between atoms: C_9  and  N_15 
REMARK    5  A    between atoms: O_24  and  C_10 
REMARK    6  A    between atoms: N_15  and  C_22 
REMARK    7  A    between atoms: C_31  and  O_24 
ROOT
ATOM      1  C   UNL d   1      -1.034  -2.426  -0.072  0.00  0.00     0.056 A 
ATOM      2  C   UNL d   1      -0.850  -3.178   1.095  0.00  0.00     0.034 A 
ATOM      3  C   UNL d   1      -1.409  -3.086  -1.244  0.00  0.00     0.034 A 
ATOM      4  C   UNL d   1      -1.269  -5.244  -0.122  0.00  0.00     0.036 A 
ATOM      5  C   UNL d   1      -1.547  -4.484  -1.259  0.00  0.00     0.032 A 
ATOM      6  C   UNL d   1      -0.988  -4.569   1.072  0.00  0.00     0.032 A 
ENDROOT
BRANCH   4   7
ATOM      7  N   UNL d   1      -1.234  -6.647  -0.062  0.00  0.00    -0.308 N 
ATOM      8  C   UNL d   1      -1.156  -7.641  -1.006  0.00  0.00     0.334 C 
ATOM      9  N   UNL d   1      -0.962  -7.300  -2.331  0.00  0.00    -0.232 N 
ATOM     10  O   UNL d   1      -1.186  -8.803  -0.621  0.00  0.00    -0.246 OA
ATOM     11  H   UNL d   1      -0.726  -6.365  -2.600  0.00  0.00     0.183 HD
ATOM     12  H   UNL d   1      -1.201  -7.057   0.864  0.00  0.00     0.170 HD
BRANCH   9  13
ATOM     13  S   UNL d   1      -1.173  -8.310  -3.633  0.00  0.00     0.266 S 
ATOM     14  O   UNL d   1      -2.053  -9.409  -3.311  0.00  0.00    -0.200 OA
ATOM     15  O   UNL d   1      -1.474  -7.424  -4.736  0.00  0.00    -0.200 OA
BRANCH  13  16
ATOM     16  C   UNL d   1       0.466  -8.931  -3.894  0.00  0.00     0.080 A 
ATOM     17  C   UNL d   1       0.871 -10.119  -3.283  0.00  0.00     0.026 A 
ATOM     18  C   UNL d   1       2.149 -10.622  -3.547  0.00  0.00     0.008 A 
ATOM     19  C   UNL d   1       3.015  -9.952  -4.426  0.00  0.00    -0.062 A 
ATOM     20  C   UNL d   1       2.595  -8.759  -5.025  0.00  0.00     0.008 A 
ATOM     21  C   UNL d   1       4.383 -10.502  -4.702  0.00  0.00     0.048 C 
ATOM     22  C   UNL d   1       1.321  -8.253  -4.770  0.00  0.00     0.026 A 
ENDBRANCH  13  16
ENDBRANCH   9  13
ENDBRANCH   4   7
BRANCH   1  23
ATOM     23  N   UNL d   1      -0.759  -1.028  -0.036  0.00  0.00    -0.260 N 
ATOM     24  N   UNL d   1       0.146  -0.579   0.868  0.00  0.00    -0.297 N 
ATOM     25  C   UNL d   1       0.410   0.678   0.510  0.00  0.00     0.041 C 
ATOM     26  HN  UNL d   1       0.541  -1.093   1.655  1.00  0.00     0.187 HD
ATOM     27  C   UNL d   1       1.494   1.417   1.212  0.00  0.00     0.071 C 
ATOM     28  C   UNL d   1      -0.449   1.123  -0.529  0.00  0.00     0.087 C 
ATOM     29  C   UNL d   1      -1.230   0.007  -0.832  0.00  0.00     0.049 C 
ATOM     30  C   UNL d   1      -2.395  -0.115  -1.751  0.00  0.00     0.071 C 
BRANCH  28  31
ATOM     31  C   UNL d   1      -0.514   2.434  -1.163  0.00  0.00     0.297 C 
ATOM     32  O   UNL d   1      -1.264   2.703  -2.094  0.00  0.00    -0.259 OA
BRANCH  31  33
ATOM     33  O   UNL d   1       0.402   3.305  -0.651  0.00  0.00    -0.318 OA
BRANCH  33  34
ATOM     34  C   UNL d   1       0.637   4.490  -1.422  0.00  0.00     0.174 C 
ATOM     35  C   UNL d   1       1.694   4.183  -2.467  0.00  0.00     0.034 C 
ENDBRANCH  33  34
ENDBRANCH  31  33
ENDBRANCH  28  31
ENDBRANCH   1  23
TORSDOF 7
