REMARK  3 active torsions:
REMARK  status: ('A' for Active; 'I' for Inactive)
REMARK       I    between atoms: C_2  and  N_1 
REMARK    1  A    between atoms: C_3  and  C_2 
REMARK    2  A    between atoms: O_20  and  C_10 
REMARK    3  A    between atoms: O_21  and  C_13 
ROOT
ATOM      1  N   UNL d   1      -2.469   0.496  -0.323  0.00  0.00    -0.339 N 
ATOM      2  C   UNL d   1      -3.511   1.030  -1.089  0.00  0.00     0.256 C 
ATOM      3  C   UNL d   1       0.003   0.631  -0.021  0.00  0.00    -0.026 A 
ATOM      4  C   UNL d   1      -1.335   1.374   0.014  0.00  0.00     0.117 C 
ATOM      5  C   UNL d   1       0.068  -0.769  -0.102  0.00  0.00    -0.045 A 
ATOM      6  C   UNL d   1       1.207   1.357   0.022  0.00  0.00     0.049 A 
ATOM      7  C   UNL d   1      -2.409  -0.854   0.240  0.00  0.00     0.131 C 
ATOM      8  C   UNL d   1       2.448   0.704  -0.009  0.00  0.00     0.102 A 
ATOM      9  C   UNL d   1       1.311  -1.421  -0.123  0.00  0.00     0.047 A 
ATOM     10  C   UNL d   1       2.502  -0.698  -0.066  0.00  0.00     0.102 A 
ATOM     11  O   UNL d   1      -3.582   2.214  -1.402  0.00  0.00    -0.267 OA
ATOM     12  C   UNL d   1      -1.178  -1.597  -0.246  0.00  0.00     0.059 C 
ATOM     13  C   UNL d   1      -1.567   2.042   1.377  0.00  0.00     0.037 C 
ENDROOT
BRANCH   2  14
ATOM     14  C   UNL d   1      -4.584   0.129  -1.566  0.00  0.00     0.053 A 
ATOM     15  C   UNL d   1      -4.766  -0.123  -2.932  0.00  0.00     0.051 A 
ATOM     16  C   UNL d   1      -5.742  -1.034  -3.348  0.00  0.00     0.048 A 
ATOM     17 CL   UNL d   1      -3.799   0.619  -4.156  0.00  0.00    -0.083 Cl
ATOM     18  C   UNL d   1      -6.521  -1.696  -2.399  0.00  0.00     0.035 A 
ATOM     19  C   UNL d   1      -6.376  -1.418  -1.042  0.00  0.00     0.025 A 
ATOM     20 CL   UNL d   1      -7.662  -2.878  -2.907  0.00  0.00    -0.084 Cl
ATOM     21  C   UNL d   1      -5.434  -0.479  -0.625  0.00  0.00     0.020 A 
ENDBRANCH   2  14
BRANCH   8  22
ATOM     22  O   UNL d   1       3.651   1.363   0.055  0.00  0.00    -0.353 OA
ATOM     23  C   UNL d   1       3.675   2.676  -0.490  0.00  0.00     0.210 C 
ENDBRANCH   8  22
BRANCH  10  24
ATOM     24  O   UNL d   1       3.751  -1.266  -0.079  0.00  0.00    -0.353 OA
ATOM     25  C   UNL d   1       3.824  -2.685  -0.143  0.00  0.00     0.210 C 
ENDBRANCH  10  24
TORSDOF 3
