REMARK  3 active torsions:
REMARK  status: ('A' for Active; 'I' for Inactive)
REMARK    1  A    between atoms: C_13  and  N_3 
REMARK    2  A    between atoms: C_12  and  C_6 
REMARK       I    between atoms: N_27  and  C_12 
REMARK    3  A    between atoms: C_17  and  C_13 
ROOT
ATOM      1  C   UNL d   1      -1.200   0.681   0.035  0.00  0.00     0.127 A 
ATOM      2  C   UNL d   1      -1.237  -0.671   0.058  0.00  0.00     0.078 A 
ATOM      3  N   UNL d   1      -2.427   1.383  -0.027  0.00  0.00    -0.312 N 
ATOM      4  N   UNL d   1       0.001   1.355   0.038  0.00  0.00    -0.327 N 
ATOM      5  HN  UNL d   1       0.015   2.375   0.047  1.00  0.00     0.169 HD
ATOM      6  C   UNL d   1      -3.691  -0.799  -0.017  0.00  0.00     0.076 C 
ATOM      7  C   UNL d   1      -3.651   0.708  -0.156  0.00  0.00     0.118 C 
ATOM      8  C   UNL d   1       0.038  -1.439   0.069  0.00  0.00     0.267 A 
ATOM      9  N   UNL d   1       1.197  -0.690   0.038  0.00  0.00    -0.274 N 
ATOM     10  C   UNL d   1       1.111   0.690   0.030  0.00  0.00     0.115 A 
ATOM     11  C   UNL d   1      -2.494  -1.401   0.061  0.00  0.00     0.041 C 
ATOM     12  N   UNL d   1      -4.744   1.372  -0.405  0.00  0.00    -0.384 N 
ATOM     13  HN  UNL d   1      -4.803   2.387  -0.485  1.00  0.00     0.157 HD
ATOM     14  C   UNL d   1       2.427  -1.338   0.024  0.00  0.00     0.102 A 
ATOM     15  O   UNL d   1       0.007  -2.672   0.099  0.00  0.00    -0.267 OA
ATOM     16  C   UNL d   1       2.397   1.444   0.009  0.00  0.00     0.049 A 
ATOM     17  C   UNL d   1       3.580  -0.658   0.006  0.00  0.00     0.018 A 
ATOM     18  C   UNL d   1       3.561   0.781  -0.002  0.00  0.00     0.005 A 
ATOM     19  H   UNL d   1      -5.546   0.723  -0.510  0.00  0.00     0.157 HD
ENDROOT
BRANCH   3  20
ATOM     20  C   UNL d   1      -2.428   2.862  -0.070  0.00  0.00     0.197 C 
BRANCH  20  21
ATOM     21  C   UNL d   1      -2.615   3.581   1.232  0.00  0.00     0.070 A 
ATOM     22  O   UNL d   1      -1.987   4.793   1.346  0.00  0.00    -0.325 OA
ATOM     23  C   UNL d   1      -2.371   5.335   2.530  0.00  0.00     0.142 A 
ATOM     24  C   UNL d   1      -3.227   4.487   3.191  0.00  0.00     0.027 A 
ATOM     25  C   UNL d   1      -3.369   3.345   2.364  0.00  0.00     0.036 A 
ENDBRANCH  20  21
ENDBRANCH   3  20
BRANCH   6  26
ATOM     26  C   UNL d   1      -4.961  -1.577  -0.021  0.00  0.00     0.253 C 
ATOM     27  O   UNL d   1      -6.015  -1.082  -0.418  0.00  0.00    -0.268 OA
ATOM     28  N   UNL d   1      -4.944  -2.844   0.470  0.00  0.00    -0.366 N 
ATOM     29  H   UNL d   1      -4.155  -3.279   0.923  0.00  0.00     0.159 HD
ATOM     30  H   UNL d   1      -5.829  -3.333   0.501  0.00  0.00     0.159 HD
ENDBRANCH   6  26
TORSDOF 3
