REMARK  7 active torsions:
REMARK  status: ('A' for Active; 'I' for Inactive)
REMARK    1  A    between atoms: N_4  and  C_1 
REMARK    2  A    between atoms: C_6  and  C_2 
REMARK       I    between atoms: C_8  and  N_4 
REMARK    3  A    between atoms: O_14  and  C_6 
REMARK    4  A    between atoms: C_12  and  C_8 
REMARK    5  A    between atoms: S_10  and  C_12 
REMARK    6  A    between atoms: C_13  and  S_10 
REMARK    7  A    between atoms: C_22  and  O_14 
ROOT
ATOM      1  N   UNL d   1       0.468  -2.520   0.208  0.00  0.00    -0.320 N 
ATOM      2  C   UNL d   1       1.114  -3.310  -0.719  0.00  0.00     0.232 C 
ATOM      3  O   UNL d   1       1.812  -2.903  -1.644  0.00  0.00    -0.272 OA
ATOM      4  H   UNL d   1      -0.338  -2.958   0.650  0.00  0.00     0.169 HD
ENDROOT
BRANCH   1   5
ATOM      5  C   UNL d   1       0.434  -1.151   0.183  0.00  0.00     0.093 A 
ATOM      6  C   UNL d   1       1.327  -0.133  -0.106  0.00  0.00     0.079 A 
ATOM      7  C   UNL d   1       0.656   1.160   0.013  0.00  0.00    -0.036 A 
ATOM      8  C   UNL d   1       1.293   2.503  -0.148  0.00  0.00     0.050 C 
ATOM      9  C   UNL d   1      -0.682   1.016   0.332  0.00  0.00     0.059 A 
ATOM     10  S   UNL d   1      -1.108  -0.595   0.646  0.00  0.00    -0.083 SA
BRANCH   6  11
ATOM     11  C   UNL d   1       2.747  -0.308  -0.419  0.00  0.00     0.296 C 
ATOM     12  O   UNL d   1       3.374   0.477  -1.122  0.00  0.00    -0.259 OA
BRANCH  11  13
ATOM     13  O   UNL d   1       3.318  -1.364   0.240  0.00  0.00    -0.318 OA
BRANCH  13  14
ATOM     14  C   UNL d   1       4.708  -1.592  -0.033  0.00  0.00     0.174 C 
ATOM     15  C   UNL d   1       4.861  -2.493  -1.244  0.00  0.00     0.034 C 
ENDBRANCH  13  14
ENDBRANCH  11  13
ENDBRANCH   6  11
ENDBRANCH   1   5
BRANCH   2  16
ATOM     16  C   UNL d   1       0.880  -4.819  -0.509  0.00  0.00     0.182 C 
BRANCH  16  17
ATOM     17  S   UNL d   1      -0.695  -5.109   0.402  0.00  0.00    -0.121 SA
BRANCH  17  18
ATOM     18  C   UNL d   1      -0.745  -6.865   0.663  0.00  0.00     0.001 A 
ATOM     19  C   UNL d   1      -1.325  -7.308   1.862  0.00  0.00     0.020 A 
ATOM     20  C   UNL d   1      -1.559  -8.665   2.087  0.00  0.00     0.025 A 
ATOM     21  C   UNL d   1      -1.215  -9.591   1.108  0.00  0.00     0.034 A 
ATOM     22  C   UNL d   1      -0.617  -9.169  -0.079  0.00  0.00     0.025 A 
ATOM     23 CL   UNL d   1      -1.560 -11.258   1.352  0.00  0.00    -0.084 Cl
ATOM     24  C   UNL d   1      -0.381  -7.807  -0.302  0.00  0.00     0.020 A 
ENDBRANCH  17  18
ENDBRANCH  16  17
ENDBRANCH   2  16
TORSDOF 7
