REMARK  8 active torsions:
REMARK  status: ('A' for Active; 'I' for Inactive)
REMARK    1  A    between atoms: C_9  and  N_1 
REMARK    2  A    between atoms: S_4  and  N_10 
REMARK    3  A    between atoms: C_18  and  S_4 
REMARK    4  A    between atoms: C_14  and  C_6 
REMARK    5  A    between atoms: C_11  and  C_9 
REMARK    6  A    between atoms: N_10  and  N_15 
REMARK       I    between atoms: N_15  and  C_11 
REMARK    7  A    between atoms: C_12  and  C_17 
REMARK    8  A    between atoms: C_13  and  C_16 
ROOT
ATOM      1  N   UNL d   1      -0.143  -1.241  -0.248  0.00  0.00    -0.203 N 
ATOM      2  N   UNL d   1      -0.977  -0.382   0.355  0.00  0.00    -0.268 N 
ATOM      3  HN  UNL d   1      -1.772  -0.567   0.967  1.00  0.00     0.190 HD
ATOM      4  N   UNL d   1       0.831  -0.679  -0.988  0.00  0.00    -0.002 NA
ATOM      5  C   UNL d   1      -0.476   0.792  -0.069  0.00  0.00     0.144 A 
ATOM      6  N   UNL d   1       0.626   0.627  -0.875  0.00  0.00    -0.266 N 
ATOM      7  HN  UNL d   1       1.180   1.368  -1.305  1.00  0.00     0.186 HD
ENDROOT
BRANCH   1   8
ATOM      8  C   UNL d   1      -0.345  -2.674  -0.181  0.00  0.00     0.214 C 
ATOM      9  C   UNL d   1       0.931  -3.448   0.127  0.00  0.00     0.046 C 
BRANCH   8  10
ATOM     10  C   UNL d   1      -1.026  -3.165  -1.445  0.00  0.00     0.262 C 
ATOM     11  N   UNL d   1      -0.398  -2.879  -2.641  0.00  0.00    -0.259 N 
ATOM     12  H   UNL d   1       0.432  -2.285  -2.722  0.00  0.00     0.190 HD
ATOM     13  O   UNL d   1      -2.059  -3.840  -1.406  0.00  0.00    -0.269 OA
BRANCH  11  14
ATOM     14  N   UNL d   1      -1.030  -3.322  -3.870  0.00  0.00    -0.220 N 
ATOM     15  H   UNL d   1      -1.908  -3.849  -3.818  0.00  0.00     0.200 HD
BRANCH  14  16
ATOM     16  S   UNL d   1      -0.314  -2.955  -5.348  0.00  0.00     0.276 S 
ATOM     17  O   UNL d   1      -0.273  -1.511  -5.461  0.00  0.00    -0.199 OA
ATOM     18  O   UNL d   1       0.897  -3.741  -5.450  0.00  0.00    -0.199 OA
BRANCH  16  19
ATOM     19  C   UNL d   1      -1.479  -3.577  -6.531  0.00  0.00     0.082 A 
ATOM     20  C   UNL d   1      -1.389  -4.909  -6.947  0.00  0.00     0.049 A 
ATOM     21  C   UNL d   1      -2.232  -5.361  -7.960  0.00  0.00     0.035 A 
ATOM     22 CL   UNL d   1      -2.123  -6.993  -8.496  0.00  0.00    -0.084 Cl
ATOM     23  C   UNL d   1      -3.152  -4.499  -8.558  0.00  0.00     0.024 A 
ATOM     24  C   UNL d   1      -3.236  -3.170  -8.140  0.00  0.00     0.003 A 
ATOM     25  C   UNL d   1      -2.396  -2.704  -7.126  0.00  0.00     0.025 A 
ENDBRANCH  16  19
ENDBRANCH  14  16
ENDBRANCH  11  14
ENDBRANCH   8  10
ENDBRANCH   1   8
BRANCH   5  26
ATOM     26  C   UNL d   1      -1.063   2.083   0.265  0.00  0.00     0.012 A 
ATOM     27  C   UNL d   1      -2.200   2.135   1.086  0.00  0.00     0.031 A 
ATOM     28  C   UNL d   1      -2.812   3.352   1.417  0.00  0.00     0.049 A 
ATOM     29  C   UNL d   1      -2.265   4.538   0.908  0.00  0.00     0.032 A 
ATOM     30  C   UNL d   1      -1.122   4.518   0.088  0.00  0.00     0.049 A 
ATOM     31  C   UNL d   1      -0.528   3.282  -0.229  0.00  0.00     0.031 A 
BRANCH  28  32
ATOM     32  C   UNL d   1      -4.037   3.384   2.300  0.00  0.00     0.417 C 
ATOM     33  F   UNL d   1      -4.417   2.156   2.751  0.00  0.00    -0.166 F 
ATOM     34  F   UNL d   1      -3.853   4.149   3.410  0.00  0.00    -0.166 F 
ATOM     35  F   UNL d   1      -5.121   3.901   1.660  0.00  0.00    -0.166 F 
ENDBRANCH  28  32
BRANCH  30  36
ATOM     36  C   UNL d   1      -0.558   5.819  -0.436  0.00  0.00     0.417 C 
ATOM     37  F   UNL d   1       0.572   5.667  -1.179  0.00  0.00    -0.166 F 
ATOM     38  F   UNL d   1      -1.443   6.483  -1.229  0.00  0.00    -0.166 F 
ATOM     39  F   UNL d   1      -0.234   6.681   0.567  0.00  0.00    -0.166 F 
ENDBRANCH  30  36
ENDBRANCH   5  26
TORSDOF 8
