REMARK  1 active torsions:
REMARK  status: ('A' for Active; 'I' for Inactive)
REMARK    1  A    between atoms: C_11  and  C_6 
ROOT
ATOM      1  N   UNL d   1      -8.245  -2.901  -0.097  0.00  0.00    -0.191 NA
ATOM      2  C   UNL d   1      -7.330  -2.189  -0.049  0.00  0.00     0.099 C 
ATOM      3  C   UNL d   1      -3.904   0.303   0.053  0.00  0.00    -0.035 A 
ATOM      4  C   UNL d   1      -6.189  -1.322   0.003  0.00  0.00     0.044 A 
ATOM      5  C   UNL d   1      -4.823   0.413  -0.996  0.00  0.00     0.013 A 
ATOM      6  C   UNL d   1      -4.147  -0.600   1.093  0.00  0.00     0.013 A 
ATOM      7  C   UNL d   1      -5.285  -1.412   1.067  0.00  0.00     0.023 A 
ATOM      8  C   UNL d   1      -5.962  -0.397  -1.022  0.00  0.00     0.023 A 
ENDROOT
BRANCH   3   9
ATOM      9  C   UNL d   1      -2.683   1.110   0.047  0.00  0.00     0.036 C 
ATOM     10  C   UNL d   1      -2.560   2.332   0.579  0.00  0.00     0.076 A 
ATOM     11  C   UNL d   1      -1.284   3.096   0.513  0.00  0.00     0.264 A 
ATOM     12  S   UNL d   1      -3.760   3.259   1.402  0.00  0.00    -0.055 SA
ATOM     13  N   UNL d   1      -1.447   4.309   1.121  0.00  0.00    -0.307 N 
ATOM     14  O   UNL d   1      -0.250   2.709  -0.006  0.00  0.00    -0.267 OA
ATOM     15  C   UNL d   1      -2.667   4.601   1.654  0.00  0.00     0.146 A 
ATOM     16  H   UNL d   1      -0.680   4.961   1.164  0.00  0.00     0.170 HD
ATOM     17  S   UNL d   1      -3.018   6.027   2.417  0.00  0.00    -0.052 SA
ENDBRANCH   3   9
TORSDOF 1
