REMARK  5 active torsions:
REMARK  status: ('A' for Active; 'I' for Inactive)
REMARK    1  A    between atoms: N_8  and  C_2 
REMARK       I    between atoms: C_7  and  N_8 
REMARK    2  A    between atoms: C_9  and  C_7 
REMARK    3  A    between atoms: O_22  and  C_10 
REMARK    4  A    between atoms: O_23  and  C_12 
REMARK    5  A    between atoms: O_24  and  C_13 
ROOT
ATOM      1  C   UNL d   1       4.926  -0.640   0.048  0.00  0.00     0.256 C 
ATOM      2  N   UNL d   1       5.173  -1.236  -1.178  0.00  0.00    -0.318 N 
ATOM      3  O   UNL d   1       4.582  -1.234   1.065  0.00  0.00    -0.267 OA
ATOM      4  H   UNL d   1       5.424  -0.638  -1.965  0.00  0.00     0.169 HD
ENDROOT
BRANCH   2   5
ATOM      5  C   UNL d   1       4.977  -2.558  -1.550  0.00  0.00     0.112 C 
ATOM      6  C   UNL d   1       5.191  -2.834  -3.004  0.00  0.00     0.315 C 
ATOM      7  O   UNL d   1       4.670  -4.012  -3.510  0.00  0.00    -0.272 OA
ATOM      8  O   UNL d   1       5.746  -2.002  -3.716  0.00  0.00    -0.257 OA
ATOM      9  C   UNL d   1       4.296  -5.066  -2.655  0.00  0.00     0.107 A 
ATOM     10  C   UNL d   1       4.346  -4.887  -1.272  0.00  0.00     0.003 A 
ATOM     11  C   UNL d   1       3.933  -6.295  -3.211  0.00  0.00     0.047 A 
ATOM     12  C   UNL d   1       4.604  -3.557  -0.738  0.00  0.00     0.050 C 
ATOM     13  C   UNL d   1       4.101  -5.980  -0.437  0.00  0.00     0.033 A 
ATOM     14  C   UNL d   1       3.792  -7.223  -0.994  0.00  0.00     0.013 A 
ATOM     15  C   UNL d   1       3.683  -7.382  -2.376  0.00  0.00     0.041 A 
ATOM     16 BR   UNL d   1       3.525  -8.714   0.139  0.00  0.00    -0.051 Br
ATOM     17 BR   UNL d   1       3.763  -6.524  -5.084  0.00  0.00    -0.048 Br
ENDBRANCH   2   5
BRANCH   1  18
ATOM     18  C   UNL d   1       5.012   0.849   0.083  0.00  0.00     0.037 A 
ATOM     19  C   UNL d   1       4.223   1.531   1.018  0.00  0.00     0.057 A 
ATOM     20  C   UNL d   1       4.178   2.935   1.050  0.00  0.00     0.105 A 
ATOM     21  C   UNL d   1       4.959   3.681   0.133  0.00  0.00     0.135 A 
ATOM     22  C   UNL d   1       5.792   2.986  -0.775  0.00  0.00     0.105 A 
ATOM     23  C   UNL d   1       5.812   1.583  -0.787  0.00  0.00     0.057 A 
BRANCH  20  24
ATOM     24  O   UNL d   1       3.391   3.619   1.939  0.00  0.00    -0.353 OA
ATOM     25  C   UNL d   1       2.612   2.894   2.882  0.00  0.00     0.210 C 
ENDBRANCH  20  24
BRANCH  21  26
ATOM     26  O   UNL d   1       4.995   5.048   0.043  0.00  0.00    -0.351 OA
ATOM     27  C   UNL d   1       4.122   5.861   0.809  0.00  0.00     0.210 C 
ENDBRANCH  21  26
BRANCH  22  28
ATOM     28  O   UNL d   1       6.646   3.493  -1.725  0.00  0.00    -0.353 OA
ATOM     29  C   UNL d   1       6.749   4.896  -1.906  0.00  0.00     0.210 C 
ENDBRANCH  22  28
ENDBRANCH   1  18
TORSDOF 5
