REMARK  6 active torsions:
REMARK  status: ('A' for Active; 'I' for Inactive)
REMARK    1  A    between atoms: C_2  and  C_1 
REMARK       I    between atoms: N_8  and  C_2 
REMARK    2  A    between atoms: C_18  and  N_8 
REMARK    3  A    between atoms: C_10  and  C_17 
REMARK    4  A    between atoms: S_12  and  C_19 
REMARK    5  A    between atoms: C_17  and  S_12 
REMARK    6  A    between atoms: C_19  and  C_18 
ROOT
ATOM      1  C   UNL d   1       0.051   4.880  -0.085  0.00  0.00     0.133 C 
ENDROOT
BRANCH   1   2
ATOM      2  N   UNL d   1       0.480   3.503   0.009  0.00  0.00    -0.354 N 
ATOM      3  C   UNL d   1       0.654   2.866   1.220  0.00  0.00     0.275 C 
ATOM      4  O   UNL d   1       0.545   3.456   2.291  0.00  0.00    -0.265 OA
ATOM      5  H   UNL d   1       0.587   2.943  -0.830  0.00  0.00     0.162 HD
BRANCH   3   6
ATOM      6  C   UNL d   1       0.955   1.456   1.100  0.00  0.00     0.142 A 
ATOM      7  O   UNL d   1       1.075   0.898  -0.148  0.00  0.00    -0.317 OA
ATOM      8  C   UNL d   1       1.345  -0.420   0.027  0.00  0.00     0.143 A 
ATOM      9  C   UNL d   1       1.400  -0.728   1.365  0.00  0.00     0.027 A 
ATOM     10  C   UNL d   1       1.147   0.480   2.059  0.00  0.00     0.045 A 
ENDBRANCH   3   6
ENDBRANCH   1   2
BRANCH   1  11
ATOM     11  C   UNL d   1       1.215   5.867   0.000  0.00  0.00     0.093 C 
BRANCH  11  12
ATOM     12  S   UNL d   1       0.659   7.601  -0.139  0.00  0.00    -0.163 SA
BRANCH  12  13
ATOM     13  C   UNL d   1      -0.309   7.730   1.399  0.00  0.00     0.112 C 
BRANCH  13  14
ATOM     14  C   UNL d   1      -0.937   9.093   1.544  0.00  0.00    -0.049 A 
ATOM     15  C   UNL d   1      -2.205   9.350   0.996  0.00  0.00     0.009 A 
ATOM     16  C   UNL d   1      -2.795  10.607   1.136  0.00  0.00     0.024 A 
ATOM     17  C   UNL d   1      -2.119  11.616   1.819  0.00  0.00     0.034 A 
ATOM     18  C   UNL d   1      -0.856  11.379   2.358  0.00  0.00     0.024 A 
ATOM     19 CL   UNL d   1      -2.848  13.164   1.999  0.00  0.00    -0.084 Cl
ATOM     20  C   UNL d   1      -0.265  10.122   2.217  0.00  0.00     0.009 A 
ENDBRANCH  13  14
ENDBRANCH  12  13
ENDBRANCH  11  12
ENDBRANCH   1  11
TORSDOF 6
