REMARK  3 active torsions:
REMARK  status: ('A' for Active; 'I' for Inactive)
REMARK    1  A    between atoms: C_3  and  C_1 
REMARK       I    between atoms: N_5  and  C_3 
REMARK    2  A    between atoms: C_8  and  N_5 
REMARK    3  A    between atoms: O_17  and  C_15 
ROOT
ATOM      1  C   UNL d   1      -2.349  -0.186  -0.323  0.00  0.00     0.102 A 
ATOM      2  N   UNL d   1      -1.571   0.938  -0.144  0.00  0.00    -0.351 N 
ATOM      3  C   UNL d   1      -1.482  -1.264  -0.363  0.00  0.00     0.049 A 
ATOM      4  C   UNL d   1      -0.153  -0.771  -0.223  0.00  0.00    -0.004 A 
ATOM      5  C   UNL d   1      -0.240   0.610  -0.071  0.00  0.00     0.043 A 
ATOM      6  C   UNL d   1       1.121  -1.369  -0.223  0.00  0.00     0.050 A 
ATOM      7  C   UNL d   1       0.883   1.424   0.102  0.00  0.00     0.033 A 
ATOM      8  C   UNL d   1       2.267  -0.575  -0.059  0.00  0.00     0.069 A 
ATOM      9  C   UNL d   1       2.140   0.805   0.105  0.00  0.00     0.039 A 
ATOM     10  H   UNL d   1      -1.948   1.875  -0.086  0.00  0.00     0.166 HD
ENDROOT
BRANCH   1  11
ATOM     11  C   UNL d   1      -3.784  -0.085  -0.470  0.00  0.00     0.273 C 
ATOM     12  N   UNL d   1      -4.470  -1.240  -0.181  0.00  0.00    -0.308 N 
ATOM     13  H   UNL d   1      -4.008  -1.949   0.369  0.00  0.00     0.170 HD
ATOM     14  O   UNL d   1      -4.305   0.988  -0.765  0.00  0.00    -0.266 OA
BRANCH  12  15
ATOM     15  C   UNL d   1      -5.858  -1.379  -0.215  0.00  0.00     0.108 A 
ATOM     16  N   UNL d   1      -6.349  -2.300   0.639  0.00  0.00    -0.346 N 
ATOM     17  C   UNL d   1      -7.697  -2.423   0.727  0.00  0.00     0.007 A 
ATOM     18  HN  UNL d   1      -5.728  -2.884   1.200  1.00  0.00     0.167 HD
ATOM     19  C   UNL d   1      -8.237  -3.338   1.785  0.00  0.00     0.068 C 
ATOM     20  C   UNL d   1      -8.573  -1.696  -0.071  0.00  0.00     0.025 A 
ATOM     21  C   UNL d   1      -8.046  -0.800  -0.992  0.00  0.00     0.006 A 
ATOM     22  C   UNL d   1      -6.667  -0.631  -1.060  0.00  0.00     0.049 A 
ENDBRANCH  12  15
ENDBRANCH   1  11
BRANCH   8  23
ATOM     23  O   UNL d   1       3.443  -1.274  -0.082  0.00  0.00    -0.356 OA
ATOM     24  C   UNL d   1       4.640  -0.529   0.107  0.00  0.00     0.210 C 
ENDBRANCH   8  23
TORSDOF 3
