REMARK  5 active torsions:
REMARK  status: ('A' for Active; 'I' for Inactive)
REMARK    1  A    between atoms: N_4  and  C_2 
REMARK    2  A    between atoms: C_13  and  N_4 
REMARK    3  A    between atoms: C_14  and  C_13 
REMARK    4  A    between atoms: O_15  and  C_14 
REMARK    5  A    between atoms: O_16  and  C_14 
ROOT
ATOM      1  C   UNL d   1       2.221   0.023  -0.712  0.00  0.00     0.042 A 
ATOM      2  C   UNL d   1       1.479   1.235  -0.629  0.00  0.00     0.117 A 
ATOM      3  C   UNL d   1       1.584  -1.056  -1.314  0.00  0.00     0.088 A 
ATOM      4  N   UNL d   1       0.194   1.202  -1.077  0.00  0.00    -0.338 N 
ATOM      5  HN  UNL d   1      -0.391   2.035  -1.014  1.00  0.00     0.168 HD
ATOM      6  N   UNL d   1       0.327  -1.088  -1.780  0.00  0.00    -0.346 N 
ATOM      7  HN  UNL d   1      -0.096  -1.904  -2.220  1.00  0.00     0.167 HD
ATOM      8  S   UNL d   1       2.570  -2.443  -1.436  0.00  0.00    -0.083 SA
ATOM      9  C   UNL d   1       3.532  -0.384  -0.265  0.00  0.00     0.025 A 
ATOM     10  C   UNL d   1      -0.302   0.071  -1.601  0.00  0.00     0.182 A 
ATOM     11  C   UNL d   1       3.860  -1.672  -0.629  0.00  0.00     0.053 A 
ENDROOT
BRANCH   2  12
ATOM     12  N   UNL d   1       1.955   2.425  -0.072  0.00  0.00    -0.366 N 
ATOM     13  C   UNL d   1       3.307   2.863  -0.395  0.00  0.00     0.151 C 
BRANCH  12  14
ATOM     14  C   UNL d   1       0.985   3.541   0.053  0.00  0.00     0.184 C 
BRANCH  14  15
ATOM     15  C   UNL d   1      -0.151   3.330   1.091  0.00  0.00     0.276 C 
BRANCH  15  16
ATOM     16  O   UNL d   1       0.441   2.951   2.344  0.00  0.00    -0.364 OA
ATOM     17  C   UNL d   1      -0.538   2.563   3.295  0.00  0.00     0.204 C 
ENDBRANCH  15  16
BRANCH  15  18
ATOM     18  O   UNL d   1      -0.899   4.542   1.292  0.00  0.00    -0.364 OA
ATOM     19  C   UNL d   1      -1.637   4.961   0.156  0.00  0.00     0.204 C 
ENDBRANCH  15  18
ENDBRANCH  14  15
ENDBRANCH  12  14
ENDBRANCH   2  12
TORSDOF 5
