REMARK  1 active torsions:
REMARK  status: ('A' for Active; 'I' for Inactive)
REMARK    1  A    between atoms: O_8  and  C_2 
ROOT
ATOM      1  C   UNL d   1      -1.800  -1.252  -0.062  0.00  0.00     0.120 A 
ATOM      2  C   UNL d   1      -0.561  -1.762  -0.048  0.00  0.00     0.087 A 
ATOM      3  C   UNL d   1      -2.069   0.192  -0.040  0.00  0.00     0.290 A 
ATOM      4  O   UNL d   1      -0.982   1.043  -0.082  0.00  0.00    -0.275 OA
ATOM      5  C   UNL d   1       0.578  -0.836  -0.010  0.00  0.00     0.031 A 
ATOM      6  C   UNL d   1       0.330   0.536  -0.051  0.00  0.00     0.092 A 
ATOM      7  O   UNL d   1      -3.223   0.606   0.001  0.00  0.00    -0.260 OA
ATOM      8  C   UNL d   1       1.912  -1.259   0.058  0.00  0.00     0.017 A 
ATOM      9  C   UNL d   1       1.360   1.477  -0.048  0.00  0.00     0.038 A 
ATOM     10  C   UNL d   1       2.956  -0.326   0.073  0.00  0.00     0.001 A 
ATOM     11  C   UNL d   1       2.680   1.041   0.014  0.00  0.00     0.003 A 
ENDROOT
BRANCH   2  12
ATOM     12  O   UNL d   1      -0.229  -3.100  -0.072  0.00  0.00    -0.355 OA
ATOM     13  C   UNL d   1      -1.294  -4.042  -0.149  0.00  0.00     0.210 C 
ENDBRANCH   2  12
TORSDOF 1
