REMARK  1 active torsions:
REMARK  status: ('A' for Active; 'I' for Inactive)
REMARK       I    between atoms: N_2  and  C_1 
REMARK    1  A    between atoms: C_5  and  C_1 
REMARK       I    between atoms: C_3  and  N_2 
REMARK       I    between atoms: N_4  and  C_3 
ROOT
ATOM      1  C   UNL d   1       1.004  -0.083  -0.248  0.00  0.00     0.264 C 
ATOM      2  N   UNL d   1       0.485  -0.557   0.953  0.00  0.00    -0.275 N 
ATOM      3  C   UNL d   1       1.097  -1.515   1.731  0.00  0.00     0.325 C 
ATOM      4  N   UNL d   1       0.584  -1.696   3.003  0.00  0.00    -0.324 N 
ATOM      5  C   UNL d   1      -0.573  -1.072   3.597  0.00  0.00     0.201 C 
ATOM      6  O   UNL d   1       1.986  -0.552  -0.796  0.00  0.00    -0.267 OA
ATOM      7  O   UNL d   1       2.050  -2.195   1.355  0.00  0.00    -0.247 OA
ATOM      8  S   UNL d   1      -0.310  -1.119   5.378  0.00  0.00    -0.147 SA
ATOM      9  C   UNL d   1       1.157  -2.750   3.833  0.00  0.00     0.138 C 
ATOM     10  C   UNL d   1       0.844  -2.511   5.304  0.00  0.00     0.095 C 
ATOM     11  H   UNL d   1      -0.411  -0.210   1.248  0.00  0.00     0.173 HD
ENDROOT
BRANCH   1  12
ATOM     12  C   UNL d   1       0.280   1.044  -0.919  0.00  0.00     0.092 A 
ATOM     13  C   UNL d   1      -1.076   1.278  -0.645  0.00  0.00     0.133 A 
ATOM     14  F   UNL d   1      -1.724   0.540   0.272  0.00  0.00    -0.205 F 
ATOM     15  C   UNL d   1      -1.802   2.275  -1.297  0.00  0.00     0.043 A 
ATOM     16  C   UNL d   1      -1.183   3.071  -2.253  0.00  0.00     0.005 A 
ATOM     17  C   UNL d   1       0.167   2.875  -2.534  0.00  0.00     0.025 A 
ATOM     18  C   UNL d   1       0.900   1.875  -1.872  0.00  0.00     0.052 A 
ATOM     19 CL   UNL d   1       2.582   1.813  -2.279  0.00  0.00    -0.083 Cl
ENDBRANCH   1  12
TORSDOF 1
