REMARK  3 active torsions:
REMARK  status: ('A' for Active; 'I' for Inactive)
REMARK    1  A    between atoms: N_2  and  S_1 
REMARK    2  A    between atoms: C_3  and  N_8 
REMARK    3  A    between atoms: C_4  and  C_5 
ROOT
ATOM      1  C   UNL d   1      -1.737  -2.900   2.889  0.00  0.00     0.125 A 
ATOM      2  C   UNL d   1      -3.099  -4.043   5.035  0.00  0.00     0.065 A 
ATOM      3  N   UNL d   1      -1.053  -3.233   4.012  0.00  0.00    -0.350 N 
ATOM      4  HN  UNL d   1      -0.048  -3.073   4.077  1.00  0.00     0.166 HD
ATOM      5  C   UNL d   1      -3.119  -3.166   2.793  0.00  0.00     0.078 A 
ATOM      6  C   UNL d   1      -3.799  -3.727   3.874  0.00  0.00     0.045 A 
ATOM      7  C   UNL d   1      -1.738  -3.785   5.047  0.00  0.00     0.106 A 
ATOM      8 CL   UNL d   1      -4.032  -2.910   1.340  0.00  0.00    -0.080 Cl
ENDROOT
BRANCH   1   9
ATOM      9  N   UNL d   1      -1.046  -2.335   1.822  0.00  0.00    -0.363 N 
ATOM     10  C   UNL d   1       0.405  -2.554   1.723  0.00  0.00     0.145 C 
ATOM     11  C   UNL d   1       0.828  -2.304   0.254  0.00  0.00     0.155 C 
ATOM     12  N   UNL d   1       0.377  -0.965  -0.284  0.00  0.00    -0.308 N 
ATOM     13  C   UNL d   1      -1.064  -0.685   0.043  0.00  0.00     0.155 C 
ATOM     14  C   UNL d   1      -1.386  -0.933   1.526  0.00  0.00     0.145 C 
BRANCH  12  15
ATOM     15  S   UNL d   1       1.466   0.314  -0.090  0.00  0.00     0.224 S 
ATOM     16  O   UNL d   1       2.783  -0.163  -0.443  0.00  0.00    -0.206 OA
ATOM     17  O   UNL d   1       1.209   0.924   1.196  0.00  0.00    -0.206 OA
ATOM     18  C   UNL d   1       0.940   1.441  -1.371  0.00  0.00     0.186 C 
ENDBRANCH  12  15
ENDBRANCH   1   9
BRANCH   2  19
ATOM     19  C   UNL d   1      -3.770  -4.656   6.226  0.00  0.00     0.418 C 
ATOM     20  F   UNL d   1      -5.114  -4.810   6.064  0.00  0.00    -0.166 F 
ATOM     21  F   UNL d   1      -3.286  -5.893   6.517  0.00  0.00    -0.166 F 
ATOM     22  F   UNL d   1      -3.614  -3.913   7.353  0.00  0.00    -0.166 F 
ENDBRANCH   2  19
TORSDOF 3
