REMARK  11 active torsions:
REMARK  status: ('A' for Active; 'I' for Inactive)
REMARK    1  A    between atoms: N_15  and  C_3 
REMARK    2  A    between atoms: C_10  and  C_4 
REMARK    3  A    between atoms: C_11  and  C_5 
REMARK    4  A    between atoms: C_13  and  C_8 
REMARK    5  A    between atoms: O_21  and  C_10 
REMARK    6  A    between atoms: O_22  and  C_11 
REMARK    7  A    between atoms: C_18  and  C_12 
REMARK    8  A    between atoms: C_36  and  O_21 
REMARK    9  A    between atoms: C_35  and  O_22 
REMARK   10  A    between atoms: S_25  and  C_23 
REMARK   11  A    between atoms: S_26  and  C_24 
ROOT
ATOM      1  N   UNL d   1       0.055  -0.777  -0.004  0.00  0.00    -0.260 N 
ATOM      2  C   UNL d   1       0.340   0.578  -0.033  0.00  0.00     0.099 A 
ATOM      3  C   UNL d   1      -1.263  -1.233  -0.069  0.00  0.00     0.101 A 
ATOM      4  C   UNL d   1      -0.611   1.531  -0.030  0.00  0.00     0.065 A 
ATOM      5  C   UNL d   1      -2.284  -0.345  -0.002  0.00  0.00     0.069 A 
ATOM      6  C   UNL d   1       1.149  -1.640   0.057  0.00  0.00     0.271 A 
ATOM      7  S   UNL d   1       2.062   0.846  -0.096  0.00  0.00    -0.066 SA
ATOM      8  C   UNL d   1      -2.079   1.147   0.070  0.00  0.00     0.103 A 
ATOM      9  C   UNL d   1       2.405  -0.843  -0.006  0.00  0.00     0.076 A 
ATOM     10  C   UNL d   1       3.654  -1.333  -0.035  0.00  0.00     0.036 C 
ATOM     11  O   UNL d   1       1.103  -2.858   0.182  0.00  0.00    -0.266 OA
ENDROOT
BRANCH  10  12
ATOM     12  C   UNL d   1       3.960  -2.762  -0.107  0.00  0.00    -0.035 A 
ATOM     13  C   UNL d   1       4.067  -3.366  -1.363  0.00  0.00     0.013 A 
ATOM     14  C   UNL d   1       4.255  -4.746  -1.470  0.00  0.00     0.019 A 
ATOM     15  C   UNL d   1       4.330  -5.544  -0.326  0.00  0.00    -0.000 A 
ATOM     16  C   UNL d   1       4.250  -4.929   0.931  0.00  0.00     0.019 A 
ATOM     17  C   UNL d   1       4.065  -3.546   1.044  0.00  0.00     0.013 A 
BRANCH  15  18
ATOM     18  S   UNL d   1       4.565  -7.315  -0.381  0.00  0.00    -0.134 SA
ATOM     19  C   UNL d   1       3.665  -7.770  -1.890  0.00  0.00     0.095 C 
ENDBRANCH  15  18
ENDBRANCH  10  12
BRANCH   3  20
ATOM     20  N   UNL d   1      -1.492  -2.590  -0.234  0.00  0.00    -0.287 NA
ATOM     21  H   UNL d   1      -0.704  -3.169   0.073  0.00  0.00     0.125 HD
ATOM     22  H   UNL d   1      -2.389  -2.918   0.133  0.00  0.00     0.125 HD
ENDBRANCH   3  20
BRANCH   4  23
ATOM     23  C   UNL d   1      -0.382   2.996  -0.167  0.00  0.00     0.293 C 
ATOM     24  O   UNL d   1      -1.194   3.742  -0.698  0.00  0.00    -0.259 OA
BRANCH  23  25
ATOM     25  O   UNL d   1       0.786   3.387   0.391  0.00  0.00    -0.318 OA
BRANCH  25  26
ATOM     26  C   UNL d   1       1.133   4.778   0.293  0.00  0.00     0.174 C 
ATOM     27  C   UNL d   1       1.585   5.147  -1.110  0.00  0.00     0.034 C 
ENDBRANCH  25  26
ENDBRANCH  23  25
ENDBRANCH   4  23
BRANCH   5  28
ATOM     28  C   UNL d   1      -3.675  -0.875  -0.018  0.00  0.00     0.293 C 
ATOM     29  O   UNL d   1      -3.990  -1.971   0.420  0.00  0.00    -0.259 OA
BRANCH  28  30
ATOM     30  O   UNL d   1      -4.503  -0.010  -0.653  0.00  0.00    -0.318 OA
BRANCH  30  31
ATOM     31  C   UNL d   1      -5.767  -0.565  -1.046  0.00  0.00     0.174 C 
ATOM     32  C   UNL d   1      -5.649  -0.970  -2.503  0.00  0.00     0.034 C 
ENDBRANCH  30  31
ENDBRANCH  28  30
ENDBRANCH   5  28
BRANCH   8  33
ATOM     33  C   UNL d   1      -2.701   1.737   1.339  0.00  0.00    -0.044 A 
ATOM     34  C   UNL d   1      -2.295   1.320   2.615  0.00  0.00     0.009 A 
ATOM     35  C   UNL d   1      -2.808   1.936   3.761  0.00  0.00     0.019 A 
ATOM     36  C   UNL d   1      -3.742   2.971   3.659  0.00  0.00    -0.000 A 
ATOM     37  C   UNL d   1      -4.162   3.373   2.387  0.00  0.00     0.019 A 
ATOM     38  C   UNL d   1      -3.652   2.761   1.238  0.00  0.00     0.009 A 
BRANCH  36  39
ATOM     39  S   UNL d   1      -4.378   3.877   5.061  0.00  0.00    -0.134 SA
ATOM     40  C   UNL d   1      -4.352   2.628   6.372  0.00  0.00     0.095 C 
ENDBRANCH  36  39
ENDBRANCH   8  33
TORSDOF 11
