REMARK  2 active torsions:
REMARK  status: ('A' for Active; 'I' for Inactive)
REMARK    1  A    between atoms: C_4  and  C_1 
REMARK    2  A    between atoms: C_6  and  C_7 
ROOT
ATOM      1  C   UNL d   1      -3.314  -1.369  -0.072  0.00  0.00     0.079 C 
ATOM      2  C   UNL d   1      -3.479  -2.710  -0.056  0.00  0.00     0.044 C 
ATOM      3  C   UNL d   1      -2.011  -0.779  -0.103  0.00  0.00     0.102 C 
ATOM      4  N   UNL d   1      -0.961  -0.282  -0.131  0.00  0.00    -0.191 NA
ENDROOT
BRANCH   1   5
ATOM      5  C   UNL d   1      -4.500  -0.546  -0.063  0.00  0.00     0.096 A 
ATOM      6  N   UNL d   1      -5.748  -0.986  -0.059  0.00  0.00    -0.348 N 
ATOM      7  C   UNL d   1      -6.659   0.058  -0.054  0.00  0.00     0.050 A 
ATOM      8  HN  UNL d   1      -6.007  -1.973  -0.059  1.00  0.00     0.166 HD
ATOM      9  C   UNL d   1      -8.064  -0.065  -0.046  0.00  0.00     0.031 A 
ATOM     10  C   UNL d   1      -6.100   1.333  -0.058  0.00  0.00     0.033 A 
ATOM     11  C   UNL d   1      -8.865   1.083  -0.040  0.00  0.00     0.002 A 
ATOM     12  C   UNL d   1      -8.283   2.347  -0.044  0.00  0.00     0.002 A 
ATOM     13  C   UNL d   1      -6.893   2.494  -0.054  0.00  0.00     0.021 A 
ATOM     14  S   UNL d   1      -4.391   1.190  -0.067  0.00  0.00    -0.069 SA
ENDBRANCH   1   5
BRANCH   2  15
ATOM     15  C   UNL d   1      -2.393  -3.632  -0.091  0.00  0.00     0.007 A 
ATOM     16  C   UNL d   1      -1.757  -4.178  -1.193  0.00  0.00     0.038 A 
ATOM     17  C   UNL d   1      -0.722  -5.071  -0.821  0.00  0.00     0.018 A 
ATOM     18 BR   UNL d   1       0.338  -5.958  -2.104  0.00  0.00    -0.051 Br
ATOM     19  C   UNL d   1      -0.588  -5.212   0.536  0.00  0.00     0.069 A 
ATOM     20  S   UNL d   1      -1.739  -4.260   1.372  0.00  0.00    -0.101 SA
ENDBRANCH   2  15
TORSDOF 2
