REMARK  3 active torsions:
REMARK  status: ('A' for Active; 'I' for Inactive)
REMARK    1  A    between atoms: C_2  and  C_1 
REMARK    2  A    between atoms: O_8  and  C_2 
REMARK    3  A    between atoms: C_10  and  O_8 
ROOT
ATOM      1  C   UNL d   1       0.084   2.389  -0.095  0.00  0.00     0.303 C 
ATOM      2  O   UNL d   1       1.154   2.975  -0.024  0.00  0.00    -0.259 OA
ENDROOT
BRANCH   1   3
ATOM      3  C   UNL d   1      -0.041   0.941  -0.141  0.00  0.00     0.095 A 
ATOM      4  C   UNL d   1      -1.208   0.199  -0.100  0.00  0.00     0.090 A 
ATOM      5  O   UNL d   1      -0.910  -1.123  -0.168  0.00  0.00    -0.242 OA
ATOM      6  C   UNL d   1      -2.646   0.517   0.020  0.00  0.00     0.080 C 
ATOM      7  N   UNL d   1       0.452  -1.288  -0.243  0.00  0.00    -0.265 N 
ATOM      8  C   UNL d   1       0.976  -0.055  -0.211  0.00  0.00     0.047 A 
ATOM      9  HN  UNL d   1       0.961  -2.170  -0.309  1.00  0.00     0.194 HD
ATOM     10  C   UNL d   1       2.452   0.087  -0.258  0.00  0.00     0.071 C 
ENDBRANCH   1   3
BRANCH   1  11
ATOM     11  O   UNL d   1      -1.170   3.018  -0.146  0.00  0.00    -0.275 OA
BRANCH  11  12
ATOM     12  C   UNL d   1      -1.475   4.385   0.068  0.00  0.00     0.079 A 
ATOM     13  C   UNL d   1      -2.745   4.782  -0.363  0.00  0.00     0.039 A 
ATOM     14  C   UNL d   1      -3.201   6.072  -0.087  0.00  0.00     0.026 A 
ATOM     15  C   UNL d   1      -2.384   6.953   0.619  0.00  0.00     0.034 A 
ATOM     16  C   UNL d   1      -1.110   6.560   1.034  0.00  0.00     0.026 A 
ATOM     17 CL   UNL d   1      -2.963   8.527   1.004  0.00  0.00    -0.084 Cl
ATOM     18  C   UNL d   1      -0.648   5.267   0.760  0.00  0.00     0.039 A 
ENDBRANCH  11  12
ENDBRANCH   1  11
TORSDOF 3
