REMARK  4 active torsions:
REMARK  status: ('A' for Active; 'I' for Inactive)
REMARK    1  A    between atoms: C_6  and  C_1 
REMARK    2  A    between atoms: C_7  and  C_2 
REMARK    3  A    between atoms: C_10  and  C_5 
REMARK       I    between atoms: N_8  and  C_6 
REMARK    4  A    between atoms: C_18  and  N_8 
ROOT
ATOM      1  N   UNL d   1       8.018   5.721  -3.049  0.00  0.00    -0.191 NA
ATOM      2  C   UNL d   1       7.090   5.200  -2.589  0.00  0.00     0.099 C 
ATOM      3  C   UNL d   1       3.678   3.196  -1.026  0.00  0.00     0.035 A 
ATOM      4  C   UNL d   1       5.940   4.545  -2.037  0.00  0.00     0.044 A 
ATOM      5  C   UNL d   1       4.962   2.669  -0.850  0.00  0.00     0.031 A 
ATOM      6  C   UNL d   1       3.542   4.418  -1.698  0.00  0.00     0.031 A 
ATOM      7  C   UNL d   1       6.086   3.336  -1.353  0.00  0.00     0.025 A 
ATOM      8  C   UNL d   1       4.665   5.091  -2.197  0.00  0.00     0.025 A 
ENDROOT
BRANCH   3   9
ATOM      9  N   UNL d   1       2.496   2.536  -0.622  0.00  0.00    -0.323 N 
ATOM     10  C   UNL d   1       2.416   1.372   0.117  0.00  0.00     0.259 C 
ATOM     11  O   UNL d   1       3.361   0.853   0.706  0.00  0.00    -0.267 OA
ATOM     12  H   UNL d   1       1.636   2.970  -0.929  0.00  0.00     0.169 HD
BRANCH  10  13
ATOM     13  C   UNL d   1       1.126   0.682   0.116  0.00  0.00     0.073 A 
ATOM     14  C   UNL d   1      -0.170   1.147  -0.059  0.00  0.00     0.175 A 
ATOM     15  O   UNL d   1      -1.047   0.090  -0.053  0.00  0.00    -0.304 OA
ATOM     16  C   UNL d   1      -0.339  -1.053   0.177  0.00  0.00     0.087 A 
ATOM     17  C   UNL d   1       0.988  -0.727   0.334  0.00  0.00     0.058 A 
BRANCH  14  18
ATOM     18  C   UNL d   1      -0.792   2.482  -0.218  0.00  0.00     0.440 C 
ATOM     19  F   UNL d   1       0.129   3.480  -0.134  0.00  0.00    -0.164 F 
ATOM     20  F   UNL d   1      -1.385   2.626  -1.430  0.00  0.00    -0.164 F 
ATOM     21  F   UNL d   1      -1.731   2.738   0.725  0.00  0.00    -0.164 F 
ENDBRANCH  14  18
BRANCH  16  22
ATOM     22  C   UNL d   1      -1.087  -2.308   0.220  0.00  0.00    -0.002 A 
ATOM     23  C   UNL d   1      -0.426  -3.514   0.511  0.00  0.00     0.016 A 
ATOM     24  C   UNL d   1      -1.127  -4.722   0.583  0.00  0.00     0.024 A 
ATOM     25  C   UNL d   1      -2.500  -4.738   0.358  0.00  0.00     0.034 A 
ATOM     26  C   UNL d   1      -3.173  -3.559   0.048  0.00  0.00     0.024 A 
ATOM     27 CL   UNL d   1      -3.368  -6.218   0.471  0.00  0.00    -0.084 Cl
ATOM     28  C   UNL d   1      -2.468  -2.351  -0.022  0.00  0.00     0.016 A 
ENDBRANCH  16  22
ENDBRANCH  10  13
ENDBRANCH   3   9
TORSDOF 4
