REMARK  6 active torsions:
REMARK  status: ('A' for Active; 'I' for Inactive)
REMARK    1  A    between atoms: C_27  and  C_2 
REMARK    2  A    between atoms: C_14  and  C_3 
REMARK    3  A    between atoms: C_13  and  C_4 
REMARK    4  A    between atoms: N_5  and  C_11 
REMARK    5  A    between atoms: N_6  and  C_12 
REMARK    6  A    between atoms: O_28  and  C_27 
ROOT
ATOM      1  N   UNL d   1      -0.098  -0.650  -0.806  0.00  0.00     0.171 N 
ATOM      2  C   UNL d   1       0.147   0.821  -0.688  0.00  0.00     0.229 C 
ATOM      3  C   UNL d   1      -1.420  -0.847  -0.189  0.00  0.00     0.398 C 
ATOM      4  C   UNL d   1       0.934  -1.251   0.072  0.00  0.00     0.398 C 
ATOM      5  O   UNL d   1      -1.657   0.211   0.735  0.00  0.00    -0.351 OA
ATOM      6  O   UNL d   1       1.556  -0.213   0.842  0.00  0.00    -0.351 OA
ATOM      7  C   UNL d   1      -0.975   1.354   0.209  0.00  0.00     0.217 C 
ATOM      8  C   UNL d   1       1.498   0.938   0.006  0.00  0.00     0.217 C 
ENDROOT
BRANCH   3   9
ATOM      9  C   UNL d   1      -2.536  -0.949  -1.237  0.00  0.00     0.001 A 
ATOM     10  C   UNL d   1      -2.503  -1.977  -2.200  0.00  0.00     0.014 A 
ATOM     11  C   UNL d   1      -3.496  -2.077  -3.181  0.00  0.00     0.037 A 
ATOM     12  C   UNL d   1      -4.543  -1.147  -3.205  0.00  0.00     0.102 A 
ATOM     13  C   UNL d   1      -4.615  -0.141  -2.238  0.00  0.00     0.037 A 
ATOM     14  C   UNL d   1      -3.623  -0.057  -1.257  0.00  0.00     0.014 A 
BRANCH  12  15
ATOM     15  N   UNL d   1      -5.573  -1.223  -4.246  0.00  0.00    -0.116 N 
ATOM     16  O   UNL d   1      -5.489  -2.151  -5.066  0.00  0.00    -0.532 OA
ATOM     17  O   UNL d   1      -6.464  -0.363  -4.250  0.00  0.00    -0.532 OA
ENDBRANCH  12  15
ENDBRANCH   3   9
BRANCH   2  18
ATOM     18  C   UNL d   1       0.215   1.555  -2.039  0.00  0.00     0.210 C 
BRANCH  18  19
ATOM     19  O   UNL d   1      -0.990   1.449  -2.785  0.00  0.00    -0.398 OA
ATOM     20  H   UNL d   1      -1.094   0.505  -3.009  0.00  0.00     0.209 HD
ENDBRANCH  18  19
ENDBRANCH   2  18
BRANCH   4  21
ATOM     21  C   UNL d   1       2.013  -2.002  -0.720  0.00  0.00     0.001 A 
ATOM     22  C   UNL d   1       3.317  -2.128  -0.199  0.00  0.00     0.014 A 
ATOM     23  C   UNL d   1       4.317  -2.806  -0.902  0.00  0.00     0.037 A 
ATOM     24  C   UNL d   1       4.014  -3.386  -2.138  0.00  0.00     0.102 A 
ATOM     25  C   UNL d   1       2.716  -3.313  -2.655  0.00  0.00     0.037 A 
ATOM     26  C   UNL d   1       1.725  -2.629  -1.944  0.00  0.00     0.014 A 
BRANCH  24  27
ATOM     27  N   UNL d   1       5.064  -4.074  -2.899  0.00  0.00    -0.116 N 
ATOM     28  O   UNL d   1       6.202  -4.107  -2.412  0.00  0.00    -0.532 OA
ATOM     29  O   UNL d   1       4.751  -4.574  -3.990  0.00  0.00    -0.532 OA
ENDBRANCH  24  27
ENDBRANCH   4  21
TORSDOF 6
