REMARK  3 active torsions:
REMARK  status: ('A' for Active; 'I' for Inactive)
REMARK    1  A    between atoms: C_10  and  C_1 
REMARK    2  A    between atoms: C_12  and  N_6 
REMARK    3  A    between atoms: C_9  and  C_12 
ROOT
ATOM      1  C   UNL d   1      -0.709   1.264   0.052  0.00  0.00     0.058 A 
ATOM      2  N   UNL d   1      -0.761  -1.209   0.200  0.00  0.00    -0.319 N 
ATOM      3  HN  UNL d   1      -1.241  -2.103   0.307  1.00  0.00     0.169 HD
ATOM      4  C   UNL d   1      -1.478  -0.031   0.089  0.00  0.00     0.258 A 
ATOM      5  C   UNL d   1       0.630   1.186   0.017  0.00  0.00     0.110 A 
ATOM      6  N   UNL d   1       1.297  -0.022   0.038  0.00  0.00    -0.347 N 
ATOM      7  C   UNL d   1       0.528  -1.153   0.164  0.00  0.00     0.185 A 
ATOM      8  O   UNL d   1      -2.703  -0.017   0.029  0.00  0.00    -0.267 OA
ENDROOT
BRANCH   1   9
ATOM      9  C   UNL d   1      -1.374   2.570   0.035  0.00  0.00    -0.019 A 
ATOM     10  C   UNL d   1      -1.723   3.171  -1.180  0.00  0.00     0.012 A 
ATOM     11  C   UNL d   1      -2.320   4.433  -1.194  0.00  0.00     0.001 A 
ATOM     12  C   UNL d   1      -2.571   5.101   0.004  0.00  0.00     0.000 A 
ATOM     13  C   UNL d   1      -2.229   4.507   1.218  0.00  0.00     0.001 A 
ATOM     14  C   UNL d   1      -1.631   3.245   1.236  0.00  0.00     0.012 A 
ENDBRANCH   1   9
BRANCH   6  15
ATOM     15  C   UNL d   1       2.762  -0.112   0.015  0.00  0.00     0.175 C 
BRANCH  15  16
ATOM     16  C   UNL d   1       3.453  -0.001   1.349  0.00  0.00     0.001 A 
ATOM     17  S   UNL d   1       5.169  -0.047   1.404  0.00  0.00    -0.105 SA
ATOM     18  C   UNL d   1       5.186   0.153   3.100  0.00  0.00     0.050 A 
ATOM     19  C   UNL d   1       3.917   0.241   3.623  0.00  0.00     0.008 A 
ATOM     20  C   UNL d   1       2.915   0.144   2.614  0.00  0.00     0.017 A 
ENDBRANCH  15  16
ENDBRANCH   6  15
TORSDOF 3
