REMARK  4 active torsions:
REMARK  status: ('A' for Active; 'I' for Inactive)
REMARK    1  A    between atoms: N_3  and  C_1 
REMARK       I    between atoms: C_2  and  N_3 
REMARK    2  A    between atoms: C_12  and  C_2 
REMARK    3  A    between atoms: N_9  and  C_12 
REMARK    4  A    between atoms: C_11  and  N_9 
ROOT
ATOM      1  C   UNL d   1      -1.393  -4.253  -0.122  0.00  0.00     0.250 C 
ATOM      2  N   UNL d   1      -2.050  -3.691   0.960  0.00  0.00    -0.326 N 
ATOM      3  O   UNL d   1      -0.931  -3.647  -1.087  0.00  0.00    -0.271 OA
ATOM      4  H   UNL d   1      -2.294  -4.337   1.704  0.00  0.00     0.169 HD
ENDROOT
BRANCH   2   5
ATOM      5  C   UNL d   1      -2.346  -2.325   1.143  0.00  0.00     0.037 A 
ATOM      6  C   UNL d   1      -2.285  -1.385   0.110  0.00  0.00     0.053 A 
ATOM      7  C   UNL d   1      -2.574  -0.043   0.361  0.00  0.00     0.037 A 
ATOM      8 CL   UNL d   1      -2.511   1.097  -0.928  0.00  0.00    -0.084 Cl
ATOM      9  C   UNL d   1      -2.915   0.384   1.639  0.00  0.00     0.048 A 
ATOM     10  C   UNL d   1      -2.986  -0.553   2.665  0.00  0.00     0.037 A 
ATOM     11  C   UNL d   1      -2.721  -1.903   2.423  0.00  0.00     0.053 A 
ATOM     12 CL   UNL d   1      -3.391  -0.037   4.257  0.00  0.00    -0.084 Cl
ENDBRANCH   2   5
BRANCH   1  13
ATOM     13  C   UNL d   1      -1.220  -5.769   0.002  0.00  0.00     0.373 C 
BRANCH  13  14
ATOM     14  N   UNL d   1      -2.543  -6.411   0.085  0.00  0.00     0.100 N 
ATOM     15  H   UNL d   1      -3.084  -6.103  -0.728  0.00  0.00     0.317 HD
BRANCH  14  16
ATOM     16  C   UNL d   1      -2.514  -7.889   0.090  0.00  0.00     0.147 C 
ATOM     17  C   UNL d   1      -1.854  -8.424   1.371  0.00  0.00     0.048 C 
ATOM     18  C   UNL d   1      -3.983  -8.354   0.067  0.00  0.00     0.048 C 
ATOM     19  C   UNL d   1      -1.808  -8.473  -1.147  0.00  0.00     0.048 C 
ENDBRANCH  14  16
ENDBRANCH  13  14
ENDBRANCH   1  13
TORSDOF 4
