REMARK  3 active torsions:
REMARK  status: ('A' for Active; 'I' for Inactive)
REMARK    1  A    between atoms: C_7  and  N_1 
REMARK    2  A    between atoms: C_6  and  C_2 
REMARK    3  A    between atoms: N_10  and  C_6 
ROOT
ATOM      1  N   UNL d   1      -0.244  -1.361   0.039  0.00  0.00    -0.238 N 
ATOM      2  C   UNL d   1       0.805   0.768   0.048  0.00  0.00     0.093 A 
ATOM      3  C   UNL d   1      -1.335  -0.529  -0.126  0.00  0.00     0.298 A 
ATOM      4  C   UNL d   1       0.982  -0.711   0.148  0.00  0.00     0.274 A 
ATOM      5  S   UNL d   1      -0.836   1.150  -0.223  0.00  0.00    -0.022 SA
ATOM      6  O   UNL d   1      -2.524  -0.804  -0.159  0.00  0.00    -0.259 OA
ATOM      7  O   UNL d   1       2.095  -1.210   0.264  0.00  0.00    -0.266 OA
ENDROOT
BRANCH   1   8
ATOM      8  C   UNL d   1      -0.378  -2.791   0.111  0.00  0.00     0.046 A 
ATOM      9  C   UNL d   1      -1.499  -3.449  -0.428  0.00  0.00     0.030 A 
ATOM     10  C   UNL d   1      -1.641  -4.840  -0.362  0.00  0.00     0.002 A 
ATOM     11  C   UNL d   1      -0.663  -5.612   0.250  0.00  0.00     0.000 A 
ATOM     12  C   UNL d   1       0.456  -4.992   0.791  0.00  0.00     0.002 A 
ATOM     13  C   UNL d   1       0.597  -3.600   0.720  0.00  0.00     0.030 A 
ENDBRANCH   1   8
BRANCH   2  14
ATOM     14  C   UNL d   1       1.852   1.607   0.092  0.00  0.00     0.109 C 
BRANCH  14  15
ATOM     15  N   UNL d   1       1.977   2.993   0.016  0.00  0.00    -0.397 N 
ATOM     16  C   UNL d   1       0.965   3.951   0.461  0.00  0.00     0.148 C 
ATOM     17  C   UNL d   1       3.256   3.618  -0.335  0.00  0.00     0.148 C 
ENDBRANCH  14  15
ENDBRANCH   2  14
TORSDOF 3
