REMARK  6 active torsions:
REMARK  status: ('A' for Active; 'I' for Inactive)
REMARK    1  A    between atoms: C_3  and  C_1 
REMARK       I    between atoms: C_2  and  N_6 
REMARK       I    between atoms: N_7  and  C_2 
REMARK    2  A    between atoms: C_4  and  O_11 
REMARK    3  A    between atoms: N_6  and  C_5 
REMARK    4  A    between atoms: C_20  and  N_7 
REMARK    5  A    between atoms: O_11  and  C_21 
REMARK    6  A    between atoms: O_26  and  C_13 
ROOT
ATOM      1  C   UNL d   1       0.658  -4.261   1.985  0.00  0.00     0.325 C 
ATOM      2  N   UNL d   1       0.302  -3.499   3.068  0.00  0.00    -0.309 N 
ATOM      3  N   UNL d   1       0.577  -5.623   2.168  0.00  0.00    -0.309 N 
ATOM      4  O   UNL d   1       0.935  -3.834   0.864  0.00  0.00    -0.247 OA
ATOM      5  H   UNL d   1      -0.119  -4.016   3.826  0.00  0.00     0.170 HD
ATOM      6  H   UNL d   1       0.475  -6.115   1.287  0.00  0.00     0.170 HD
ENDROOT
BRANCH   2   7
ATOM      7  C   UNL d   1       0.249  -2.099   3.184  0.00  0.00     0.039 A 
ATOM      8  C   UNL d   1       0.692  -1.220   2.192  0.00  0.00     0.046 A 
ATOM      9  C   UNL d   1       0.618   0.171   2.384  0.00  0.00     0.052 A 
ATOM     10  C   UNL d   1       0.057   0.670   3.566  0.00  0.00     0.053 A 
ATOM     11  C   UNL d   1      -0.350  -0.201   4.571  0.00  0.00     0.071 A 
ATOM     12  C   UNL d   1      -0.265  -1.580   4.380  0.00  0.00     0.066 A 
BRANCH   9  13
ATOM     13  C   UNL d   1       1.192   1.133   1.378  0.00  0.00     0.417 C 
ATOM     14  F   UNL d   1       1.701   0.540   0.266  0.00  0.00    -0.166 F 
ATOM     15  F   UNL d   1       2.217   1.863   1.910  0.00  0.00    -0.166 F 
ATOM     16  F   UNL d   1       0.282   2.046   0.937  0.00  0.00    -0.166 F 
ENDBRANCH   9  13
BRANCH  11  17
ATOM     17  O   UNL d   1      -0.863   0.370   5.699  0.00  0.00    -0.356 OA
ATOM     18  C   UNL d   1      -0.226  -0.077   6.895  0.00  0.00     0.210 C 
ENDBRANCH  11  17
ENDBRANCH   2   7
BRANCH   3  19
ATOM     19  C   UNL d   1       0.464  -6.364   3.355  0.00  0.00     0.036 A 
ATOM     20  C   UNL d   1      -0.292  -7.536   3.326  0.00  0.00     0.032 A 
ATOM     21  C   UNL d   1      -0.521  -8.254   4.504  0.00  0.00     0.039 A 
ATOM     22  C   UNL d   1       0.034  -7.820   5.708  0.00  0.00     0.078 A 
ATOM     23  C   UNL d   1       0.880  -6.712   5.718  0.00  0.00     0.039 A 
ATOM     24  C   UNL d   1       1.091  -5.982   4.545  0.00  0.00     0.032 A 
BRANCH  22  25
ATOM     25  O   UNL d   1      -0.116  -8.498   6.884  0.00  0.00    -0.255 OA
BRANCH  25  26
ATOM     26  C   UNL d   1      -1.471  -8.653   7.292  0.00  0.00     0.530 C 
ATOM     27  F   UNL d   1      -2.164  -9.438   6.441  0.00  0.00    -0.144 F 
ATOM     28  F   UNL d   1      -1.488  -9.244   8.507  0.00  0.00    -0.144 F 
ATOM     29  F   UNL d   1      -2.086  -7.455   7.399  0.00  0.00    -0.144 F 
ENDBRANCH  25  26
ENDBRANCH  22  25
ENDBRANCH   3  19
TORSDOF 6
