REMARK  2 active torsions:
REMARK  status: ('A' for Active; 'I' for Inactive)
REMARK       I    between atoms: N_2  and  C_1 
REMARK    1  A    between atoms: C_7  and  N_2 
REMARK    2  A    between atoms: C_8  and  C_3 
ROOT
ATOM      1  C   UNL d   1       2.137  -1.159  -4.806  0.00  0.00    -0.054 A 
ATOM      2  C   UNL d   1       2.457  -1.697  -3.554  0.00  0.00     0.010 A 
ATOM      3  C   UNL d   1       1.049  -0.273  -4.863  0.00  0.00     0.010 A 
ATOM      4  C   UNL d   1       0.735  -0.372  -2.461  0.00  0.00     0.034 A 
ATOM      5  C   UNL d   1       0.361   0.120  -3.708  0.00  0.00     0.030 A 
ATOM      6  C   UNL d   1       1.783  -1.292  -2.394  0.00  0.00     0.030 A 
ENDROOT
BRANCH   1   7
ATOM      7  C   UNL d   1       2.890  -1.504  -6.093  0.00  0.00     0.018 C 
ATOM      8  C   UNL d   1       4.099  -2.455  -5.948  0.00  0.00     0.009 C 
ATOM      9  C   UNL d   1       5.318  -1.801  -5.289  0.00  0.00     0.001 C 
ATOM     10  C   UNL d   1       5.713  -0.485  -5.950  0.00  0.00     0.000 C 
ATOM     11  C   UNL d   1       4.529   0.453  -6.160  0.00  0.00     0.001 C 
ATOM     12  C   UNL d   1       3.367  -0.250  -6.861  0.00  0.00     0.009 C 
ENDBRANCH   1   7
BRANCH   4  13
ATOM     13  N   UNL d   1       0.137   0.024  -1.248  0.00  0.00    -0.328 N 
ATOM     14  C   UNL d   1      -1.003   0.789  -1.096  0.00  0.00     0.218 C 
ATOM     15  O   UNL d   1      -1.772   1.145  -1.985  0.00  0.00    -0.274 OA
ATOM     16  C   UNL d   1      -1.281   1.160   0.338  0.00  0.00     0.117 C 
ATOM     17  H   UNL d   1       0.577  -0.319  -0.404  0.00  0.00     0.169 HD
ENDBRANCH   4  13
TORSDOF 2
