REMARK  2 active torsions:
REMARK  status: ('A' for Active; 'I' for Inactive)
REMARK    1  A    between atoms: C_4  and  C_1 
REMARK       I    between atoms: N_7  and  C_4 
REMARK    2  A    between atoms: C_8  and  N_7 
ROOT
ATOM      1  C   UNL d   1       3.913  -0.089  -0.036  0.00  0.00     0.265 C 
ATOM      2  N   UNL d   1       4.515  -1.333  -0.132  0.00  0.00    -0.308 N 
ATOM      3  O   UNL d   1       4.533   0.971  -0.001  0.00  0.00    -0.267 OA
ATOM      4  H   UNL d   1       3.906  -2.136  -0.167  0.00  0.00     0.170 HD
ENDROOT
BRANCH   1   5
ATOM      5  C   UNL d   1       2.447  -0.115   0.022  0.00  0.00     0.096 A 
ATOM      6  S   UNL d   1       1.576  -1.592  -0.018  0.00  0.00    -0.082 SA
ATOM      7  C   UNL d   1       0.053  -0.815   0.145  0.00  0.00     0.017 A 
ATOM      8  C   UNL d   1      -1.212  -1.434   0.206  0.00  0.00     0.020 A 
ATOM      9  C   UNL d   1       0.195   0.571   0.221  0.00  0.00     0.004 A 
ATOM     10  C   UNL d   1      -2.349  -0.640   0.374  0.00  0.00     0.001 A 
ATOM     11  C   UNL d   1      -2.237   0.739   0.472  0.00  0.00     0.001 A 
ATOM     12  C   UNL d   1      -0.983   1.348   0.388  0.00  0.00     0.014 A 
ATOM     13  C   UNL d   1       1.578   0.959   0.107  0.00  0.00     0.068 A 
ATOM     14 CL   UNL d   1       2.026   2.623   0.105  0.00  0.00    -0.082 Cl
ENDBRANCH   1   5
BRANCH   2  15
ATOM     15  C   UNL d   1       5.894  -1.561  -0.227  0.00  0.00     0.107 A 
ATOM     16  N   UNL d   1       6.765  -0.539  -0.171  0.00  0.00    -0.351 N 
ATOM     17  C   UNL d   1       8.083  -0.807  -0.313  0.00  0.00     0.108 A 
ATOM     18  HN  UNL d   1       6.439   0.416  -0.025  1.00  0.00     0.166 HD
ATOM     19  C   UNL d   1       8.585  -2.078  -0.515  0.00  0.00     0.026 A 
ATOM     20  C   UNL d   1       7.687  -3.135  -0.553  0.00  0.00     0.024 A 
ATOM     21 BR   UNL d   1      10.431  -2.367  -0.746  0.00  0.00    -0.050 Br
ATOM     22  C   UNL d   1       6.322  -2.876  -0.401  0.00  0.00     0.050 A 
ENDBRANCH   2  15
TORSDOF 2
