REMARK  5 active torsions:
REMARK  status: ('A' for Active; 'I' for Inactive)
REMARK    1  A    between atoms: O_5  and  N_1 
REMARK    2  A    between atoms: C_3  and  O_5 
REMARK    3  A    between atoms: C_7  and  C_3 
REMARK    4  A    between atoms: C_4  and  C_6 
REMARK    5  A    between atoms: O_16  and  C_8 
ROOT
ATOM      1  N   UNL d   1       0.980   0.110   0.122  0.00  0.00    -0.261 N 
ATOM      2  HN  UNL d   1       0.501   0.419   0.968  1.00  0.00     0.194 HD
ATOM      3  C   UNL d   1       2.274   0.069  -0.001  0.00  0.00     0.042 C 
ATOM      4  C   UNL d   1       2.974  -0.552  -1.189  0.00  0.00     0.071 C 
ENDROOT
BRANCH   1   5
ATOM      5  O   UNL d   1       0.316  -0.320  -1.039  0.00  0.00    -0.195 OA
BRANCH   5   6
ATOM      6  C   UNL d   1      -1.017  -0.421  -0.763  0.00  0.00     0.315 C 
ATOM      7  O   UNL d   1      -1.516  -0.787   0.292  0.00  0.00    -0.257 OA
BRANCH   6   8
ATOM      8  C   UNL d   1      -1.817   0.071  -1.917  0.00  0.00     0.041 A 
ATOM      9  C   UNL d   1      -3.216   0.036  -1.810  0.00  0.00     0.019 A 
ATOM     10  C   UNL d   1      -4.016   0.590  -2.813  0.00  0.00     0.025 A 
ATOM     11  C   UNL d   1      -3.421   1.180  -3.926  0.00  0.00     0.034 A 
ATOM     12  C   UNL d   1      -2.033   1.208  -4.052  0.00  0.00     0.025 A 
ATOM     13 CL   UNL d   1      -4.403   1.898  -5.142  0.00  0.00    -0.084 Cl
ATOM     14  C   UNL d   1      -1.230   0.653  -3.051  0.00  0.00     0.019 A 
ENDBRANCH   6   8
ENDBRANCH   5   6
ENDBRANCH   1   5
BRANCH   3  15
ATOM     15  C   UNL d   1       3.086   0.687   1.089  0.00  0.00     0.021 A 
ATOM     16  C   UNL d   1       2.582   0.773   2.396  0.00  0.00     0.077 A 
ATOM     17  C   UNL d   1       3.315   1.401   3.399  0.00  0.00     0.037 A 
ATOM     18  C   UNL d   1       4.552   1.974   3.104  0.00  0.00     0.003 A 
ATOM     19  C   UNL d   1       5.055   1.912   1.806  0.00  0.00     0.001 A 
ATOM     20  C   UNL d   1       4.327   1.273   0.799  0.00  0.00     0.016 A 
BRANCH  16  21
ATOM     21  O   UNL d   1       1.363   0.271   2.769  0.00  0.00    -0.360 OA
ATOM     22  H   UNL d   1       0.856   0.055   1.954  0.00  0.00     0.217 HD
ENDBRANCH  16  21
ENDBRANCH   3  15
TORSDOF 5
