REMARK  3 active torsions:
REMARK  status: ('A' for Active; 'I' for Inactive)
REMARK    1  A    between atoms: C_9  and  N_6 
REMARK    2  A    between atoms: C_10  and  C_9 
REMARK       I    between atoms: N_13  and  C_10 
REMARK       I    between atoms: C_11  and  N_12 
REMARK       I    between atoms: N_16  and  C_11 
REMARK    3  A    between atoms: N_12  and  N_13 
ROOT
ATOM      1  C   UNL d   1      -0.555  -1.137   0.437  0.00  0.00     0.709 A 
ATOM      2  N   UNL d   1       0.652  -0.705   0.814  0.00  0.00    -0.115 N 
ATOM      3  HN  UNL d   1       1.293  -1.089   1.508  1.00  0.00     0.207 HD
ATOM      4  N   UNL d   1      -1.139  -0.312  -0.490  0.00  0.00    -0.113 N 
ATOM      5  HN  UNL d   1      -2.062  -0.428  -0.911  1.00  0.00     0.203 HD
ATOM      6  N   UNL d   1       0.789   0.373   0.027  0.00  0.00    -0.194 N 
ATOM      7  N   UNL d   1      -0.277   0.666  -0.737  0.00  0.00     0.011 NA
ATOM      8  N   UNL d   1      -1.164  -2.240   0.899  0.00  0.00    -0.215 N 
ATOM      9  C   UNL d   1      -2.356  -2.803   0.302  0.00  0.00     0.141 C 
ATOM     10  C   UNL d   1      -0.509  -3.166   1.808  0.00  0.00     0.141 C 
ATOM     11  C   UNL d   1      -1.436  -4.382   1.843  0.00  0.00     0.022 C 
ATOM     12  C   UNL d   1      -2.768  -3.858   1.323  0.00  0.00     0.022 C 
ENDROOT
BRANCH   6  13
ATOM     13  C   UNL d   1       1.984   1.186  -0.013  0.00  0.00     0.272 C 
BRANCH  13  14
ATOM     14  C   UNL d   1       3.239   0.593   0.593  0.00  0.00     0.257 C 
ATOM     15  N   UNL d   1       3.107  -0.331   1.607  0.00  0.00    -0.265 N 
ATOM     16  H   UNL d   1       2.246  -0.895   1.676  0.00  0.00     0.190 HD
ATOM     17  O   UNL d   1       4.355   1.004   0.253  0.00  0.00    -0.270 OA
BRANCH  15  18
ATOM     18  N   UNL d   1       4.277  -0.942   2.097  0.00  0.00    -0.249 N 
ATOM     19  C   UNL d   1       4.211  -2.285   2.421  0.00  0.00     0.334 C 
ATOM     20  O   UNL d   1       3.175  -2.939   2.405  0.00  0.00    -0.246 OA
ATOM     21  N   UNL d   1       5.441  -2.776   2.784  0.00  0.00    -0.346 N 
ATOM     22  C   UNL d   1       5.627  -4.124   3.257  0.00  0.00     0.151 C 
ATOM     23  H   UNL d   1       6.157  -2.098   3.002  0.00  0.00     0.163 HD
ATOM     24  H   UNL d   1       5.135  -0.601   1.668  0.00  0.00     0.192 HD
ENDBRANCH  15  18
ENDBRANCH  13  14
ENDBRANCH   6  13
TORSDOF 3
