REMARK  5 active torsions:
REMARK  status: ('A' for Active; 'I' for Inactive)
REMARK    1  A    between atoms: C_9  and  C_6 
REMARK    2  A    between atoms: C_8  and  C_7 
REMARK    3  A    between atoms: O_11  and  C_10 
REMARK    4  A    between atoms: C_12  and  O_11 
REMARK    5  A    between atoms: C_16  and  C_13 
ROOT
ATOM      1  C   UNL d   1       0.330  -0.668   0.521  0.00  0.00     0.111 A 
ATOM      2  N   UNL d   1       1.524   0.007   0.562  0.00  0.00    -0.332 N 
ATOM      3  HN  UNL d   1       2.461  -0.366   0.712  1.00  0.00     0.168 HD
ATOM      4  C   UNL d   1      -0.796   0.296   0.375  0.00  0.00     0.316 A 
ATOM      5  O   UNL d   1      -0.154   1.492   0.253  0.00  0.00    -0.256 OA
ATOM      6  C   UNL d   1       1.167   1.232   0.364  0.00  0.00     0.152 A 
ATOM      7  C   UNL d   1       0.249  -2.005   0.501  0.00  0.00     0.050 C 
ATOM      8  O   UNL d   1      -1.995   0.115   0.376  0.00  0.00    -0.257 OA
ENDROOT
BRANCH   7   9
ATOM      9  C   UNL d   1      -0.958  -2.781   0.192  0.00  0.00     0.000 A 
ATOM     10  C   UNL d   1      -1.827  -3.301   1.163  0.00  0.00     0.089 A 
ATOM     11  C   UNL d   1      -2.903  -4.111   0.779  0.00  0.00     0.038 A 
ATOM     12  C   UNL d   1      -3.152  -4.356  -0.572  0.00  0.00     0.003 A 
ATOM     13  C   UNL d   1      -2.314  -3.815  -1.544  0.00  0.00     0.001 A 
ATOM     14  C   UNL d   1      -1.219  -3.040  -1.163  0.00  0.00     0.014 A 
BRANCH  10  15
ATOM     15  O   UNL d   1      -1.532  -3.062   2.523  0.00  0.00    -0.278 OA
BRANCH  15  16
ATOM     16  C   UNL d   1      -2.555  -2.933   3.465  0.00  0.00     0.260 C 
ATOM     17  O   UNL d   1      -3.760  -2.929   3.255  0.00  0.00    -0.265 OA
ATOM     18  C   UNL d   1      -1.952  -2.778   4.829  0.00  0.00     0.126 C 
ENDBRANCH  15  16
ENDBRANCH  10  15
ENDBRANCH   7   9
BRANCH   6  19
ATOM     19  C   UNL d   1       2.063   2.385   0.228  0.00  0.00     0.057 C 
ATOM     20  C   UNL d   1       1.627   3.632  -0.006  0.00  0.00     0.015 C 
BRANCH  20  21
ATOM     21  C   UNL d   1       2.511   4.800  -0.155  0.00  0.00    -0.036 A 
ATOM     22  C   UNL d   1       3.799   4.712  -0.702  0.00  0.00     0.011 A 
ATOM     23  C   UNL d   1       4.597   5.851  -0.835  0.00  0.00     0.001 A 
ATOM     24  C   UNL d   1       4.112   7.095  -0.437  0.00  0.00     0.000 A 
ATOM     25  C   UNL d   1       2.825   7.201   0.085  0.00  0.00     0.001 A 
ATOM     26  C   UNL d   1       2.027   6.061   0.220  0.00  0.00     0.011 A 
ENDBRANCH  20  21
ENDBRANCH   6  19
TORSDOF 5
