REMARK  3 active torsions:
REMARK  status: ('A' for Active; 'I' for Inactive)
REMARK    1  A    between atoms: C_7  and  S_2 
REMARK    2  A    between atoms: C_9  and  C_8 
REMARK    3  A    between atoms: O_14  and  C_9 
ROOT
ATOM      1  S   UNL d   1      -2.202   2.622  -2.441  0.00  0.00     0.269 S 
ATOM      2  S   UNL d   1      -1.885   1.131  -0.082  0.00  0.00    -0.045 SA
ATOM      3  N   UNL d   1      -1.286   2.301  -1.020  0.00  0.00    -0.255 N 
ATOM      4  HN  UNL d   1      -0.433   2.810  -0.788  1.00  0.00     0.187 HD
ATOM      5  C   UNL d   1      -3.725   2.033  -1.846  0.00  0.00     0.098 A 
ATOM      6  C   UNL d   1      -3.566   1.339  -0.661  0.00  0.00     0.038 A 
ATOM      7  O   UNL d   1      -2.331   4.057  -2.604  0.00  0.00    -0.200 OA
ATOM      8  O   UNL d   1      -1.784   1.748  -3.514  0.00  0.00    -0.200 OA
ATOM      9  C   UNL d   1      -4.960   2.284  -2.421  0.00  0.00     0.027 A 
ATOM     10  C   UNL d   1      -4.686   0.812  -0.029  0.00  0.00     0.021 A 
ATOM     11  C   UNL d   1      -6.086   1.768  -1.779  0.00  0.00     0.002 A 
ATOM     12  C   UNL d   1      -5.948   1.034  -0.592  0.00  0.00     0.001 A 
ENDROOT
BRANCH   2  13
ATOM     13  C   UNL d   1      -2.049   2.176   1.409  0.00  0.00     0.031 A 
ATOM     14  C   UNL d   1      -1.808   1.654   2.698  0.00  0.00     0.057 A 
ATOM     15  C   UNL d   1      -2.046   2.456   3.833  0.00  0.00     0.019 A 
ATOM     16  C   UNL d   1      -2.495   3.769   3.707  0.00  0.00     0.001 A 
ATOM     17  C   UNL d   1      -2.708   4.300   2.443  0.00  0.00     0.001 A 
ATOM     18  C   UNL d   1      -2.488   3.515   1.309  0.00  0.00     0.021 A 
BRANCH  14  19
ATOM     19  C   UNL d   1      -1.351   0.273   3.007  0.00  0.00     0.294 C 
ATOM     20  O   UNL d   1      -1.706  -0.321   4.016  0.00  0.00    -0.259 OA
BRANCH  19  21
ATOM     21  O   UNL d   1      -0.438  -0.170   2.113  0.00  0.00    -0.322 OA
ATOM     22  C   UNL d   1       0.105  -1.464   2.394  0.00  0.00     0.213 C 
ENDBRANCH  19  21
ENDBRANCH  14  19
ENDBRANCH   2  13
TORSDOF 3
