REMARK  9 active torsions:
REMARK  status: ('A' for Active; 'I' for Inactive)
REMARK    1  A    between atoms: C_3  and  N_1 
REMARK    2  A    between atoms: N_4  and  C_2 
REMARK    3  A    between atoms: C_6  and  N_4 
REMARK    4  A    between atoms: C_20  and  N_5 
REMARK    5  A    between atoms: O_19  and  C_10 
REMARK    6  A    between atoms: N_11  and  C_23 
REMARK    7  A    between atoms: C_27  and  C_20 
REMARK    8  A    between atoms: C_23  and  C_28 
REMARK    9  A    between atoms: C_28  and  C_27 
ROOT
ATOM      1  C   UNL d   1       2.279  -1.006  -2.518  0.00  0.00     0.032 C 
ENDROOT
BRANCH   1   2
ATOM      2  C   UNL d   1       1.525   0.173  -1.885  0.00  0.00     0.272 C 
BRANCH   2   3
ATOM      3  N   UNL d   1       1.510   0.114  -0.418  0.00  0.00     0.091 N 
ATOM      4  C   UNL d   1       0.863   1.324   0.165  0.00  0.00     0.292 C 
ATOM      5  C   UNL d   1      -0.688   1.351   0.109  0.00  0.00     0.153 C 
ATOM      6  N   UNL d   1      -1.219   0.103   0.686  0.00  0.00    -0.375 N 
ATOM      7  C   UNL d   1      -0.693  -1.102   0.035  0.00  0.00     0.153 C 
ATOM      8  C   UNL d   1       0.848  -1.087   0.142  0.00  0.00     0.292 C 
BRANCH   6   9
ATOM      9  C   UNL d   1      -2.479   0.115   1.279  0.00  0.00     0.064 A 
ATOM     10  C   UNL d   1      -2.792   0.980   2.362  0.00  0.00     0.094 A 
ATOM     11  C   UNL d   1      -4.066   0.953   2.953  0.00  0.00     0.039 A 
ATOM     12  C   UNL d   1      -5.028   0.043   2.523  0.00  0.00     0.003 A 
ATOM     13  C   UNL d   1      -4.731  -0.836   1.492  0.00  0.00     0.002 A 
ATOM     14  C   UNL d   1      -3.476  -0.793   0.877  0.00  0.00     0.032 A 
BRANCH  10  15
ATOM     15  O   UNL d   1      -1.794   1.818   2.812  0.00  0.00    -0.354 OA
ATOM     16  C   UNL d   1      -1.877   2.229   4.171  0.00  0.00     0.210 C 
ENDBRANCH  10  15
ENDBRANCH   6   9
ENDBRANCH   2   3
ENDBRANCH   1   2
BRANCH   1  17
ATOM     17  C   UNL d   1       2.484  -0.881  -4.032  0.00  0.00     0.021 C 
BRANCH  17  18
ATOM     18  C   UNL d   1       3.189   0.387  -4.507  0.00  0.00     0.122 C 
BRANCH  18  19
ATOM     19  N   UNL d   1       4.432   0.648  -3.799  0.00  0.00    -0.367 N 
ATOM     20  C   UNL d   1       5.242   1.732  -3.979  0.00  0.00     0.172 C 
ATOM     21  S   UNL d   1       5.068   2.875  -5.189  0.00  0.00    -0.041 SA
ATOM     22  H   UNL d   1       4.892  -0.147  -3.371  0.00  0.00     0.161 HD
BRANCH  20  23
ATOM     23  N   UNL d   1       6.314   1.856  -3.142  0.00  0.00    -0.333 N 
ATOM     24  H   UNL d   1       6.998   2.525  -3.477  0.00  0.00     0.168 HD
BRANCH  23  25
ATOM     25  C   UNL d   1       6.609   1.242  -1.908  0.00  0.00     0.035 A 
ATOM     26  C   UNL d   1       7.943   1.261  -1.490  0.00  0.00     0.036 A 
ATOM     27  C   UNL d   1       8.338   0.602  -0.318  0.00  0.00    -0.059 A 
ATOM     28  C   UNL d   1       9.782   0.558   0.089  0.00  0.00     0.048 C 
ATOM     29  C   UNL d   1       7.369  -0.019   0.476  0.00  0.00     0.013 A 
ATOM     30  C   UNL d   1       6.018   0.020   0.115  0.00  0.00    -0.059 A 
ATOM     31  C   UNL d   1       5.647   0.656  -1.078  0.00  0.00     0.036 A 
ATOM     32  C   UNL d   1       4.991  -0.618   1.003  0.00  0.00     0.048 C 
ENDBRANCH  23  25
ENDBRANCH  20  23
ENDBRANCH  18  19
ENDBRANCH  17  18
ENDBRANCH   1  17
TORSDOF 9
