REMARK  5 active torsions:
REMARK  status: ('A' for Active; 'I' for Inactive)
REMARK    1  A    between atoms: C_16  and  C_1 
REMARK    2  A    between atoms: C_15  and  C_2 
REMARK    3  A    between atoms: C_8  and  N_18 
REMARK    4  A    between atoms: N_18  and  N_12 
REMARK    5  A    between atoms: O_25  and  C_22 
ROOT
ATOM      1  N   UNL d   1       3.401   1.157  -0.320  0.00  0.00    -0.309 N 
ATOM      2  HN  UNL d   1       3.492   0.200  -0.660  1.00  0.00     0.186 HD
ATOM      3  C   UNL d   1       2.277   1.627   0.114  0.00  0.00     0.122 C 
ENDROOT
BRANCH   1   4
ATOM      4  N   UNL d   1       4.454   2.016  -0.296  0.00  0.00    -0.285 N 
ATOM      5  H   UNL d   1       4.356   3.028  -0.274  0.00  0.00     0.188 HD
BRANCH   4   6
ATOM      6  C   UNL d   1       5.635   1.637  -0.959  0.00  0.00     0.136 A 
ATOM      7  N   UNL d   1       6.521   2.607  -1.282  0.00  0.00    -0.338 N 
ATOM      8  C   UNL d   1       7.652   2.218  -1.917  0.00  0.00     0.060 A 
ATOM      9  HN  UNL d   1       6.345   3.587  -1.059  1.00  0.00     0.167 HD
ATOM     10  C   UNL d   1       8.608   3.164  -2.279  0.00  0.00     0.032 A 
ATOM     11  C   UNL d   1       7.900   0.858  -2.231  0.00  0.00     0.059 A 
ATOM     12  C   UNL d   1       9.783   2.800  -2.943  0.00  0.00     0.002 A 
ATOM     13  C   UNL d   1      10.012   1.466  -3.254  0.00  0.00     0.002 A 
ATOM     14  C   UNL d   1       9.067   0.507  -2.893  0.00  0.00     0.032 A 
ATOM     15  N   UNL d   1       7.029  -0.107  -1.903  0.00  0.00    -0.360 N 
ATOM     16  C   UNL d   1       5.909   0.308  -1.265  0.00  0.00     0.138 A 
ATOM     17  HN  UNL d   1       7.199  -1.089  -2.120  1.00  0.00     0.165 HD
ENDBRANCH   4   6
ENDBRANCH   1   4
BRANCH   3  18
ATOM     18  C   UNL d   1       1.109   0.778   0.062  0.00  0.00     0.026 A 
ATOM     19  C   UNL d   1      -0.272   1.149   0.030  0.00  0.00     0.071 A 
ATOM     20  N   UNL d   1      -1.058   0.060   0.053  0.00  0.00    -0.299 N 
ATOM     21  N   UNL d   1      -0.205  -0.976   0.026  0.00  0.00    -0.310 N 
ATOM     22  HN  UNL d   1      -2.077   0.027   0.084  1.00  0.00     0.187 HD
ATOM     23  C   UNL d   1       1.101  -0.601   0.019  0.00  0.00     0.122 A 
ATOM     24  H   UNL d   1      -0.590  -1.913   0.015  0.00  0.00     0.186 HD
BRANCH  19  25
ATOM     25  C   UNL d   1      -0.852   2.492  -0.050  0.00  0.00    -0.007 A 
ATOM     26  C   UNL d   1      -0.216   3.503  -0.784  0.00  0.00     0.016 A 
ATOM     27  C   UNL d   1      -0.747   4.796  -0.837  0.00  0.00     0.037 A 
ATOM     28  C   UNL d   1      -1.938   5.092  -0.179  0.00  0.00     0.068 A 
ATOM     29  C   UNL d   1      -2.600   4.079   0.519  0.00  0.00     0.037 A 
ATOM     30  C   UNL d   1      -2.063   2.788   0.585  0.00  0.00     0.016 A 
BRANCH  28  31
ATOM     31  O   UNL d   1      -2.552   6.313  -0.151  0.00  0.00    -0.356 OA
ATOM     32  C   UNL d   1      -1.894   7.373  -0.836  0.00  0.00     0.210 C 
ENDBRANCH  28  31
ENDBRANCH  19  25
ENDBRANCH   3  18
TORSDOF 5
