REMARK  4 active torsions:
REMARK  status: ('A' for Active; 'I' for Inactive)
REMARK    1  A    between atoms: C_7  and  C_2 
REMARK    2  A    between atoms: N_17  and  C_5 
REMARK    3  A    between atoms: O_13  and  C_7 
REMARK    4  A    between atoms: C_18  and  O_13 
ROOT
ATOM      1  C   UNL d   1      -0.688   0.581   0.053  0.00  0.00     0.146 A 
ATOM      2  C   UNL d   1      -1.654   0.199  -1.059  0.00  0.00     0.074 C 
ATOM      3  C   UNL d   1      -1.295   0.398   1.443  0.00  0.00     0.095 C 
ATOM      4  C   UNL d   1      -0.226   2.075  -0.046  0.00  0.00     0.246 A 
ATOM      5  C   UNL d   1      -2.360  -0.407   1.612  0.00  0.00     0.139 C 
ATOM      6  C   UNL d   1      -2.708  -0.600  -0.767  0.00  0.00     0.065 C 
ATOM      7  N   UNL d   1       1.168   2.080  -0.043  0.00  0.00    -0.325 N 
ATOM      8  O   UNL d   1      -2.935  -1.051   0.532  0.00  0.00    -0.302 OA
ATOM      9  C   UNL d   1       0.648  -0.144  -0.024  0.00  0.00    -0.003 A 
ATOM     10  C   UNL d   1       1.685   0.791  -0.040  0.00  0.00     0.043 A 
ATOM     11  C   UNL d   1      -0.699   1.046   2.568  0.00  0.00     0.101 C 
ATOM     12  N   UNL d   1      -0.223   1.582   3.478  0.00  0.00    -0.191 NA
ATOM     13  O   UNL d   1      -0.939   3.068  -0.083  0.00  0.00    -0.271 OA
ATOM     14  C   UNL d   1      -3.769  -1.142  -1.682  0.00  0.00     0.077 C 
ATOM     15  C   UNL d   1       0.923  -1.504  -0.009  0.00  0.00     0.011 A 
ATOM     16  C   UNL d   1       3.012   0.421  -0.041  0.00  0.00     0.030 A 
ATOM     17  C   UNL d   1       2.262  -1.901  -0.014  0.00  0.00     0.001 A 
ATOM     18  C   UNL d   1       3.297  -0.948  -0.027  0.00  0.00     0.002 A 
ATOM     19  H   UNL d   1       1.714   2.930  -0.069  0.00  0.00     0.169 HD
ENDROOT
BRANCH   5  20
ATOM     20  N   UNL d   1      -2.976  -0.703   2.805  0.00  0.00    -0.282 NA
ATOM     21  H   UNL d   1      -2.909   0.017   3.522  0.00  0.00     0.126 HD
ATOM     22  H   UNL d   1      -3.928  -1.035   2.669  0.00  0.00     0.126 HD
ENDBRANCH   5  20
BRANCH   2  23
ATOM     23  C   UNL d   1      -1.496   0.781  -2.428  0.00  0.00     0.294 C 
ATOM     24  O   UNL d   1      -2.415   0.909  -3.220  0.00  0.00    -0.259 OA
BRANCH  23  25
ATOM     25  O   UNL d   1      -0.223   1.186  -2.652  0.00  0.00    -0.307 OA
BRANCH  25  26
ATOM     26  C   UNL d   1       0.110   1.969  -3.836  0.00  0.00     0.060 C 
ATOM     27  C   UNL d   1      -0.654   3.300  -3.859  0.00  0.00     0.046 C 
ATOM     28  C   UNL d   1       1.611   2.276  -3.708  0.00  0.00     0.046 C 
ATOM     29  C   UNL d   1      -0.109   1.175  -5.129  0.00  0.00     0.046 C 
ENDBRANCH  25  26
ENDBRANCH  23  25
ENDBRANCH   2  23
TORSDOF 4
