REMARK  7 active torsions:
REMARK  status: ('A' for Active; 'I' for Inactive)
REMARK    1  A    between atoms: C_8  and  N_6 
REMARK    2  A    between atoms: C_9  and  C_8 
REMARK    3  A    between atoms: C_15  and  C_9 
REMARK    4  A    between atoms: O_14  and  N_11 
REMARK    5  A    between atoms: C_13  and  O_14 
REMARK    6  A    between atoms: C_16  and  C_13 
REMARK    7  A    between atoms: C_17  and  C_18 
ROOT
ATOM      1  C   UNL d   1       3.190   0.304  -0.172  0.00  0.00     0.064 C 
ATOM      2  N   UNL d   1       3.164  -1.005  -0.309  0.00  0.00    -0.259 N 
ATOM      3  HN  UNL d   1       3.972  -1.606  -0.145  1.00  0.00     0.194 HD
ENDROOT
BRANCH   1   4
ATOM      4  C   UNL d   1       4.552   0.937   0.068  0.00  0.00     0.227 C 
BRANCH   4   5
ATOM      5  N   UNL d   1       5.174   1.353  -1.170  0.00  0.00    -0.197 N 
ATOM      6  N   UNL d   1       5.286   0.536  -2.221  0.00  0.00    -0.116 N 
ATOM      7  C   UNL d   1       5.912   1.331  -3.098  0.00  0.00     0.709 A 
ATOM      8  HN  UNL d   1       4.978  -0.430  -2.328  1.00  0.00     0.207 HD
ATOM      9  N   UNL d   1       6.157   2.580  -2.575  0.00  0.00    -0.113 N 
ATOM     10  N   UNL d   1       6.296   0.973  -4.354  0.00  0.00    -0.215 N 
ATOM     11  N   UNL d   1       5.690   2.582  -1.332  0.00  0.00     0.011 NA
ATOM     12  HN  UNL d   1       6.613   3.358  -3.052  1.00  0.00     0.203 HD
ATOM     13  C   UNL d   1       6.267  -0.469  -4.632  0.00  0.00     0.141 C 
ATOM     14  C   UNL d   1       7.409   1.717  -4.952  0.00  0.00     0.141 C 
ATOM     15  C   UNL d   1       6.353  -0.749  -6.126  0.00  0.00     0.020 C 
ATOM     16  C   UNL d   1       7.563  -0.065  -6.744  0.00  0.00     0.003 C 
ATOM     17  C   UNL d   1       7.528   1.430  -6.450  0.00  0.00     0.020 C 
ENDBRANCH   4   5
ENDBRANCH   1   4
BRANCH   1  18
ATOM     18  C   UNL d   1       2.009   1.253  -0.164  0.00  0.00    -0.010 A 
ATOM     19  C   UNL d   1       2.138   2.563  -0.663  0.00  0.00     0.015 A 
ATOM     20  C   UNL d   1       1.106   3.503  -0.502  0.00  0.00     0.024 A 
ATOM     21  C   UNL d   1      -0.069   3.135   0.138  0.00  0.00     0.034 A 
ATOM     22  C   UNL d   1      -0.226   1.835   0.618  0.00  0.00     0.024 A 
ATOM     23 CL   UNL d   1      -1.321   4.293   0.365  0.00  0.00    -0.084 Cl
ATOM     24  C   UNL d   1       0.815   0.903   0.474  0.00  0.00     0.015 A 
ENDBRANCH   1  18
BRANCH   2  25
ATOM     25  O   UNL d   1       1.920  -1.480  -0.699  0.00  0.00    -0.195 OA
BRANCH  25  26
ATOM     26  C   UNL d   1       1.725  -2.838  -0.727  0.00  0.00     0.315 C 
ATOM     27  O   UNL d   1       0.560  -3.234  -0.845  0.00  0.00    -0.257 OA
BRANCH  26  28
ATOM     28  C   UNL d   1       2.790  -3.903  -0.609  0.00  0.00     0.041 A 
ATOM     29  C   UNL d   1       2.332  -5.220  -0.401  0.00  0.00     0.018 A 
ATOM     30  C   UNL d   1       3.208  -6.306  -0.226  0.00  0.00     0.009 A 
ATOM     31  C   UNL d   1       4.596  -6.127  -0.219  0.00  0.00    -0.051 A 
ATOM     32  C   UNL d   1       5.054  -4.833  -0.544  0.00  0.00     0.009 A 
ATOM     33  C   UNL d   1       4.169  -3.738  -0.734  0.00  0.00     0.018 A 
BRANCH  31  34
ATOM     34  C   UNL d   1       5.557  -7.264   0.211  0.00  0.00    -0.024 C 
ATOM     35  C   UNL d   1       6.646  -6.708   1.160  0.00  0.00     0.019 C 
ATOM     36  C   UNL d   1       4.835  -8.390   0.998  0.00  0.00     0.019 C 
ATOM     37  C   UNL d   1       6.258  -7.928  -0.991  0.00  0.00     0.019 C 
ENDBRANCH  31  34
ENDBRANCH  26  28
ENDBRANCH  25  26
ENDBRANCH   2  25
TORSDOF 7
