REMARK  8 active torsions:
REMARK  status: ('A' for Active; 'I' for Inactive)
REMARK    1  A    between atoms: C_19  and  C_1 
REMARK    2  A    between atoms: C_2  and  C_18 
REMARK    3  A    between atoms: C_7  and  C_3 
REMARK    4  A    between atoms: C_8  and  C_4 
REMARK    5  A    between atoms: O_21  and  C_9 
REMARK    6  A    between atoms: O_20  and  C_10 
REMARK    7  A    between atoms: S_17  and  C_19 
REMARK    8  A    between atoms: C_18  and  S_17 
ROOT
ATOM      1  S   UNL d   1       3.184  -2.244   1.171  0.00  0.00    -0.160 SA
ENDROOT
BRANCH   1   2
ATOM      2  C   UNL d   1       2.898  -0.616   0.417  0.00  0.00     0.115 C 
BRANCH   2   3
ATOM      3  C   UNL d   1       1.552   0.013   0.702  0.00  0.00    -0.015 A 
ATOM      4  C   UNL d   1       0.433  -0.809   0.973  0.00  0.00     0.026 A 
ATOM      5  C   UNL d   1      -0.786  -0.277   1.405  0.00  0.00     0.010 A 
ATOM      6  C   UNL d   1      -0.938   1.106   1.469  0.00  0.00     0.018 A 
ATOM      7  C   UNL d   1       0.127   1.938   1.119  0.00  0.00     0.038 A 
ATOM      8  C   UNL d   1       1.365   1.408   0.723  0.00  0.00     0.075 A 
BRANCH   5   9
ATOM      9  C   UNL d   1      -1.918  -1.141   1.829  0.00  0.00     0.155 C 
ATOM     10  O   UNL d   1      -3.064  -0.725   1.724  0.00  0.00    -0.293 OA
ATOM     11  C   UNL d   1      -1.640  -2.499   2.434  0.00  0.00     0.096 C 
ENDBRANCH   5   9
BRANCH   8  12
ATOM     12  O   UNL d   1       2.306   2.375   0.487  0.00  0.00    -0.355 OA
ATOM     13  C   UNL d   1       3.221   2.182  -0.585  0.00  0.00     0.210 C 
ENDBRANCH   8  12
ENDBRANCH   2   3
ENDBRANCH   1   2
BRANCH   1  14
ATOM     14  C   UNL d   1       4.910  -2.473   0.654  0.00  0.00     0.115 C 
BRANCH  14  15
ATOM     15  C   UNL d   1       5.470  -3.765   1.184  0.00  0.00    -0.015 A 
ATOM     16  C   UNL d   1       5.190  -4.926   0.424  0.00  0.00     0.026 A 
ATOM     17  C   UNL d   1       5.726  -6.176   0.754  0.00  0.00     0.010 A 
ATOM     18  C   UNL d   1       6.564  -6.279   1.860  0.00  0.00     0.018 A 
ATOM     19  C   UNL d   1       6.824  -5.146   2.638  0.00  0.00     0.038 A 
ATOM     20  C   UNL d   1       6.274  -3.892   2.326  0.00  0.00     0.075 A 
BRANCH  17  21
ATOM     21  C   UNL d   1       5.411  -7.330  -0.132  0.00  0.00     0.155 C 
ATOM     22  O   UNL d   1       5.099  -7.122  -1.304  0.00  0.00    -0.293 OA
ATOM     23  C   UNL d   1       5.444  -8.732   0.419  0.00  0.00     0.096 C 
ENDBRANCH  17  21
BRANCH  20  24
ATOM     24  O   UNL d   1       6.717  -2.898   3.155  0.00  0.00    -0.355 OA
ATOM     25  C   UNL d   1       5.800  -1.889   3.558  0.00  0.00     0.210 C 
ENDBRANCH  20  24
ENDBRANCH  14  15
ENDBRANCH   1  14
TORSDOF 8
