REMARK  1 active torsions:
REMARK  status: ('A' for Active; 'I' for Inactive)
REMARK    1  A    between atoms: C_2  and  N_1 
ROOT
ATOM      1  C   UNL d   1       2.467  -0.025   1.068  0.00  0.00     0.051 A 
ATOM      2  N   UNL d   1       1.210   2.967   2.593  0.00  0.00    -0.191 NA
ATOM      3  C   UNL d   1       1.878   2.048   2.368  0.00  0.00     0.102 C 
ATOM      4  C   UNL d   1       2.753   0.945   2.062  0.00  0.00     0.071 A 
ATOM      5  C   UNL d   1       3.422  -1.056   0.916  0.00  0.00     0.031 A 
ATOM      6  C   UNL d   1       3.927   0.868   2.838  0.00  0.00     0.025 A 
ATOM      7  C   UNL d   1       4.592  -1.122   1.682  0.00  0.00     0.002 A 
ATOM      8  C   UNL d   1       4.844  -0.158   2.646  0.00  0.00     0.002 A 
ENDROOT
BRANCH   1   9
ATOM      9  N   UNL d   1       1.342  -0.015   0.255  0.00  0.00    -0.380 N 
ATOM     10  C   UNL d   1       0.705  -1.244  -0.236  0.00  0.00     0.123 C 
ATOM     11  C   UNL d   1      -0.757  -1.255   0.219  0.00  0.00     0.020 C 
ATOM     12  C   UNL d   1      -1.493   0.020  -0.197  0.00  0.00     0.003 C 
ATOM     13  C   UNL d   1      -0.728   1.272   0.233  0.00  0.00     0.020 C 
ATOM     14  C   UNL d   1       0.722   1.215  -0.246  0.00  0.00     0.123 C 
ENDBRANCH   1   9
TORSDOF 1
