REMARK  1 active torsions:
REMARK  status: ('A' for Active; 'I' for Inactive)
REMARK    1  A    between atoms: C_4  and  N_1 
ROOT
ATOM      1  N   UNL d   1       0.655   1.190  -0.412  0.00  0.00    -0.252 N 
ATOM      2  C   UNL d   1       1.421   0.062  -0.098  0.00  0.00     0.232 C 
ATOM      3  C   UNL d   1      -0.654   1.259   0.079  0.00  0.00     0.232 C 
ATOM      4  C   UNL d   1       0.681  -1.252  -0.243  0.00  0.00     0.113 C 
ATOM      5  C   UNL d   1      -1.463   0.021  -0.190  0.00  0.00     0.113 C 
ATOM      6  C   UNL d   1      -0.746  -1.232   0.304  0.00  0.00    -0.031 C 
ATOM      7  O   UNL d   1      -1.163   2.230   0.643  0.00  0.00    -0.273 OA
ATOM      8  O   UNL d   1       2.606   0.027   0.217  0.00  0.00    -0.273 OA
ATOM      9  C   UNL d   1      -1.490  -2.464  -0.233  0.00  0.00     0.016 C 
ATOM     10  C   UNL d   1      -0.737  -1.277   1.841  0.00  0.00     0.016 C 
ENDROOT
BRANCH   1  11
ATOM     11  C   UNL d   1       1.259   2.407  -0.884  0.00  0.00     0.046 A 
ATOM     12  C   UNL d   1       0.424   3.415  -1.404  0.00  0.00     0.054 A 
ATOM     13  C   UNL d   1       0.942   4.637  -1.814  0.00  0.00     0.036 A 
ATOM     14 CL   UNL d   1      -0.126   5.880  -2.333  0.00  0.00    -0.084 Cl
ATOM     15  C   UNL d   1       2.312   4.862  -1.780  0.00  0.00     0.024 A 
ATOM     16  C   UNL d   1       3.162   3.849  -1.353  0.00  0.00     0.004 A 
ATOM     17  C   UNL d   1       2.641   2.625  -0.925  0.00  0.00     0.030 A 
ENDBRANCH   1  11
TORSDOF 1
