REMARK  1 active torsions:
REMARK  status: ('A' for Active; 'I' for Inactive)
REMARK       I    between atoms: C_2  and  N_1 
REMARK    1  A    between atoms: C_8  and  C_2 
ROOT
ATOM      1  N   UNL d   1      -1.575  -1.109  -0.041  0.00  0.00    -0.288 N 
ATOM      2  C   UNL d   1      -2.030  -2.449  -0.141  0.00  0.00     0.262 C 
ATOM      3  C   UNL d   1      -2.396   0.008   0.049  0.00  0.00     0.101 A 
ATOM      4  C   UNL d   1      -0.250  -0.664  -0.008  0.00  0.00     0.052 A 
ATOM      5  C   UNL d   1      -1.624   1.142   0.074  0.00  0.00     0.031 A 
ATOM      6  C   UNL d   1      -0.270   0.735   0.037  0.00  0.00    -0.008 A 
ATOM      7  O   UNL d   1      -1.242  -3.359   0.099  0.00  0.00    -0.267 OA
ATOM      8  C   UNL d   1       0.968  -1.369  -0.053  0.00  0.00     0.031 A 
ATOM      9  C   UNL d   1       0.947   1.446   0.042  0.00  0.00     0.014 A 
ATOM     10  C   UNL d   1       2.163  -0.642  -0.049  0.00  0.00     0.002 A 
ATOM     11  C   UNL d   1       2.155   0.747  -0.003  0.00  0.00     0.001 A 
ENDROOT
BRANCH   2  12
ATOM     12  C   UNL d   1      -3.419  -2.811  -0.524  0.00  0.00     0.032 A 
ATOM     13  C   UNL d   1      -4.040  -2.177  -1.607  0.00  0.00     0.017 A 
ATOM     14  C   UNL d   1      -5.352  -2.507  -1.946  0.00  0.00     0.001 A 
ATOM     15  C   UNL d   1      -6.034  -3.482  -1.218  0.00  0.00     0.000 A 
ATOM     16  C   UNL d   1      -5.402  -4.143  -0.163  0.00  0.00     0.001 A 
ATOM     17  C   UNL d   1      -4.090  -3.814   0.182  0.00  0.00     0.017 A 
ENDBRANCH   2  12
TORSDOF 1
