REMARK  5 active torsions:
REMARK  status: ('A' for Active; 'I' for Inactive)
REMARK    1  A    between atoms: N_2  and  C_1 
REMARK    2  A    between atoms: C_3  and  C_8 
REMARK    3  A    between atoms: O_7  and  C_4 
REMARK    4  A    between atoms: C_6  and  O_7 
REMARK    5  A    between atoms: C_13  and  C_6 
ROOT
ATOM      1  C   UNL d   1       1.408  -0.174   0.369  0.00  0.00     0.137 A 
ATOM      2  C   UNL d   1       0.551  -1.278   0.282  0.00  0.00     0.112 A 
ATOM      3  C   UNL d   1       0.874   1.131   0.321  0.00  0.00     0.055 A 
ATOM      4  C   UNL d   1      -0.512   1.333   0.196  0.00  0.00     0.050 A 
ATOM      5  C   UNL d   1      -0.830  -1.075   0.149  0.00  0.00     0.041 A 
ATOM      6  C   UNL d   1      -1.353   0.216   0.094  0.00  0.00     0.019 A 
ENDROOT
BRANCH   2   7
ATOM      7  O   UNL d   1       1.010  -2.592   0.477  0.00  0.00    -0.272 OA
BRANCH   7   8
ATOM      8  C   UNL d   1       0.612  -3.549  -0.442  0.00  0.00     0.298 C 
ATOM      9  O   UNL d   1       0.103  -3.341  -1.532  0.00  0.00    -0.259 OA
BRANCH   8  10
ATOM     10  C   UNL d   1       0.773  -4.903   0.152  0.00  0.00     0.039 A 
ATOM     11  C   UNL d   1       0.034  -5.956  -0.405  0.00  0.00     0.017 A 
ATOM     12  C   UNL d   1       0.110  -7.237   0.146  0.00  0.00     0.001 A 
ATOM     13  C   UNL d   1       0.926  -7.472   1.251  0.00  0.00     0.000 A 
ATOM     14  C   UNL d   1       1.670  -6.430   1.806  0.00  0.00     0.001 A 
ATOM     15  C   UNL d   1       1.596  -5.146   1.260  0.00  0.00     0.017 A 
ENDBRANCH   8  10
ENDBRANCH   7   8
ENDBRANCH   2   7
BRANCH   1  16
ATOM     16  N   UNL d   1       2.863  -0.325   0.525  0.00  0.00    -0.113 N 
ATOM     17  O   UNL d   1       3.321  -1.444   0.797  0.00  0.00    -0.532 OA
ATOM     18  O   UNL d   1       3.556   0.692   0.388  0.00  0.00    -0.532 OA
ENDBRANCH   1  16
BRANCH   4  19
ATOM     19  C   UNL d   1      -1.116   2.719   0.198  0.00  0.00     0.417 C 
ATOM     20  F   UNL d   1      -0.197   3.712   0.339  0.00  0.00    -0.166 F 
ATOM     21  F   UNL d   1      -1.797   2.992  -0.947  0.00  0.00    -0.166 F 
ATOM     22  F   UNL d   1      -2.006   2.886   1.215  0.00  0.00    -0.166 F 
ENDBRANCH   4  19
TORSDOF 5
