REMARK  5 active torsions:
REMARK  status: ('A' for Active; 'I' for Inactive)
REMARK    1  A    between atoms: C_7  and  C_3 
REMARK    2  A    between atoms: C_8  and  C_4 
REMARK    3  A    between atoms: C_9  and  O_12 
REMARK    4  A    between atoms: C_10  and  C_11 
REMARK    5  A    between atoms: O_12  and  C_19 
ROOT
ATOM      1  N   UNL d   1       1.255  -0.530   0.479  0.00  0.00    -0.349 N 
ATOM      2  HN  UNL d   1       2.046  -1.030   0.885  1.00  0.00     0.166 HD
ATOM      3  C   UNL d   1       0.166  -1.104  -0.001  0.00  0.00     0.084 A 
ATOM      4  C   UNL d   1       1.171   0.850   0.354  0.00  0.00     0.050 A 
ATOM      5  S   UNL d   1      -1.028  -0.003  -0.585  0.00  0.00    -0.081 SA
ATOM      6  C   UNL d   1       0.001   1.310  -0.217  0.00  0.00     0.082 A 
ENDROOT
BRANCH   3   7
ATOM      7  C   UNL d   1      -0.074  -2.555  -0.033  0.00  0.00    -0.002 A 
ATOM      8  C   UNL d   1       0.449  -3.375   0.974  0.00  0.00     0.015 A 
ATOM      9  C   UNL d   1       0.237  -4.761   0.958  0.00  0.00     0.009 A 
ATOM     10  C   UNL d   1      -0.490  -5.385  -0.073  0.00  0.00    -0.051 A 
ATOM     11  C   UNL d   1      -1.005  -4.555  -1.079  0.00  0.00     0.009 A 
ATOM     12  C   UNL d   1      -0.801  -3.170  -1.061  0.00  0.00     0.015 A 
BRANCH  10  13
ATOM     13  C   UNL d   1      -0.677  -6.913  -0.087  0.00  0.00    -0.024 C 
ATOM     14  C   UNL d   1      -1.473  -7.429  -1.308  0.00  0.00     0.019 C 
ATOM     15  C   UNL d   1       0.704  -7.602  -0.121  0.00  0.00     0.019 C 
ATOM     16  C   UNL d   1      -1.439  -7.364   1.177  0.00  0.00     0.019 C 
ENDBRANCH  10  13
ENDBRANCH   3   7
BRANCH   4  17
ATOM     17  C   UNL d   1       2.268   1.725   0.750  0.00  0.00    -0.009 A 
ATOM     18  C   UNL d   1       3.590   1.273   0.648  0.00  0.00     0.016 A 
ATOM     19  C   UNL d   1       4.665   2.117   0.956  0.00  0.00     0.038 A 
ATOM     20  C   UNL d   1       4.425   3.425   1.379  0.00  0.00     0.074 A 
ATOM     21  C   UNL d   1       3.110   3.864   1.533  0.00  0.00     0.038 A 
ATOM     22  C   UNL d   1       2.038   3.026   1.214  0.00  0.00     0.016 A 
BRANCH  20  23
ATOM     23  O   UNL d   1       5.380   4.348   1.700  0.00  0.00    -0.290 OA
BRANCH  23  24
ATOM     24  C   UNL d   1       6.627   4.206   1.042  0.00  0.00     0.505 C 
ATOM     25  F   UNL d   1       6.441   4.269  -0.300  0.00  0.00    -0.184 F 
ATOM     26  F   UNL d   1       7.384   5.283   1.377  0.00  0.00    -0.184 F 
ENDBRANCH  23  24
ENDBRANCH  20  23
ENDBRANCH   4  17
TORSDOF 5
