REMARK  5 active torsions:
REMARK  status: ('A' for Active; 'I' for Inactive)
REMARK       I    between atoms: N_2  and  C_1 
REMARK    1  A    between atoms: C_4  and  C_1 
REMARK       I    between atoms: C_3  and  N_2 
REMARK    2  A    between atoms: O_8  and  C_3 
REMARK    3  A    between atoms: C_10  and  C_5 
REMARK    4  A    between atoms: C_6  and  O_8 
REMARK    5  A    between atoms: C_11  and  C_9 
ROOT
ATOM      1  C   UNL d   1       2.757   0.184   1.079  0.00  0.00    -0.016 A 
ATOM      2  C   UNL d   1       2.990  -1.186   0.881  0.00  0.00     0.088 A 
ATOM      3  C   UNL d   1       3.635   1.064   0.388  0.00  0.00     0.018 A 
ATOM      4  C   UNL d   1       4.692   0.635  -0.446  0.00  0.00    -0.050 A 
ATOM      5  C   UNL d   1       4.072  -1.637   0.112  0.00  0.00     0.038 A 
ATOM      6  C   UNL d   1       4.897  -0.741  -0.557  0.00  0.00     0.011 A 
ENDROOT
BRANCH   2   7
ATOM      7  O   UNL d   1       2.231  -2.171   1.538  0.00  0.00    -0.261 OA
BRANCH   7   8
ATOM      8  C   UNL d   1       1.766  -3.231   0.764  0.00  0.00     0.372 C 
ATOM      9  N   UNL d   1       1.526  -4.391   1.472  0.00  0.00    -0.268 N 
ATOM     10  C   UNL d   1       1.933  -4.655   2.760  0.00  0.00     0.261 C 
ATOM     11  H   UNL d   1       1.344  -5.163   0.846  0.00  0.00     0.174 HD
ATOM     12  O   UNL d   1       2.094  -3.777   3.603  0.00  0.00    -0.267 OA
ATOM     13  O   UNL d   1       1.644  -3.225  -0.457  0.00  0.00    -0.238 OA
BRANCH  10  14
ATOM     14  C   UNL d   1       2.115  -6.084   3.187  0.00  0.00     0.054 A 
ATOM     15  C   UNL d   1       1.780  -7.236   2.459  0.00  0.00     0.049 A 
ATOM     16 CL   UNL d   1       1.084  -7.220   0.876  0.00  0.00    -0.083 Cl
ATOM     17  C   UNL d   1       1.996  -8.510   3.012  0.00  0.00     0.025 A 
ATOM     18  C   UNL d   1       2.549  -8.655   4.284  0.00  0.00     0.002 A 
ATOM     19  C   UNL d   1       2.899  -7.526   5.011  0.00  0.00     0.001 A 
ATOM     20  C   UNL d   1       2.686  -6.258   4.467  0.00  0.00     0.019 A 
ENDBRANCH  10  14
ENDBRANCH   7   8
ENDBRANCH   2   7
BRANCH   1  21
ATOM     21  C   UNL d   1       1.672   0.806   1.988  0.00  0.00    -0.021 C 
ATOM     22  C   UNL d   1       0.605  -0.167   2.533  0.00  0.00     0.019 C 
ATOM     23  C   UNL d   1       2.364   1.450   3.213  0.00  0.00     0.019 C 
ATOM     24  C   UNL d   1       0.888   1.910   1.230  0.00  0.00     0.019 C 
ENDBRANCH   1  21
BRANCH   4  25
ATOM     25  C   UNL d   1       5.519   1.634  -1.275  0.00  0.00    -0.024 C 
ATOM     26  C   UNL d   1       4.742   1.894  -2.581  0.00  0.00     0.019 C 
ATOM     27  C   UNL d   1       5.739   2.980  -0.549  0.00  0.00     0.019 C 
ATOM     28  C   UNL d   1       6.924   1.100  -1.641  0.00  0.00     0.019 C 
ENDBRANCH   4  25
TORSDOF 5
