REMARK  3 active torsions:
REMARK  status: ('A' for Active; 'I' for Inactive)
REMARK    1  A    between atoms: C_3  and  C_1 
REMARK    2  A    between atoms: N_5  and  C_2 
REMARK       I    between atoms: C_4  and  N_6 
REMARK    3  A    between atoms: C_7  and  C_4 
ROOT
ATOM      1  C   UNL d   1      -3.871   5.785   0.796  0.00  0.00     0.260 C 
ATOM      2  N   UNL d   1      -1.235   2.446   0.414  0.00  0.00    -0.266 NA
ATOM      3  N   UNL d   1      -3.036   4.662   0.707  0.00  0.00    -0.345 N 
ATOM      4  C   UNL d   1      -1.377   3.400  -0.709  0.00  0.00     0.117 C 
ATOM      5  C   UNL d   1      -2.538   2.224   1.070  0.00  0.00     0.117 C 
ATOM      6  C   UNL d   1      -3.036   3.549   1.669  0.00  0.00     0.141 C 
ATOM      7  C   UNL d   1      -1.845   4.760  -0.155  0.00  0.00     0.141 C 
ATOM      8  O   UNL d   1      -3.721   6.740   0.034  0.00  0.00    -0.267 OA
ENDROOT
BRANCH   2   9
ATOM      9  C   UNL d   1      -0.622   1.235   0.072  0.00  0.00     0.097 A 
ATOM     10  C   UNL d   1       0.094   0.508   1.026  0.00  0.00     0.086 A 
ATOM     11  C   UNL d   1       0.641  -0.732   0.649  0.00  0.00     0.021 A 
ATOM     12  C   UNL d   1       0.490  -1.197  -0.648  0.00  0.00     0.018 A 
ATOM     13  C   UNL d   1      -0.208  -0.403  -1.532  0.00  0.00     0.089 A 
ATOM     14  N   UNL d   1      -0.756   0.787  -1.199  0.00  0.00    -0.356 N 
ATOM     15  HN  UNL d   1      -1.261   1.338  -1.893  1.00  0.00     0.166 HD
BRANCH  10  16
ATOM     16  C   UNL d   1       0.292   0.974   2.440  0.00  0.00     0.420 C 
ATOM     17  F   UNL d   1       0.029   2.283   2.707  0.00  0.00    -0.166 F 
ATOM     18  F   UNL d   1      -0.485   0.266   3.314  0.00  0.00    -0.166 F 
ATOM     19  F   UNL d   1       1.576   0.778   2.870  0.00  0.00    -0.166 F 
ENDBRANCH  10  16
ENDBRANCH   2   9
BRANCH   1  20
ATOM     20  C   UNL d   1      -4.931   5.768   1.794  0.00  0.00     0.072 A 
ATOM     21  S   UNL d   1      -6.546   6.013   1.275  0.00  0.00    -0.097 SA
ATOM     22  C   UNL d   1      -7.156   5.811   2.860  0.00  0.00     0.050 A 
ATOM     23  C   UNL d   1      -6.152   5.601   3.777  0.00  0.00     0.009 A 
ATOM     24  C   UNL d   1      -4.863   5.609   3.167  0.00  0.00     0.025 A 
ENDBRANCH   1  20
TORSDOF 3
