REMARK  8 active torsions:
REMARK  status: ('A' for Active; 'I' for Inactive)
REMARK    1  A    between atoms: C_2  and  C_1 
REMARK    2  A    between atoms: O_4  and  C_1 
REMARK    3  A    between atoms: O_9  and  C_3 
REMARK    4  A    between atoms: C_6  and  O_4 
REMARK    5  A    between atoms: C_5  and  C_7 
REMARK    6  A    between atoms: O_19  and  C_5 
REMARK    7  A    between atoms: C_18  and  O_9 
REMARK    8  A    between atoms: C_22  and  O_19 
ROOT
ATOM      1  C   UNL d   1       0.641   0.289   0.008  0.00  0.00     0.303 C 
ATOM      2  O   UNL d   1       1.833   0.538  -0.063  0.00  0.00    -0.259 OA
ENDROOT
BRANCH   1   3
ATOM      3  C   UNL d   1       0.000  -0.734   0.874  0.00  0.00     0.091 A 
ATOM      4  C   UNL d   1       0.580  -1.194   2.050  0.00  0.00     0.164 A 
ATOM      5  N   UNL d   1      -0.002  -2.158   2.820  0.00  0.00    -0.346 N 
ATOM      6  C   UNL d   1      -1.147  -2.723   2.388  0.00  0.00     0.090 A 
ATOM      7  HN  UNL d   1       0.420  -2.444   3.703  1.00  0.00     0.167 HD
ATOM      8  C   UNL d   1      -1.780  -2.352   1.222  0.00  0.00     0.018 A 
ATOM      9  C   UNL d   1      -1.204  -1.340   0.464  0.00  0.00     0.023 A 
BRANCH   4  10
ATOM     10  O   UNL d   1       1.777  -0.642   2.493  0.00  0.00    -0.293 OA
BRANCH  10  11
ATOM     11  C   UNL d   1       2.420  -1.310   3.514  0.00  0.00     0.077 A 
ATOM     12  C   UNL d   1       2.863  -2.628   3.362  0.00  0.00     0.037 A 
ATOM     13  C   UNL d   1       3.460  -3.290   4.436  0.00  0.00     0.003 A 
ATOM     14  C   UNL d   1       3.646  -2.625   5.648  0.00  0.00     0.000 A 
ATOM     15  C   UNL d   1       3.251  -1.292   5.782  0.00  0.00     0.003 A 
ATOM     16  C   UNL d   1       2.644  -0.630   4.711  0.00  0.00     0.037 A 
ENDBRANCH  10  11
ENDBRANCH   4  10
ENDBRANCH   1   3
BRANCH   1  17
ATOM     17  O   UNL d   1      -0.365   0.875  -0.747  0.00  0.00    -0.273 OA
BRANCH  17  18
ATOM     18  C   UNL d   1      -0.012   1.309  -2.035  0.00  0.00     0.101 A 
ATOM     19  C   UNL d   1       0.367   0.406  -3.039  0.00  0.00     0.069 A 
ATOM     20  C   UNL d   1       0.563   0.865  -4.339  0.00  0.00     0.044 A 
ATOM     21 CL   UNL d   1       0.530  -1.288  -2.755  0.00  0.00    -0.081 Cl
ATOM     22  C   UNL d   1       0.362   2.216  -4.649  0.00  0.00     0.041 A 
ATOM     23  C   UNL d   1      -0.048   3.108  -3.645  0.00  0.00     0.020 A 
ATOM     24  C   UNL d   1      -0.238   2.653  -2.336  0.00  0.00     0.040 A 
BRANCH  22  25
ATOM     25  C   UNL d   1       0.624   2.642  -6.049  0.00  0.00     0.293 C 
ATOM     26  O   UNL d   1       0.954   1.866  -6.931  0.00  0.00    -0.259 OA
BRANCH  25  27
ATOM     27  O   UNL d   1       0.523   3.987  -6.160  0.00  0.00    -0.318 OA
BRANCH  27  28
ATOM     28  C   UNL d   1       1.062   4.546  -7.367  0.00  0.00     0.174 C 
ATOM     29  C   UNL d   1       2.515   4.906  -7.115  0.00  0.00     0.034 C 
ENDBRANCH  27  28
ENDBRANCH  25  27
ENDBRANCH  22  25
ENDBRANCH  17  18
ENDBRANCH   1  17
TORSDOF 8
