REMARK  5 active torsions:
REMARK  status: ('A' for Active; 'I' for Inactive)
REMARK    1  A    between atoms: N_2  and  C_1 
REMARK    2  A    between atoms: N_6  and  C_1 
REMARK    3  A    between atoms: C_7  and  N_2 
REMARK    4  A    between atoms: N_3  and  N_6 
REMARK    5  A    between atoms: C_10  and  C_8 
ROOT
ATOM      1  N   UNL d   1       2.589   0.035  -0.141  0.00  0.00    -0.276 N 
ATOM      2  H   UNL d   1       3.146   0.343   0.651  0.00  0.00     0.189 HD
ENDROOT
BRANCH   1   3
ATOM      3  N   UNL d   1       3.193  -0.493  -1.246  0.00  0.00    -0.309 N 
ATOM      4  C   UNL d   1       4.487  -0.422  -1.199  0.00  0.00     0.118 C 
ATOM      5  HN  UNL d   1       2.679  -0.902  -2.027  1.00  0.00     0.186 HD
BRANCH   4   6
ATOM      6  C   UNL d   1       5.360  -0.982  -2.247  0.00  0.00    -0.019 A 
ATOM      7  C   UNL d   1       4.824  -1.589  -3.387  0.00  0.00     0.016 A 
ATOM      8  C   UNL d   1       5.680  -2.165  -4.327  0.00  0.00     0.043 A 
ATOM      9  C   UNL d   1       7.056  -2.127  -4.119  0.00  0.00     0.116 A 
ATOM     10  C   UNL d   1       7.597  -1.510  -2.995  0.00  0.00     0.043 A 
ATOM     11  F   UNL d   1       7.874  -2.699  -5.012  0.00  0.00    -0.206 F 
ATOM     12  C   UNL d   1       6.747  -0.930  -2.054  0.00  0.00     0.016 A 
ENDBRANCH   4   6
ENDBRANCH   1   3
BRANCH   1  13
ATOM     13  C   UNL d   1       1.231   0.221  -0.035  0.00  0.00     0.191 C 
ATOM     14  S   UNL d   1       0.669   0.859   1.407  0.00  0.00    -0.039 SA
BRANCH  13  15
ATOM     15  N   UNL d   1       0.513  -0.182  -1.137  0.00  0.00    -0.332 N 
ATOM     16  H   UNL d   1       0.998  -0.892  -1.677  0.00  0.00     0.168 HD
BRANCH  15  17
ATOM     17  C   UNL d   1      -0.806   0.146  -1.500  0.00  0.00     0.034 A 
ATOM     18  C   UNL d   1      -1.370   1.388  -1.193  0.00  0.00     0.036 A 
ATOM     19  C   UNL d   1      -2.677   1.710  -1.573  0.00  0.00    -0.060 A 
ATOM     20  C   UNL d   1      -3.260   3.046  -1.217  0.00  0.00     0.048 C 
ATOM     21  C   UNL d   1      -3.434   0.758  -2.263  0.00  0.00     0.007 A 
ATOM     22  C   UNL d   1      -2.870  -0.470  -2.607  0.00  0.00     0.003 A 
ATOM     23  C   UNL d   1      -1.551  -0.767  -2.249  0.00  0.00     0.029 A 
ENDBRANCH  15  17
ENDBRANCH  13  15
ENDBRANCH   1  13
TORSDOF 5
