REMARK  6 active torsions:
REMARK  status: ('A' for Active; 'I' for Inactive)
REMARK    1  A    between atoms: N_13  and  C_4 
REMARK    2  A    between atoms: O_14  and  C_8 
REMARK    3  A    between atoms: O_15  and  C_9 
REMARK    4  A    between atoms: C_17  and  N_13 
REMARK    5  A    between atoms: O_16  and  C_18 
REMARK    6  A    between atoms: C_18  and  C_17 
ROOT
ATOM      1  C   UNL d   1       0.103   0.729   0.019  0.00  0.00     0.032 A 
ATOM      2  C   UNL d   1       0.038  -0.655  -0.043  0.00  0.00     0.049 A 
ATOM      3  C   UNL d   1       1.375   1.347   0.025  0.00  0.00     0.056 A 
ATOM      4  C   UNL d   1      -1.128   1.406   0.110  0.00  0.00     0.093 A 
ATOM      5  C   UNL d   1       1.241  -1.349  -0.064  0.00  0.00     0.070 A 
ATOM      6  N   UNL d   1      -2.301   0.751   0.112  0.00  0.00    -0.342 N 
ATOM      7  HN  UNL d   1      -3.191   1.243   0.186  1.00  0.00     0.167 HD
ATOM      8  C   UNL d   1       2.601   0.642  -0.008  0.00  0.00     0.102 A 
ATOM      9  C   UNL d   1       2.532  -0.748  -0.038  0.00  0.00     0.103 A 
ATOM     10  N   UNL d   1      -1.124  -1.319  -0.060  0.00  0.00    -0.351 N 
ATOM     11  HN  UNL d   1      -1.159  -2.336  -0.125  1.00  0.00     0.166 HD
ATOM     12  C   UNL d   1      -2.236  -0.581   0.011  0.00  0.00     0.182 A 
ENDROOT
BRANCH   4  13
ATOM     13  N   UNL d   1      -1.122   2.801   0.275  0.00  0.00    -0.276 NA
ATOM     14  H   UNL d   1      -0.663   3.252  -0.515  0.00  0.00     0.129 HD
BRANCH  13  15
ATOM     15  C   UNL d   1      -2.408   3.432   0.560  0.00  0.00     0.119 C 
BRANCH  15  16
ATOM     16  C   UNL d   1      -2.158   4.885   0.984  0.00  0.00     0.178 C 
BRANCH  16  17
ATOM     17  O   UNL d   1      -1.676   5.651  -0.122  0.00  0.00    -0.400 OA
ATOM     18  H   UNL d   1      -1.487   6.543   0.217  0.00  0.00     0.209 HD
ENDBRANCH  16  17
ENDBRANCH  15  16
ENDBRANCH  13  15
ENDBRANCH   4  13
BRANCH   8  19
ATOM     19  O   UNL d   1       3.581   1.579  -0.007  0.00  0.00    -0.353 OA
ATOM     20  C   UNL d   1       4.965   1.367   0.037  0.00  0.00     0.210 C 
ENDBRANCH   8  19
BRANCH   9  21
ATOM     21  O   UNL d   1       3.440  -1.760  -0.052  0.00  0.00    -0.353 OA
ATOM     22  C   UNL d   1       4.832  -1.603  -0.003  0.00  0.00     0.210 C 
ENDBRANCH   9  21
TORSDOF 6
