REMARK  5 active torsions:
REMARK  status: ('A' for Active; 'I' for Inactive)
REMARK    1  A    between atoms: N_2  and  S_1 
REMARK    2  A    between atoms: C_3  and  S_1 
REMARK    3  A    between atoms: C_4  and  N_2 
REMARK    4  A    between atoms: O_6  and  C_8 
REMARK    5  A    between atoms: C_7  and  O_6 
ROOT
ATOM      1  C   UNL d   1       0.759  -1.148   2.450  0.00  0.00     0.076 A 
ATOM      2  C   UNL d   1       2.042  -1.720   2.462  0.00  0.00     0.103 A 
ATOM      3  C   UNL d   1      -0.210  -1.588   3.359  0.00  0.00     0.033 A 
ATOM      4  C   UNL d   1       2.362  -2.649   3.464  0.00  0.00     0.039 A 
ATOM      5  C   UNL d   1       0.099  -2.574   4.297  0.00  0.00     0.002 A 
ATOM      6  C   UNL d   1       1.390  -3.088   4.364  0.00  0.00     0.003 A 
ENDROOT
BRANCH   1   7
ATOM      7  N   UNL d   1       0.414  -0.055   1.609  0.00  0.00    -0.278 N 
ATOM      8  H   UNL d   1       0.180   0.839   2.034  0.00  0.00     0.179 HD
BRANCH   7   9
ATOM      9  S   UNL d   1      -0.044  -0.247   0.019  0.00  0.00     0.263 S 
ATOM     10  O   UNL d   1       0.955  -1.005  -0.701  0.00  0.00    -0.200 OA
ATOM     11  O   UNL d   1      -0.472   1.056  -0.439  0.00  0.00    -0.200 OA
BRANCH   9  12
ATOM     12  C   UNL d   1      -1.505  -1.265   0.116  0.00  0.00     0.081 A 
ATOM     13  C   UNL d   1      -1.373  -2.651  -0.012  0.00  0.00     0.050 A 
ATOM     14  C   UNL d   1      -2.515  -3.455  -0.033  0.00  0.00     0.057 A 
ATOM     15 CL   UNL d   1      -2.287  -5.160  -0.194  0.00  0.00    -0.083 Cl
ATOM     16  C   UNL d   1      -3.785  -2.872   0.061  0.00  0.00     0.055 A 
ATOM     17  C   UNL d   1      -3.909  -1.483   0.184  0.00  0.00     0.027 A 
ATOM     18 CL   UNL d   1      -5.238  -3.808   0.017  0.00  0.00    -0.083 Cl
ATOM     19  C   UNL d   1      -2.768  -0.674   0.206  0.00  0.00     0.027 A 
ENDBRANCH   9  12
ENDBRANCH   7   9
ENDBRANCH   1   7
BRANCH   2  20
ATOM     20  O   UNL d   1       2.972  -1.288   1.536  0.00  0.00    -0.307 OA
BRANCH  20  21
ATOM     21  C   UNL d   1       3.945  -2.177   1.116  0.00  0.00     0.098 A 
ATOM     22  C   UNL d   1       5.266  -1.726   0.998  0.00  0.00     0.069 A 
ATOM     23  C   UNL d   1       6.284  -2.607   0.618  0.00  0.00     0.050 A 
ATOM     24 CL   UNL d   1       5.691  -0.088   1.341  0.00  0.00    -0.081 Cl
ATOM     25  C   UNL d   1       5.976  -3.939   0.348  0.00  0.00     0.035 A 
ATOM     26  C   UNL d   1       4.660  -4.390   0.420  0.00  0.00     0.026 A 
ATOM     27 CL   UNL d   1       7.232  -5.039  -0.072  0.00  0.00    -0.084 Cl
ATOM     28  C   UNL d   1       3.641  -3.504   0.777  0.00  0.00     0.041 A 
ENDBRANCH  20  21
ENDBRANCH   2  20
TORSDOF 5
