REMARK  6 active torsions:
REMARK  status: ('A' for Active; 'I' for Inactive)
REMARK    1  A    between atoms: C_15  and  C_3 
REMARK    2  A    between atoms: C_16  and  C_4 
REMARK    3  A    between atoms: C_13  and  C_7 
REMARK    4  A    between atoms: C_10  and  C_9 
REMARK    5  A    between atoms: N_12  and  C_13 
REMARK    6  A    between atoms: O_20  and  C_14 
ROOT
ATOM      1  N   UNL d   1       0.965  -0.702  -0.046  0.00  0.00    -0.299 N 
ATOM      2  HN  UNL d   1       1.681  -1.219  -0.556  1.00  0.00     0.187 HD
ATOM      3  C   UNL d   1      -0.961  -0.697   1.386  0.00  0.00     0.005 A 
ATOM      4  C   UNL d   1       0.034  -1.380   0.668  0.00  0.00     0.069 A 
ATOM      5  N   UNL d   1       0.959   0.670  -0.093  0.00  0.00    -0.299 N 
ATOM      6  HN  UNL d   1       1.671   1.157  -0.638  1.00  0.00     0.187 HD
ATOM      7  C   UNL d   1      -0.941   0.713   1.311  0.00  0.00     0.046 A 
ATOM      8  C   UNL d   1       0.029   1.385   0.570  0.00  0.00     0.059 A 
ENDROOT
BRANCH   8   9
ATOM      9  C   UNL d   1       0.140   2.856   0.464  0.00  0.00    -0.007 A 
ATOM     10  C   UNL d   1       0.825   3.450  -0.614  0.00  0.00     0.025 A 
ATOM     11  C   UNL d   1       1.007   4.846  -0.733  0.00  0.00     0.004 A 
ATOM     12  C   UNL d   1       0.470   5.685   0.254  0.00  0.00     0.076 A 
ATOM     13  C   UNL d   1      -0.243   5.120   1.314  0.00  0.00     0.038 A 
ATOM     14  C   UNL d   1      -0.398   3.730   1.420  0.00  0.00     0.016 A 
BRANCH  11  15
ATOM     15  C   UNL d   1       1.751   5.391  -1.942  0.00  0.00     0.314 C 
BRANCH  15  16
ATOM     16  N   UNL d   1       3.025   4.689  -2.187  0.00  0.00     0.096 N 
ATOM     17  C   UNL d   1       4.080   5.081  -1.228  0.00  0.00     0.299 C 
ATOM     18  C   UNL d   1       4.715   6.455  -1.512  0.00  0.00     0.198 C 
ATOM     19  O   UNL d   1       5.207   6.540  -2.855  0.00  0.00    -0.388 OA
ATOM     20  C   UNL d   1       4.156   6.282  -3.793  0.00  0.00     0.198 C 
ATOM     21  C   UNL d   1       3.526   4.900  -3.558  0.00  0.00     0.299 C 
ENDBRANCH  15  16
ENDBRANCH  11  15
BRANCH  12  22
ATOM     22  O   UNL d   1       0.666   7.032   0.094  0.00  0.00    -0.355 OA
ATOM     23  C   UNL d   1       0.527   7.837   1.260  0.00  0.00     0.210 C 
ENDBRANCH  12  22
ENDBRANCH   8   9
BRANCH   3  24
ATOM     24  C   UNL d   1      -1.998  -1.349   2.224  0.00  0.00    -0.024 A 
ATOM     25  C   UNL d   1      -1.677  -2.354   3.155  0.00  0.00     0.012 A 
ATOM     26  C   UNL d   1      -2.668  -2.994   3.905  0.00  0.00     0.001 A 
ATOM     27  C   UNL d   1      -3.999  -2.615   3.772  0.00  0.00     0.000 A 
ATOM     28  C   UNL d   1      -4.342  -1.599   2.886  0.00  0.00     0.001 A 
ATOM     29  C   UNL d   1      -3.353  -0.979   2.115  0.00  0.00     0.012 A 
ENDBRANCH   3  24
BRANCH   4  30
ATOM     30  C   UNL d   1       0.209  -2.846   0.603  0.00  0.00    -0.007 A 
ATOM     31  C   UNL d   1      -0.851  -3.719   0.307  0.00  0.00     0.014 A 
ATOM     32  C   UNL d   1      -0.664  -5.105   0.296  0.00  0.00     0.001 A 
ATOM     33  C   UNL d   1       0.594  -5.643   0.555  0.00  0.00     0.000 A 
ATOM     34  C   UNL d   1       1.668  -4.798   0.817  0.00  0.00     0.001 A 
ATOM     35  C   UNL d   1       1.476  -3.415   0.838  0.00  0.00     0.014 A 
ENDBRANCH   4  30
TORSDOF 6
