REMARK  3 active torsions:
REMARK  status: ('A' for Active; 'I' for Inactive)
REMARK    1  A    between atoms: N_2  and  C_1 
REMARK    2  A    between atoms: N_3  and  C_1 
REMARK    3  A    between atoms: C_6  and  N_3 
ROOT
ATOM      1  C   UNL d   1       0.988   0.131  -0.188  0.00  0.00     0.170 C 
ATOM      2  S   UNL d   1       2.610   0.250  -0.564  0.00  0.00    -0.041 SA
ENDROOT
BRANCH   1   3
ATOM      3  N   UNL d   1       0.192   1.222   0.227  0.00  0.00    -0.357 N 
ATOM      4  C   UNL d   1      -0.916   1.594  -0.671  0.00  0.00     0.135 C 
ATOM      5  C   UNL d   1      -2.094   2.246   0.047  0.00  0.00     0.093 C 
ATOM      6  S   UNL d   1      -1.611   3.767   0.923  0.00  0.00    -0.166 SA
ATOM      7  C   UNL d   1      -0.203   3.079   1.853  0.00  0.00     0.093 C 
ATOM      8  C   UNL d   1       0.795   2.357   0.948  0.00  0.00     0.135 C 
ENDBRANCH   1   3
BRANCH   1   9
ATOM      9  N   UNL d   1       0.213  -1.013  -0.231  0.00  0.00    -0.359 N 
ATOM     10  H   UNL d   1      -0.655  -0.902   0.275  0.00  0.00     0.162 HD
BRANCH   9  11
ATOM     11  C   UNL d   1       0.442  -2.355  -0.812  0.00  0.00     0.021 C 
ATOM     12  C   UNL d   1       1.641  -3.088  -0.193  0.00  0.00     0.037 C 
ATOM     13  C   UNL d   1      -0.816  -3.200  -0.513  0.00  0.00     0.037 C 
ATOM     14  C   UNL d   1       0.591  -2.255  -2.337  0.00  0.00     0.037 C 
ENDBRANCH   9  11
ENDBRANCH   1   9
TORSDOF 3
