REMARK  3 active torsions:
REMARK  status: ('A' for Active; 'I' for Inactive)
REMARK    1  A    between atoms: N_7  and  C_5 
REMARK    2  A    between atoms: C_8  and  C_6 
REMARK    3  A    between atoms: C_10  and  N_7 
ROOT
ATOM      1  N   UNL d   1      -1.087  -0.630  -0.117  0.00  0.00    -0.298 N 
ATOM      2  HN  UNL d   1      -2.012  -1.048  -0.215  1.00  0.00     0.187 HD
ATOM      3  N   UNL d   1      -0.962   0.744  -0.056  0.00  0.00    -0.285 N 
ATOM      4  HN  UNL d   1      -1.800   1.324  -0.106  1.00  0.00     0.188 HD
ATOM      5  C   UNL d   1       0.241   1.334   0.069  0.00  0.00     0.120 A 
ATOM      6  C   UNL d   1       0.001  -1.423  -0.049  0.00  0.00     0.058 A 
ATOM      7  C   UNL d   1       1.262  -0.848   0.017  0.00  0.00     0.035 A 
ATOM      8  C   UNL d   1       1.382   0.543   0.076  0.00  0.00     0.052 A 
ENDROOT
BRANCH   5   9
ATOM      9  N   UNL d   1       0.384   2.724   0.276  0.00  0.00    -0.341 N 
ATOM     10  H   UNL d   1       1.087   3.113  -0.337  0.00  0.00     0.167 HD
BRANCH   9  11
ATOM     11  C   UNL d   1      -0.605   3.656   0.657  0.00  0.00     0.033 A 
ATOM     12  C   UNL d   1      -1.797   3.283   1.292  0.00  0.00     0.031 A 
ATOM     13  C   UNL d   1      -2.725   4.239   1.718  0.00  0.00     0.026 A 
ATOM     14  C   UNL d   1      -2.454   5.589   1.544  0.00  0.00     0.034 A 
ATOM     15  C   UNL d   1      -1.258   5.990   0.956  0.00  0.00     0.026 A 
ATOM     16 CL   UNL d   1      -3.587   6.769   2.075  0.00  0.00    -0.084 Cl
ATOM     17  C   UNL d   1      -0.336   5.027   0.524  0.00  0.00     0.031 A 
ENDBRANCH   9  11
ENDBRANCH   5   9
BRANCH   6  18
ATOM     18  C   UNL d   1      -0.252  -2.874  -0.002  0.00  0.00    -0.008 A 
ATOM     19  C   UNL d   1      -1.392  -3.431  -0.614  0.00  0.00     0.014 A 
ATOM     20  C   UNL d   1      -1.660  -4.801  -0.550  0.00  0.00     0.001 A 
ATOM     21  C   UNL d   1      -0.795  -5.649   0.135  0.00  0.00     0.000 A 
ATOM     22  C   UNL d   1       0.335  -5.127   0.757  0.00  0.00     0.001 A 
ATOM     23  C   UNL d   1       0.600  -3.755   0.691  0.00  0.00     0.014 A 
ENDBRANCH   6  18
TORSDOF 3
