REMARK  4 active torsions:
REMARK  status: ('A' for Active; 'I' for Inactive)
REMARK       I    between atoms: C_3  and  N_4 
REMARK    1  A    between atoms: C_8  and  C_3 
REMARK    2  A    between atoms: N_4  and  C_5 
REMARK    3  A    between atoms: S_6  and  C_8 
REMARK    4  A    between atoms: C_10  and  S_6 
ROOT
ATOM      1  N   UNL d   1      -0.080  -2.209  -0.279  0.00  0.00    -0.191 NA
ATOM      2  C   UNL d   1      -0.476  -1.128  -0.442  0.00  0.00     0.099 C 
ATOM      3  C   UNL d   1      -0.524   2.587  -0.775  0.00  0.00     0.036 A 
ATOM      4  C   UNL d   1      -0.962   0.203  -0.652  0.00  0.00     0.046 A 
ATOM      5  C   UNL d   1      -0.075   1.282  -0.570  0.00  0.00     0.052 A 
ATOM      6  C   UNL d   1      -2.762   1.725  -1.173  0.00  0.00     0.004 A 
ATOM      7  C   UNL d   1      -1.869   2.799  -1.104  0.00  0.00     0.029 A 
ATOM      8  C   UNL d   1      -2.310   0.426  -0.941  0.00  0.00     0.023 A 
ENDROOT
BRANCH   3   9
ATOM      9  N   UNL d   1       0.315   3.713  -0.663  0.00  0.00    -0.326 N 
ATOM     10  C   UNL d   1       1.549   3.768  -0.033  0.00  0.00     0.231 C 
ATOM     11  O   UNL d   1       2.121   2.817   0.496  0.00  0.00    -0.272 OA
ATOM     12  H   UNL d   1      -0.086   4.614  -0.909  0.00  0.00     0.169 HD
BRANCH  10  13
ATOM     13  C   UNL d   1       2.236   5.130  -0.072  0.00  0.00     0.182 C 
BRANCH  13  14
ATOM     14  S   UNL d   1       1.033   6.500  -0.091  0.00  0.00    -0.121 SA
BRANCH  14  15
ATOM     15  C   UNL d   1       2.050   7.968  -0.098  0.00  0.00     0.001 A 
ATOM     16  C   UNL d   1       3.446   8.000  -0.044  0.00  0.00     0.019 A 
ATOM     17  C   UNL d   1       4.129   9.225  -0.058  0.00  0.00     0.008 A 
ATOM     18  C   UNL d   1       3.429  10.434  -0.125  0.00  0.00    -0.062 A 
ATOM     19  C   UNL d   1       2.035  10.404  -0.174  0.00  0.00     0.008 A 
ATOM     20  C   UNL d   1       4.167  11.740  -0.145  0.00  0.00     0.048 C 
ATOM     21  C   UNL d   1       1.356   9.183  -0.160  0.00  0.00     0.019 A 
ENDBRANCH  14  15
ENDBRANCH  13  14
ENDBRANCH  10  13
ENDBRANCH   3   9
TORSDOF 4
