REMARK  4 active torsions:
REMARK  status: ('A' for Active; 'I' for Inactive)
REMARK    1  A    between atoms: C_5  and  N_1 
REMARK    2  A    between atoms: C_3  and  C_9 
REMARK    3  A    between atoms: C_8  and  C_10 
REMARK    4  A    between atoms: C_16  and  C_11 
ROOT
ATOM      1  N   UNL d   1      -4.145  -5.189  -1.150  0.00  0.00    -0.191 NA
ATOM      2  C   UNL d   1      -2.050  -4.979   0.371  0.00  0.00     0.054 C 
ATOM      3  C   UNL d   1      -3.217  -5.094  -0.460  0.00  0.00     0.100 C 
ATOM      4  C   UNL d   1      -1.671  -6.002   1.170  0.00  0.00     0.023 C 
ENDROOT
BRANCH   2   5
ATOM      5  C   UNL d   1      -1.243  -3.725   0.291  0.00  0.00    -0.015 A 
ATOM      6  C   UNL d   1      -1.186  -2.994  -0.913  0.00  0.00     0.015 A 
ATOM      7  C   UNL d   1      -0.449  -1.808  -1.014  0.00  0.00     0.037 A 
ATOM      8  C   UNL d   1       0.250  -1.334   0.099  0.00  0.00     0.102 A 
ATOM      9  C   UNL d   1       0.205  -2.034   1.309  0.00  0.00     0.037 A 
ATOM     10  C   UNL d   1      -0.545  -3.214   1.401  0.00  0.00     0.015 A 
BRANCH   8  11
ATOM     11  N   UNL d   1       1.034  -0.096  -0.003  0.00  0.00    -0.116 N 
ATOM     12  O   UNL d   1       1.641   0.285   1.007  0.00  0.00    -0.532 OA
ATOM     13  O   UNL d   1       1.045   0.491  -1.095  0.00  0.00    -0.532 OA
ENDBRANCH   8  11
ENDBRANCH   2   5
BRANCH   4  14
ATOM     14  C   UNL d   1      -2.356  -7.278   1.289  0.00  0.00     0.002 C 
ATOM     15  C   UNL d   1      -1.938  -8.289   2.070  0.00  0.00     0.011 C 
BRANCH  15  16
ATOM     16  C   UNL d   1      -2.618  -9.597   2.115  0.00  0.00    -0.036 A 
ATOM     17  C   UNL d   1      -3.235 -10.149   0.982  0.00  0.00     0.011 A 
ATOM     18  C   UNL d   1      -3.845 -11.405   1.036  0.00  0.00     0.001 A 
ATOM     19  C   UNL d   1      -3.830 -12.134   2.221  0.00  0.00     0.000 A 
ATOM     20  C   UNL d   1      -3.204 -11.608   3.350  0.00  0.00     0.001 A 
ATOM     21  C   UNL d   1      -2.598 -10.349   3.297  0.00  0.00     0.011 A 
ENDBRANCH  15  16
ENDBRANCH   4  14
TORSDOF 4
