REMARK  11 active torsions:
REMARK  status: ('A' for Active; 'I' for Inactive)
REMARK    1  A    between atoms: C_7  and  C_1 
REMARK    2  A    between atoms: O_14  and  C_1 
REMARK    3  A    between atoms: C_8  and  C_2 
REMARK    4  A    between atoms: O_15  and  C_2 
REMARK    5  A    between atoms: C_10  and  C_4 
REMARK    6  A    between atoms: C_11  and  C_5 
REMARK    7  A    between atoms: C_9  and  C_6 
REMARK    8  A    between atoms: O_24  and  C_10 
REMARK    9  A    between atoms: O_25  and  C_11 
REMARK   10  A    between atoms: C_31  and  O_24 
REMARK   11  A    between atoms: C_32  and  O_25 
ROOT
ATOM      1  C   UNL d   1       0.757   1.340  -0.307  0.00  0.00     0.371 C 
ATOM      2  C   UNL d   1       0.783  -1.168  -0.311  0.00  0.00     0.371 C 
ATOM      3  N   UNL d   1       1.470   0.085   0.017  0.00  0.00     0.174 N 
ATOM      4  C   UNL d   1      -0.624  -1.183   0.356  0.00  0.00     0.170 C 
ATOM      5  C   UNL d   1      -0.718   1.363   0.208  0.00  0.00     0.170 C 
ATOM      6  C   UNL d   1      -1.463   0.037  -0.103  0.00  0.00     0.061 C 
ATOM      7  H   UNL d   1       2.365   0.125  -0.472  0.00  0.00     0.324 HD
ENDROOT
BRANCH   6   8
ATOM      8  C   UNL d   1      -2.939  -0.047   0.316  0.00  0.00     0.008 A 
ATOM      9  C   UNL d   1      -3.919  -0.635  -0.513  0.00  0.00     0.043 A 
ATOM     10 CL   UNL d   1      -3.547  -1.360  -2.038  0.00  0.00    -0.084 Cl
ATOM     11  C   UNL d   1      -5.277  -0.656  -0.147  0.00  0.00     0.024 A 
ATOM     12  C   UNL d   1      -5.690  -0.104   1.063  0.00  0.00     0.005 A 
ATOM     13  C   UNL d   1      -4.739   0.452   1.909  0.00  0.00     0.043 A 
ATOM     14  C   UNL d   1      -3.393   0.471   1.537  0.00  0.00     0.124 A 
ATOM     15  F   UNL d   1      -2.535   1.024   2.400  0.00  0.00    -0.205 F 
ENDBRANCH   6   8
BRANCH   4  16
ATOM     16  C   UNL d   1      -0.449  -1.201   1.868  0.00  0.00     0.269 C 
ATOM     17  O   UNL d   1      -0.017  -0.276   2.554  0.00  0.00    -0.265 OA
BRANCH  16  18
ATOM     18  O   UNL d   1      -0.690  -2.459   2.354  0.00  0.00    -0.321 OA
BRANCH  18  19
ATOM     19  C   UNL d   1      -0.060  -2.771   3.609  0.00  0.00     0.174 C 
ATOM     20  C   UNL d   1       1.233  -3.504   3.304  0.00  0.00     0.034 C 
ENDBRANCH  18  19
ENDBRANCH  16  18
ENDBRANCH   4  16
BRANCH   5  21
ATOM     21  C   UNL d   1      -1.446   2.506  -0.452  0.00  0.00     0.269 C 
ATOM     22  O   UNL d   1      -1.564   2.590  -1.670  0.00  0.00    -0.265 OA
BRANCH  21  23
ATOM     23  O   UNL d   1      -1.890   3.410   0.445  0.00  0.00    -0.321 OA
BRANCH  23  24
ATOM     24  C   UNL d   1      -2.586   4.550  -0.090  0.00  0.00     0.174 C 
ATOM     25  C   UNL d   1      -1.601   5.598  -0.564  0.00  0.00     0.034 C 
ENDBRANCH  23  24
ENDBRANCH  21  23
ENDBRANCH   5  21
BRANCH   2  26
ATOM     26  C   UNL d   1       0.697  -1.596  -1.860  0.00  0.00     0.449 C 
ATOM     27  F   UNL d   1       1.463  -0.819  -2.657  0.00  0.00    -0.166 F 
ATOM     28  F   UNL d   1       1.183  -2.857  -2.023  0.00  0.00    -0.166 F 
ATOM     29  F   UNL d   1      -0.554  -1.595  -2.350  0.00  0.00    -0.166 F 
ENDBRANCH   2  26
BRANCH   2  30
ATOM     30  O   UNL d   1       1.560  -2.188   0.347  0.00  0.00    -0.355 OA
ATOM     31  H   UNL d   1       2.384  -2.297  -0.160  0.00  0.00     0.213 HD
ENDBRANCH   2  30
BRANCH   1  32
ATOM     32  C   UNL d   1       1.533   2.602   0.331  0.00  0.00     0.449 C 
ATOM     33  F   UNL d   1       2.706   2.232   0.905  0.00  0.00    -0.166 F 
ATOM     34  F   UNL d   1       1.839   3.524  -0.614  0.00  0.00    -0.166 F 
ATOM     35  F   UNL d   1       0.813   3.238   1.281  0.00  0.00    -0.166 F 
ENDBRANCH   1  32
BRANCH   1  36
ATOM     36  O   UNL d   1       0.822   1.366  -1.735  0.00  0.00    -0.355 OA
ATOM     37  H   UNL d   1      -0.021   1.676  -2.128  0.00  0.00     0.213 HD
ENDBRANCH   1  36
TORSDOF 11
