REMARK  4 active torsions:
REMARK  status: ('A' for Active; 'I' for Inactive)
REMARK    1  A    between atoms: C_9  and  C_1 
REMARK    2  A    between atoms: C_3  and  C_2 
REMARK       I    between atoms: N_10  and  C_3 
REMARK    3  A    between atoms: C_7  and  N_10 
REMARK    4  A    between atoms: C_17  and  C_8 
ROOT
ATOM      1  C   UNL d   1      -1.536  -0.745  -0.180  0.00  0.00     0.086 A 
ATOM      2  C   UNL d   1      -0.242  -1.383  -0.109  0.00  0.00     0.093 A 
ATOM      3  N   UNL d   1      -1.377   0.591  -0.162  0.00  0.00    -0.259 N 
ATOM      4  HN  UNL d   1      -2.122   1.285  -0.221  1.00  0.00     0.195 HD
ATOM      5  O   UNL d   1      -0.049   0.852  -0.051  0.00  0.00    -0.241 OA
ATOM      6  C   UNL d   1       0.637  -0.307  -0.042  0.00  0.00     0.090 A 
ATOM      7  C   UNL d   1       2.103  -0.137   0.024  0.00  0.00     0.080 C 
ENDROOT
BRANCH   2   8
ATOM      8  C   UNL d   1       0.272  -2.750  -0.158  0.00  0.00     0.262 C 
ATOM      9  N   UNL d   1      -0.325  -3.665   0.688  0.00  0.00    -0.302 N 
ATOM     10  H   UNL d   1      -1.191  -3.471   1.164  0.00  0.00     0.171 HD
ATOM     11  O   UNL d   1       1.243  -2.997  -0.863  0.00  0.00    -0.267 OA
BRANCH   9  12
ATOM     12  C   UNL d   1       0.413  -4.746   1.133  0.00  0.00     0.168 A 
ATOM     13  S   UNL d   1      -0.329  -5.745   2.311  0.00  0.00    -0.037 SA
ATOM     14  C   UNL d   1       1.192  -6.529   2.501  0.00  0.00     0.074 A 
ATOM     15  N   UNL d   1       2.112  -6.106   1.659  0.00  0.00    -0.296 N 
ATOM     16  N   UNL d   1       1.654  -5.078   0.857  0.00  0.00    -0.279 N 
ATOM     17  HN  UNL d   1       3.054  -6.492   1.605  1.00  0.00     0.187 HD
ATOM     18  HN  UNL d   1       2.215  -4.628   0.134  1.00  0.00     0.189 HD
BRANCH  14  19
ATOM     19  C   UNL d   1       1.573  -7.577   3.556  0.00  0.00     0.044 A 
ATOM     20  C   UNL d   1       0.618  -8.663   4.002  0.00  0.00     0.012 A 
ATOM     21  C   UNL d   1       0.914  -7.529   4.923  0.00  0.00     0.012 A 
ENDBRANCH  14  19
ENDBRANCH   9  12
ENDBRANCH   2   8
BRANCH   1  22
ATOM     22  C   UNL d   1      -2.927  -1.196  -0.389  0.00  0.00     0.037 A 
ATOM     23  C   UNL d   1      -3.986  -0.558   0.314  0.00  0.00     0.048 A 
ATOM     24 CL   UNL d   1      -3.740   0.403   1.743  0.00  0.00    -0.083 Cl
ATOM     25  C   UNL d   1      -5.321  -0.673  -0.105  0.00  0.00     0.025 A 
ATOM     26  C   UNL d   1      -5.645  -1.470  -1.192  0.00  0.00     0.003 A 
ATOM     27  C   UNL d   1      -4.634  -2.174  -1.844  0.00  0.00     0.025 A 
ATOM     28  C   UNL d   1      -3.289  -2.032  -1.457  0.00  0.00     0.048 A 
ATOM     29 CL   UNL d   1      -2.136  -2.891  -2.417  0.00  0.00    -0.083 Cl
ENDBRANCH   1  22
TORSDOF 4
