REMARK  2 active torsions:
REMARK  status: ('A' for Active; 'I' for Inactive)
REMARK    1  A    between atoms: C_7  and  C_1 
REMARK    2  A    between atoms: N_12  and  C_4 
ROOT
ATOM      1  C   UNL d   1      -0.269   1.021  -0.009  0.00  0.00     0.077 A 
ATOM      2  S   UNL d   1       1.334   0.385  -0.035  0.00  0.00    -0.083 SA
ATOM      3  C   UNL d   1       0.802  -1.239   0.018  0.00  0.00     0.025 A 
ATOM      4  C   UNL d   1      -1.195  -0.005   0.009  0.00  0.00     0.048 A 
ATOM      5  C   UNL d   1      -0.578  -1.291   0.018  0.00  0.00     0.050 A 
ATOM      6  C   UNL d   1       1.734  -2.345   0.062  0.00  0.00     0.022 A 
ATOM      7  S   UNL d   1       1.292  -3.862   0.745  0.00  0.00    -0.101 SA
ATOM      8  C   UNL d   1       3.045  -2.376  -0.383  0.00  0.00     0.021 A 
ATOM      9  C   UNL d   1       2.837  -4.529   0.461  0.00  0.00     0.050 A 
ATOM     10  C   UNL d   1       3.681  -3.633  -0.153  0.00  0.00     0.008 A 
ENDROOT
BRANCH   1  11
ATOM     11  C   UNL d   1      -0.389   2.473  -0.008  0.00  0.00     0.164 C 
ATOM     12  O   UNL d   1       0.458   3.223  -0.501  0.00  0.00    -0.292 OA
ATOM     13  C   UNL d   1      -1.590   3.115   0.645  0.00  0.00     0.097 C 
ENDBRANCH   1  11
BRANCH   4  14
ATOM     14  N   UNL d   1      -2.537   0.106  -0.002  0.00  0.00    -0.398 N 
ATOM     15  H   UNL d   1      -3.038   0.969  -0.203  0.00  0.00     0.156 HD
ATOM     16  H   UNL d   1      -3.132  -0.715  -0.086  0.00  0.00     0.156 HD
ENDBRANCH   4  14
TORSDOF 2
