REMARK  7 active torsions:
REMARK  status: ('A' for Active; 'I' for Inactive)
REMARK    1  A    between atoms: O_10  and  C_1 
REMARK    2  A    between atoms: O_12  and  C_2 
REMARK    3  A    between atoms: O_11  and  C_3 
REMARK    4  A    between atoms: C_19  and  N_4 
REMARK    5  A    between atoms: C_9  and  C_8 
REMARK    6  A    between atoms: O_20  and  C_13 
REMARK    7  A    between atoms: C_14  and  C_19 
ROOT
ATOM      1  C   UNL d   1       1.394  -0.354  -0.052  0.00  0.00     0.135 A 
ATOM      2  C   UNL d   1       0.441  -1.392   0.056  0.00  0.00     0.105 A 
ATOM      3  C   UNL d   1       0.964   0.982  -0.111  0.00  0.00     0.105 A 
ATOM      4  C   UNL d   1      -0.407   1.264  -0.122  0.00  0.00     0.052 A 
ATOM      5  C   UNL d   1      -0.927  -1.098  -0.019  0.00  0.00     0.052 A 
ATOM      6  C   UNL d   1      -1.343   0.230  -0.104  0.00  0.00    -0.016 A 
ENDROOT
BRANCH   6   7
ATOM      7  C   UNL d   1      -2.786   0.527  -0.182  0.00  0.00     0.094 C 
ATOM      8  N   UNL d   1      -3.210   1.740  -0.211  0.00  0.00    -0.394 N 
ATOM      9  HN  UNL d   1      -2.580   2.537  -0.124  1.00  0.00     0.159 HD
BRANCH   8  10
ATOM     10  C   UNL d   1      -4.659   1.905  -0.375  0.00  0.00     0.157 C 
BRANCH  10  11
ATOM     11  C   UNL d   1      -4.987   3.125  -1.206  0.00  0.00    -0.040 A 
ATOM     12  C   UNL d   1      -4.146   3.532  -2.252  0.00  0.00     0.011 A 
ATOM     13  C   UNL d   1      -4.456   4.655  -3.020  0.00  0.00     0.037 A 
ATOM     14  C   UNL d   1      -5.627   5.372  -2.781  0.00  0.00     0.068 A 
ATOM     15  C   UNL d   1      -6.479   4.970  -1.753  0.00  0.00     0.037 A 
ATOM     16  C   UNL d   1      -6.163   3.849  -0.974  0.00  0.00     0.011 A 
BRANCH  14  17
ATOM     17  O   UNL d   1      -5.810   6.460  -3.589  0.00  0.00    -0.356 OA
ATOM     18  C   UNL d   1      -7.155   6.893  -3.750  0.00  0.00     0.210 C 
ENDBRANCH  14  17
ENDBRANCH  10  11
ENDBRANCH   8  10
ENDBRANCH   6   7
BRANCH   3  19
ATOM     19  O   UNL d   1       1.741   2.110  -0.089  0.00  0.00    -0.353 OA
ATOM     20  C   UNL d   1       2.977   2.048  -0.784  0.00  0.00     0.210 C 
ENDBRANCH   3  19
BRANCH   2  21
ATOM     21  O   UNL d   1       0.919  -2.668   0.241  0.00  0.00    -0.353 OA
ATOM     22  C   UNL d   1       0.021  -3.617   0.806  0.00  0.00     0.210 C 
ENDBRANCH   2  21
BRANCH   1  23
ATOM     23  O   UNL d   1       2.739  -0.611   0.048  0.00  0.00    -0.351 OA
ATOM     24  C   UNL d   1       3.241  -1.505  -0.946  0.00  0.00     0.210 C 
ENDBRANCH   1  23
TORSDOF 7
