REMARK  8 active torsions:
REMARK  status: ('A' for Active; 'I' for Inactive)
REMARK    1  A    between atoms: C_2  and  C_1 
REMARK    2  A    between atoms: C_3  and  C_1 
REMARK    3  A    between atoms: C_4  and  C_2 
REMARK    4  A    between atoms: C_6  and  C_2 
REMARK    5  A    between atoms: O_11  and  C_3 
REMARK    6  A    between atoms: O_12  and  C_4 
REMARK    7  A    between atoms: C_5  and  C_6 
REMARK    8  A    between atoms: O_13  and  C_5 
ROOT
ATOM      1  C   UNL d   1       0.274  -0.776   1.006  0.00  0.00     0.132 C 
ENDROOT
BRANCH   1   2
ATOM      2  C   UNL d   1       1.039   0.013  -0.037  0.00  0.00     0.021 C 
ATOM      3  C   UNL d   1       0.752   1.310  -0.261  0.00  0.00     0.027 C 
BRANCH   2   4
ATOM      4  C   UNL d   1       2.207  -0.528  -0.797  0.00  0.00     0.172 C 
ATOM      5  O   UNL d   1       3.029   0.200  -1.339  0.00  0.00    -0.646 OA
BRANCH   4   6
ATOM      6  O   UNL d   1       2.370  -1.859  -0.771  0.00  0.00    -0.773 OA
ATOM      7  H   UNL d   1       1.547  -2.401  -0.717  0.00  0.00     0.167 HD
ENDBRANCH   4   6
ENDBRANCH   2   4
ENDBRANCH   1   2
BRANCH   1   8
ATOM      8  C   UNL d   1      -0.486  -1.902   0.320  0.00  0.00     0.149 C 
ATOM      9  O   UNL d   1       0.085  -2.780  -0.319  0.00  0.00    -0.649 OA
BRANCH   8  10
ATOM     10  O   UNL d   1      -1.823  -1.869   0.453  0.00  0.00    -0.776 OA
ATOM     11  H   UNL d   1      -2.169  -1.214   1.093  0.00  0.00     0.167 HD
ENDBRANCH   8  10
ENDBRANCH   1   8
BRANCH   1  12
ATOM     12  C   UNL d   1       1.181  -1.324   2.115  0.00  0.00     0.130 C 
BRANCH  12  13
ATOM     13  C   UNL d   1       0.356  -2.055   3.140  0.00  0.00     0.140 C 
ATOM     14  O   UNL d   1      -0.825  -1.823   3.341  0.00  0.00    -0.650 OA
BRANCH  13  15
ATOM     15  O   UNL d   1       1.053  -2.981   3.830  0.00  0.00    -0.776 OA
ATOM     16  H   UNL d   1       1.988  -3.084   3.566  0.00  0.00     0.167 HD
ENDBRANCH  13  15
ENDBRANCH  12  13
ENDBRANCH   1  12
TORSDOF 8
