REMARK  5 active torsions:
REMARK  status: ('A' for Active; 'I' for Inactive)
REMARK    1  A    between atoms: C_11  and  N_3 
REMARK    2  A    between atoms: C_9  and  C_4 
REMARK    3  A    between atoms: O_8  and  C_5 
REMARK    4  A    between atoms: C_10  and  O_8 
REMARK    5  A    between atoms: C_12  and  C_13 
ROOT
ATOM      1  N   UNL d   1       0.702   0.507   0.446  0.00  0.00    -0.304 N 
ATOM      2  HN  UNL d   1       1.322   1.113   0.984  1.00  0.00     0.171 HD
ATOM      3  N   UNL d   1      -0.224  -1.214  -0.559  0.00  0.00    -0.236 N 
ATOM      4  C   UNL d   1       0.956  -0.696  -0.034  0.00  0.00     0.141 C 
ATOM      5  C   UNL d   1      -0.573   0.750   0.060  0.00  0.00     0.248 C 
ATOM      6  N   UNL d   1      -1.156  -0.229  -0.641  0.00  0.00    -0.256 N 
ATOM      7  HN  UNL d   1      -2.061  -0.234  -1.111  1.00  0.00     0.191 HD
ENDROOT
BRANCH   4   8
ATOM      8  C   UNL d   1       2.286  -1.309  -0.073  0.00  0.00     0.010 A 
ATOM      9  C   UNL d   1       2.708  -2.101  -1.148  0.00  0.00     0.016 A 
ATOM     10  C   UNL d   1       3.956  -2.723  -1.133  0.00  0.00     0.009 A 
ATOM     11  C   UNL d   1       4.859  -2.523  -0.075  0.00  0.00    -0.051 A 
ATOM     12  C   UNL d   1       4.451  -1.675   0.967  0.00  0.00     0.009 A 
ATOM     13  C   UNL d   1       3.183  -1.078   0.969  0.00  0.00     0.016 A 
BRANCH  11  14
ATOM     14  C   UNL d   1       6.229  -3.216  -0.102  0.00  0.00    -0.024 C 
ATOM     15  C   UNL d   1       7.128  -2.846   1.097  0.00  0.00     0.019 C 
ATOM     16  C   UNL d   1       6.035  -4.748  -0.080  0.00  0.00     0.019 C 
ATOM     17  C   UNL d   1       6.989  -2.821  -1.386  0.00  0.00     0.019 C 
ENDBRANCH  11  14
ENDBRANCH   4   8
BRANCH   3  18
ATOM     18  C   UNL d   1      -0.484  -2.536  -1.004  0.00  0.00     0.058 A 
ATOM     19  C   UNL d   1       0.115  -3.626  -0.355  0.00  0.00     0.031 A 
ATOM     20  C   UNL d   1       0.027  -4.904  -0.907  0.00  0.00     0.002 A 
ATOM     21  C   UNL d   1      -0.673  -5.096  -2.096  0.00  0.00     0.000 A 
ATOM     22  C   UNL d   1      -1.323  -4.023  -2.708  0.00  0.00     0.002 A 
ATOM     23  C   UNL d   1      -1.254  -2.741  -2.152  0.00  0.00     0.031 A 
ENDBRANCH   3  18
BRANCH   5  24
ATOM     24  O   UNL d   1      -1.310   1.858   0.255  0.00  0.00    -0.245 OA
BRANCH  24  25
ATOM     25  C   UNL d   1      -0.789   2.849   1.028  0.00  0.00     0.262 C 
ATOM     26  O   UNL d   1       0.292   2.881   1.608  0.00  0.00    -0.265 OA
ATOM     27  C   UNL d   1      -1.758   3.995   1.109  0.00  0.00     0.126 C 
ENDBRANCH  24  25
ENDBRANCH   5  24
TORSDOF 5
