REMARK  5 active torsions:
REMARK  status: ('A' for Active; 'I' for Inactive)
REMARK    1  A    between atoms: C_4  and  C_1 
REMARK    2  A    between atoms: C_8  and  N_5 
REMARK    3  A    between atoms: C_6  and  C_11 
REMARK    4  A    between atoms: C_9  and  C_8 
REMARK       I    between atoms: N_12  and  C_9 
REMARK    5  A    between atoms: C_14  and  N_12 
ROOT
ATOM      1  C   UNL d   1       3.201   0.817   0.285  0.00  0.00     0.241 C 
ATOM      2  N   UNL d   1       3.369  -0.460  -0.191  0.00  0.00    -0.326 N 
ATOM      3  O   UNL d   1       4.140   1.524   0.686  0.00  0.00    -0.271 OA
ATOM      4  H   UNL d   1       2.571  -0.874  -0.672  0.00  0.00     0.169 HD
ENDROOT
BRANCH   1   5
ATOM      5  C   UNL d   1       1.868   1.481   0.352  0.00  0.00     0.251 C 
BRANCH   5   6
ATOM      6  N   UNL d   1       0.641   0.941  -0.208  0.00  0.00    -0.294 N 
ATOM      7  N   UNL d   1       0.534  -0.206  -0.909  0.00  0.00    -0.294 N 
ATOM      8  C   UNL d   1      -0.768  -0.221  -1.302  0.00  0.00     0.133 A 
ATOM      9  HN  UNL d   1       1.259  -0.899  -1.099  1.00  0.00     0.187 HD
ATOM     10  C   UNL d   1      -1.463   0.926  -0.830  0.00  0.00     0.054 A 
ATOM     11  C   UNL d   1      -0.534   1.646  -0.135  0.00  0.00     0.113 A 
BRANCH   8  12
ATOM     12  C   UNL d   1      -1.412  -1.286  -2.155  0.00  0.00     0.433 C 
ATOM     13  F   UNL d   1      -0.610  -2.354  -2.400  0.00  0.00    -0.165 F 
ATOM     14  F   UNL d   1      -2.546  -1.768  -1.575  0.00  0.00    -0.165 F 
ATOM     15  F   UNL d   1      -1.789  -0.786  -3.364  0.00  0.00    -0.165 F 
ENDBRANCH   8  12
ENDBRANCH   5   6
ENDBRANCH   1   5
BRANCH   2  16
ATOM     16  C   UNL d   1       4.640  -1.097  -0.312  0.00  0.00     0.035 A 
ATOM     17  C   UNL d   1       5.778  -0.650   0.372  0.00  0.00     0.045 A 
ATOM     18  C   UNL d   1       7.065  -1.129   0.086  0.00  0.00     0.050 A 
ATOM     19  C   UNL d   1       7.195  -2.177  -0.831  0.00  0.00     0.016 A 
ATOM     20  C   UNL d   1       6.062  -2.705  -1.451  0.00  0.00     0.003 A 
ATOM     21  C   UNL d   1       4.789  -2.167  -1.203  0.00  0.00     0.029 A 
BRANCH  18  22
ATOM     22  C   UNL d   1       8.278  -0.475   0.700  0.00  0.00     0.417 C 
ATOM     23  F   UNL d   1       7.985   0.586   1.506  0.00  0.00    -0.166 F 
ATOM     24  F   UNL d   1       9.012  -1.328   1.466  0.00  0.00    -0.166 F 
ATOM     25  F   UNL d   1       9.133   0.009  -0.244  0.00  0.00    -0.166 F 
ENDBRANCH  18  22
ENDBRANCH   2  16
TORSDOF 5
