REMARK  7 active torsions:
REMARK  status: ('A' for Active; 'I' for Inactive)
REMARK    1  A    between atoms: C_2  and  C_1 
REMARK       I    between atoms: N_9  and  C_1 
REMARK       I    between atoms: N_6  and  C_2 
REMARK    2  A    between atoms: O_17  and  C_3 
REMARK    3  A    between atoms: O_18  and  C_4 
REMARK    4  A    between atoms: O_19  and  C_5 
REMARK    5  A    between atoms: C_16  and  N_6 
REMARK    6  A    between atoms: N_7  and  N_9 
REMARK    7  A    between atoms: C_14  and  C_15 
ROOT
ATOM      1  N   UNL d   1      -0.960   3.193  -1.240  0.00  0.00    -0.308 N 
ATOM      2  HN  UNL d   1      -1.367   3.564  -2.098  1.00  0.00     0.186 HD
ATOM      3  C   UNL d   1      -1.681   2.853  -0.218  0.00  0.00     0.118 C 
ENDROOT
BRANCH   1   4
ATOM      4  N   UNL d   1       0.380   3.018  -1.082  0.00  0.00    -0.262 N 
ATOM      5  C   UNL d   1       1.256   3.314  -2.113  0.00  0.00     0.328 C 
ATOM      6  O   UNL d   1       1.022   3.785  -3.214  0.00  0.00    -0.261 OA
ATOM      7  H   UNL d   1       0.766   2.622  -0.229  0.00  0.00     0.190 HD
BRANCH   5   8
ATOM      8  C   UNL d   1       2.711   2.988  -1.727  0.00  0.00     0.315 C 
ATOM      9  N   UNL d   1       3.616   3.448  -2.660  0.00  0.00    -0.319 N 
ATOM     10  H   UNL d   1       3.200   3.943  -3.445  0.00  0.00     0.169 HD
ATOM     11  O   UNL d   1       2.917   2.413  -0.665  0.00  0.00    -0.262 OA
BRANCH   9  12
ATOM     12  C   UNL d   1       5.019   3.362  -2.599  0.00  0.00     0.035 A 
ATOM     13  C   UNL d   1       5.706   2.632  -1.624  0.00  0.00     0.032 A 
ATOM     14  C   UNL d   1       7.103   2.617  -1.607  0.00  0.00     0.044 A 
ATOM     15  C   UNL d   1       7.811   3.333  -2.563  0.00  0.00     0.116 A 
ATOM     16  C   UNL d   1       7.146   4.053  -3.546  0.00  0.00     0.044 A 
ATOM     17  F   UNL d   1       9.149   3.329  -2.536  0.00  0.00    -0.206 F 
ATOM     18  C   UNL d   1       5.750   4.061  -3.570  0.00  0.00     0.032 A 
ENDBRANCH   9  12
ENDBRANCH   5   8
ENDBRANCH   1   4
BRANCH   3  19
ATOM     19  C   UNL d   1      -3.154   2.947  -0.253  0.00  0.00    -0.014 A 
ATOM     20  C   UNL d   1      -3.800   3.534  -1.337  0.00  0.00     0.052 A 
ATOM     21  C   UNL d   1      -5.198   3.616  -1.367  0.00  0.00     0.105 A 
ATOM     22  C   UNL d   1      -5.965   3.094  -0.298  0.00  0.00     0.135 A 
ATOM     23  C   UNL d   1      -5.297   2.522   0.806  0.00  0.00     0.105 A 
ATOM     24  C   UNL d   1      -3.895   2.453   0.816  0.00  0.00     0.052 A 
BRANCH  21  25
ATOM     25  O   UNL d   1      -5.850   4.296  -2.368  0.00  0.00    -0.353 OA
ATOM     26  C   UNL d   1      -5.200   4.323  -3.637  0.00  0.00     0.210 C 
ENDBRANCH  21  25
BRANCH  22  27
ATOM     27  O   UNL d   1      -7.323   3.281  -0.221  0.00  0.00    -0.351 OA
ATOM     28  C   UNL d   1      -8.099   2.829  -1.329  0.00  0.00     0.210 C 
ENDBRANCH  22  27
BRANCH  23  29
ATOM     29  O   UNL d   1      -5.823   2.025   1.971  0.00  0.00    -0.353 OA
ATOM     30  C   UNL d   1      -7.203   1.703   2.024  0.00  0.00     0.210 C 
ENDBRANCH  23  29
ENDBRANCH   3  19
TORSDOF 7
