REMARK  5 active torsions:
REMARK  status: ('A' for Active; 'I' for Inactive)
REMARK    1  A    between atoms: C_3  and  N_1 
REMARK    2  A    between atoms: S_12  and  C_3 
REMARK    3  A    between atoms: N_4  and  N_6 
REMARK    4  A    between atoms: N_11  and  C_8 
REMARK    5  A    between atoms: C_10  and  C_9 
ROOT
ATOM      1  N   UNL d   1       2.331   0.900  -2.378  0.00  0.00    -0.302 N 
ATOM      2  HN  UNL d   1       1.406   0.546  -2.619  1.00  0.00     0.186 HD
ATOM      3  C   UNL d   1       2.957   1.754  -3.134  0.00  0.00     0.032 C 
ATOM      4  C   UNL d   1       4.288   2.391  -2.805  0.00  0.00     0.070 C 
ENDROOT
BRANCH   1   5
ATOM      5  N   UNL d   1       2.990   0.498  -1.226  0.00  0.00    -0.280 N 
ATOM      6  C   UNL d   1       2.241   0.204  -0.203  0.00  0.00     0.159 C 
ATOM      7  HN  UNL d   1       4.007   0.435  -1.184  1.00  0.00     0.189 HD
BRANCH   6   8
ATOM      8  N   UNL d   1       0.882   0.347  -0.092  0.00  0.00    -0.332 N 
ATOM      9  C   UNL d   1       0.122  -0.083  -1.039  0.00  0.00     0.179 C 
ATOM     10  HN  UNL d   1       0.476   0.791   0.732  1.00  0.00     0.168 HD
BRANCH   9  11
ATOM     11  N   UNL d   1      -1.255  -0.032  -1.035  0.00  0.00    -0.386 N 
ATOM     12  C   UNL d   1      -2.040  -0.243  -2.238  0.00  0.00     0.149 C 
ATOM     13  C   UNL d   1      -1.999   0.329   0.160  0.00  0.00     0.149 C 
ENDBRANCH   9  11
ENDBRANCH   6   8
BRANCH   6  14
ATOM     14  S   UNL d   1       3.015  -0.362   1.284  0.00  0.00    -0.097 SA
ATOM     15  C   UNL d   1       4.755  -0.312   0.822  0.00  0.00     0.099 C 
ENDBRANCH   6  14
ENDBRANCH   1   5
BRANCH   3  16
ATOM     16  C   UNL d   1       2.309   2.112  -4.434  0.00  0.00    -0.012 A 
ATOM     17  C   UNL d   1       2.491   3.364  -5.034  0.00  0.00     0.016 A 
ATOM     18  C   UNL d   1       1.849   3.657  -6.239  0.00  0.00     0.043 A 
ATOM     19  C   UNL d   1       1.035   2.702  -6.843  0.00  0.00     0.116 A 
ATOM     20  C   UNL d   1       0.848   1.454  -6.263  0.00  0.00     0.043 A 
ATOM     21  F   UNL d   1       0.421   2.992  -7.997  0.00  0.00    -0.206 F 
ATOM     22  C   UNL d   1       1.482   1.159  -5.056  0.00  0.00     0.016 A 
ENDBRANCH   3  16
TORSDOF 5
