REMARK  6 active torsions:
REMARK  status: ('A' for Active; 'I' for Inactive)
REMARK    1  A    between atoms: S_11  and  C_2 
REMARK    2  A    between atoms: S_10  and  C_3 
REMARK    3  A    between atoms: C_23  and  S_10 
REMARK    4  A    between atoms: C_22  and  S_11 
REMARK    5  A    between atoms: C_18  and  C_22 
REMARK    6  A    between atoms: C_19  and  C_23 
ROOT
ATOM      1  S   UNL d   1       1.192  -0.016  -0.378  0.00  0.00    -0.038 SA
ATOM      2  C   UNL d   1       0.021   1.171   0.023  0.00  0.00     0.129 A 
ATOM      3  C   UNL d   1      -0.018  -1.199  -0.097  0.00  0.00     0.129 A 
ATOM      4  N   UNL d   1      -1.154   0.680   0.348  0.00  0.00    -0.287 N 
ATOM      5  HN  UNL d   1      -1.953   1.250   0.627  1.00  0.00     0.188 HD
ATOM      6  N   UNL d   1      -1.179  -0.699   0.269  0.00  0.00    -0.287 N 
ATOM      7  HN  UNL d   1      -2.004  -1.265   0.471  1.00  0.00     0.188 HD
ENDROOT
BRANCH   2   8
ATOM      8  S   UNL d   1       0.355   2.887  -0.016  0.00  0.00    -0.099 SA
BRANCH   8   9
ATOM      9  C   UNL d   1      -1.148   3.535   0.771  0.00  0.00     0.120 C 
BRANCH   9  10
ATOM     10  C   UNL d   1      -1.190   5.045   0.739  0.00  0.00    -0.047 A 
ATOM     11  C   UNL d   1      -0.528   5.804   1.718  0.00  0.00     0.033 A 
ATOM     12  C   UNL d   1      -0.574   7.203   1.690  0.00  0.00     0.056 A 
ATOM     13 CL   UNL d   1       0.260   8.059   2.939  0.00  0.00    -0.083 Cl
ATOM     14  C   UNL d   1      -1.281   7.859   0.677  0.00  0.00     0.055 A 
ATOM     15  C   UNL d   1      -1.933   7.111  -0.307  0.00  0.00     0.026 A 
ATOM     16 CL   UNL d   1      -1.392   9.580   0.585  0.00  0.00    -0.083 Cl
ATOM     17  C   UNL d   1      -1.884   5.715  -0.279  0.00  0.00     0.010 A 
ENDBRANCH   9  10
ENDBRANCH   8   9
ENDBRANCH   2   8
BRANCH   3  18
ATOM     18  S   UNL d   1       0.169  -2.921  -0.345  0.00  0.00    -0.099 SA
BRANCH  18  19
ATOM     19  C   UNL d   1       1.784  -3.249   0.410  0.00  0.00     0.120 C 
BRANCH  19  20
ATOM     20  C   UNL d   1       2.103  -4.726   0.397  0.00  0.00    -0.047 A 
ATOM     21  C   UNL d   1       1.750  -5.545   1.483  0.00  0.00     0.033 A 
ATOM     22  C   UNL d   1       2.030  -6.918   1.463  0.00  0.00     0.056 A 
ATOM     23 CL   UNL d   1       1.569  -7.850   2.844  0.00  0.00    -0.083 Cl
ATOM     24  C   UNL d   1       2.661  -7.487   0.354  0.00  0.00     0.055 A 
ATOM     25  C   UNL d   1       3.008  -6.681  -0.735  0.00  0.00     0.026 A 
ATOM     26 CL   UNL d   1       3.038  -9.170   0.259  0.00  0.00    -0.083 Cl
ATOM     27  C   UNL d   1       2.729  -5.311  -0.714  0.00  0.00     0.010 A 
ENDBRANCH  19  20
ENDBRANCH  18  19
ENDBRANCH   3  18
TORSDOF 6
