REMARK  5 active torsions:
REMARK  status: ('A' for Active; 'I' for Inactive)
REMARK    1  A    between atoms: N_3  and  C_1 
REMARK    2  A    between atoms: O_4  and  C_2 
REMARK    3  A    between atoms: C_6  and  O_4 
REMARK    4  A    between atoms: C_5  and  C_8 
REMARK    5  A    between atoms: C_11  and  C_6 
ROOT
ATOM      1  C   UNL d   1       2.161  -1.171   0.240  0.00  0.00     0.139 A 
ATOM      2  C   UNL d   1       0.777  -1.019   0.419  0.00  0.00     0.130 A 
ATOM      3  C   UNL d   1       2.979  -0.038   0.043  0.00  0.00     0.055 A 
ATOM      4  C   UNL d   1       2.424   1.251   0.033  0.00  0.00     0.051 A 
ATOM      5  C   UNL d   1       0.223   0.270   0.410  0.00  0.00     0.048 A 
ATOM      6  C   UNL d   1       1.037   1.389   0.198  0.00  0.00     0.038 A 
ATOM      7 BR   UNL d   1      -1.613   0.594   0.779  0.00  0.00    -0.048 Br
ENDROOT
BRANCH   2   8
ATOM      8  O   UNL d   1      -0.028  -2.114   0.780  0.00  0.00    -0.271 OA
BRANCH   8   9
ATOM      9  C   UNL d   1      -0.920  -2.577  -0.178  0.00  0.00     0.298 C 
ATOM     10  O   UNL d   1      -1.080  -2.119  -1.298  0.00  0.00    -0.259 OA
BRANCH   9  11
ATOM     11  C   UNL d   1      -1.707  -3.706   0.393  0.00  0.00     0.040 A 
ATOM     12  C   UNL d   1      -1.253  -4.432   1.505  0.00  0.00     0.024 A 
ATOM     13  C   UNL d   1      -1.996  -5.508   2.010  0.00  0.00    -0.061 A 
ATOM     14  C   UNL d   1      -1.497  -6.297   3.185  0.00  0.00     0.048 C 
ATOM     15  C   UNL d   1      -3.207  -5.849   1.398  0.00  0.00     0.007 A 
ATOM     16  C   UNL d   1      -3.667  -5.130   0.293  0.00  0.00     0.002 A 
ATOM     17  C   UNL d   1      -2.919  -4.064  -0.213  0.00  0.00     0.017 A 
ENDBRANCH   9  11
ENDBRANCH   8   9
ENDBRANCH   2   8
BRANCH   1  18
ATOM     18  N   UNL d   1       2.820  -2.486   0.298  0.00  0.00    -0.113 N 
ATOM     19  O   UNL d   1       2.116  -3.503   0.332  0.00  0.00    -0.532 OA
ATOM     20  O   UNL d   1       4.059  -2.502   0.314  0.00  0.00    -0.532 OA
ENDBRANCH   1  18
BRANCH   4  21
ATOM     21  C   UNL d   1       3.290   2.482  -0.116  0.00  0.00     0.417 C 
ATOM     22  F   UNL d   1       4.623   2.209  -0.104  0.00  0.00    -0.166 F 
ATOM     23  F   UNL d   1       3.049   3.149  -1.275  0.00  0.00    -0.166 F 
ATOM     24  F   UNL d   1       3.082   3.377   0.888  0.00  0.00    -0.166 F 
ENDBRANCH   4  21
TORSDOF 5
