REMARK  4 active torsions:
REMARK  status: ('A' for Active; 'I' for Inactive)
REMARK    1  A    between atoms: N_2  and  C_1 
REMARK    2  A    between atoms: N_6  and  C_1 
REMARK    3  A    between atoms: C_3  and  N_2 
REMARK    4  A    between atoms: N_4  and  N_6 
ROOT
ATOM      1  N   UNL d   1       0.213   0.848   0.941  0.00  0.00    -0.332 N 
ATOM      2  H   UNL d   1       0.645   0.888   0.030  0.00  0.00     0.168 HD
ENDROOT
BRANCH   1   3
ATOM      3  C   UNL d   1      -1.092   0.355   0.953  0.00  0.00     0.191 C 
ATOM      4  S   UNL d   1      -2.384   1.056   1.770  0.00  0.00    -0.039 SA
BRANCH   3   5
ATOM      5  N   UNL d   1      -1.199  -0.774   0.135  0.00  0.00    -0.276 N 
ATOM      6  H   UNL d   1      -0.331  -1.177  -0.195  0.00  0.00     0.189 HD
BRANCH   5   7
ATOM      7  N   UNL d   1      -2.244  -1.634   0.322  0.00  0.00    -0.307 N 
ATOM      8  C   UNL d   1      -2.357  -2.691  -0.418  0.00  0.00    -0.004 C 
ATOM      9  C   UNL d   1      -1.508  -3.042  -1.614  0.00  0.00     0.064 C 
ATOM     10  C   UNL d   1      -3.446  -3.672  -0.053  0.00  0.00     0.064 C 
ATOM     11  HN  UNL d   1      -2.936  -1.444   1.046  1.00  0.00     0.186 HD
ENDBRANCH   5   7
ENDBRANCH   3   5
ENDBRANCH   1   3
BRANCH   1  12
ATOM     12  C   UNL d   1       0.915   1.452   2.014  0.00  0.00     0.040 A 
ATOM     13  C   UNL d   1       2.007   2.307   1.775  0.00  0.00    -0.035 A 
ATOM     14  C   UNL d   1       2.732   2.814   2.875  0.00  0.00     0.015 A 
ATOM     15  C   UNL d   1       2.462   2.747   0.409  0.00  0.00     0.050 C 
ATOM     16  C   UNL d   1       2.391   2.492   4.194  0.00  0.00    -0.061 A 
ATOM     17  C   UNL d   1       1.313   1.640   4.416  0.00  0.00     0.009 A 
ATOM     18  C   UNL d   1       3.180   3.048   5.341  0.00  0.00     0.048 C 
ATOM     19  C   UNL d   1       0.593   1.121   3.338  0.00  0.00     0.030 A 
ENDBRANCH   1  12
TORSDOF 4
