REMARK  3 active torsions:
REMARK  status: ('A' for Active; 'I' for Inactive)
REMARK    1  A    between atoms: C_7  and  N_1 
REMARK    2  A    between atoms: C_8  and  N_4 
REMARK    3  A    between atoms: C_9  and  C_7 
ROOT
ATOM      1  N   UNL d   1      -0.415   0.972  -0.161  0.00  0.00    -0.293 N 
ATOM      2  C   UNL d   1       0.877   0.533  -0.077  0.00  0.00     0.146 A 
ATOM      3  C   UNL d   1      -1.399   0.019  -0.285  0.00  0.00     0.235 A 
ATOM      4  N   UNL d   1       1.871   1.353  -0.012  0.00  0.00    -0.366 N 
ATOM      5  HN  UNL d   1       1.687   2.356  -0.038  1.00  0.00     0.162 HD
ATOM      6  S   UNL d   1       0.943  -1.207  -0.090  0.00  0.00    -0.085 SA
ATOM      7  C   UNL d   1      -0.845  -1.379  -0.222  0.00  0.00     0.185 A 
ATOM      8  O   UNL d   1      -2.594   0.243  -0.448  0.00  0.00    -0.272 OA
ENDROOT
BRANCH   1   9
ATOM      9  C   UNL d   1      -0.753   2.386  -0.149  0.00  0.00     0.180 C 
BRANCH   9  10
ATOM     10  C   UNL d   1      -0.888   2.864   1.271  0.00  0.00     0.001 A 
ATOM     11  S   UNL d   1      -2.422   2.894   2.037  0.00  0.00    -0.105 SA
ATOM     12  C   UNL d   1      -1.760   3.506   3.489  0.00  0.00     0.050 A 
ATOM     13  C   UNL d   1      -0.400   3.696   3.397  0.00  0.00     0.008 A 
ATOM     14  C   UNL d   1       0.102   3.331   2.115  0.00  0.00     0.017 A 
ENDBRANCH   9  10
ENDBRANCH   1   9
BRANCH   4  15
ATOM     15  C   UNL d   1       3.220   0.899   0.095  0.00  0.00     0.083 A 
ATOM     16  C   UNL d   1       4.141   1.818   0.858  0.00  0.00     0.027 A 
ATOM     17  C   UNL d   1       4.246   1.732  -0.629  0.00  0.00     0.027 A 
ENDBRANCH   4  15
TORSDOF 3
