REMARK  2 active torsions:
REMARK  status: ('A' for Active; 'I' for Inactive)
REMARK    1  A    between atoms: N_7  and  C_4 
REMARK    2  A    between atoms: C_9  and  N_7 
ROOT
ATOM      1  C   UNL d   1      -2.374  -0.682   0.194  0.00  0.00     0.103 A 
ATOM      2  C   UNL d   1      -1.264  -1.667   0.094  0.00  0.00     0.200 A 
ATOM      3  C   UNL d   1      -1.776   0.675   0.331  0.00  0.00     0.200 A 
ATOM      4  C   UNL d   1      -3.689  -0.945   0.132  0.00  0.00     0.132 C 
ATOM      5  C   UNL d   1      -0.031  -0.873   0.086  0.00  0.00     0.029 A 
ATOM      6  C   UNL d   1      -0.329   0.480   0.203  0.00  0.00     0.029 A 
ATOM      7  C   UNL d   1      -4.179  -2.294   0.052  0.00  0.00     0.118 C 
ATOM      8  N   UNL d   1      -4.652  -3.350  -0.013  0.00  0.00    -0.190 NA
ATOM      9  O   UNL d   1      -1.329  -2.873   0.001  0.00  0.00    -0.286 OA
ATOM     10  O   UNL d   1      -2.316   1.742   0.530  0.00  0.00    -0.286 OA
ATOM     11  C   UNL d   1       0.659   1.448   0.179  0.00  0.00     0.016 A 
ATOM     12  C   UNL d   1       1.271  -1.320  -0.045  0.00  0.00     0.016 A 
ATOM     13  C   UNL d   1       1.981   1.016   0.039  0.00  0.00     0.001 A 
ATOM     14  C   UNL d   1       2.285  -0.357  -0.065  0.00  0.00     0.001 A 
ENDROOT
BRANCH   4  15
ATOM     15  N   UNL d   1      -4.716  -0.004   0.146  0.00  0.00    -0.344 N 
ATOM     16  H   UNL d   1      -5.549  -0.322   0.652  0.00  0.00     0.167 HD
BRANCH  15  17
ATOM     17  C   UNL d   1      -5.152   0.704  -1.014  0.00  0.00     0.072 A 
ATOM     18  C   UNL d   1      -6.376   1.398  -0.960  0.00  0.00     0.145 A 
ATOM     19  C   UNL d   1      -6.856   2.135  -2.036  0.00  0.00     0.086 A 
ATOM     20  F   UNL d   1      -7.121   1.322   0.155  0.00  0.00    -0.204 F 
ATOM     21  C   UNL d   1      -6.091   2.203  -3.189  0.00  0.00     0.119 A 
ATOM     22  C   UNL d   1      -4.859   1.565  -3.269  0.00  0.00     0.044 A 
ATOM     23  F   UNL d   1      -6.542   2.896  -4.243  0.00  0.00    -0.206 F 
ATOM     24  C   UNL d   1      -4.383   0.827  -2.180  0.00  0.00     0.036 A 
ENDBRANCH  15  17
ENDBRANCH   4  15
TORSDOF 2
