REMARK  5 active torsions:
REMARK  status: ('A' for Active; 'I' for Inactive)
REMARK    1  A    between atoms: N_4  and  C_1 
REMARK    2  A    between atoms: N_5  and  C_1 
REMARK    3  A    between atoms: C_7  and  N_4 
REMARK    4  A    between atoms: N_8  and  N_5 
REMARK    5  A    between atoms: C_10  and  N_8 
ROOT
ATOM      1  C   UNL d   1       1.185  -0.110   0.109  0.00  0.00     0.186 C 
ATOM      2  S   UNL d   1       2.834  -0.354   0.263  0.00  0.00    -0.040 SA
ENDROOT
BRANCH   1   3
ATOM      3  N   UNL d   1       0.526   1.030  -0.289  0.00  0.00    -0.332 N 
ATOM      4  H   UNL d   1      -0.370   0.833  -0.716  0.00  0.00     0.168 HD
BRANCH   3   5
ATOM      5  C   UNL d   1       0.982   2.362  -0.282  0.00  0.00     0.035 A 
ATOM      6  C   UNL d   1       0.498   3.251  -1.246  0.00  0.00     0.053 A 
ATOM      7  C   UNL d   1       0.896   4.595  -1.225  0.00  0.00     0.042 A 
ATOM      8 CL   UNL d   1       0.321   5.627  -2.488  0.00  0.00    -0.084 Cl
ATOM      9  C   UNL d   1       1.736   5.085  -0.214  0.00  0.00    -0.040 A 
ATOM     10  C   UNL d   1       2.202   4.187   0.754  0.00  0.00     0.011 A 
ATOM     11  C   UNL d   1       2.137   6.530  -0.127  0.00  0.00     0.050 C 
ATOM     12  C   UNL d   1       1.830   2.842   0.716  0.00  0.00     0.030 A 
ENDBRANCH   3   5
ENDBRANCH   1   3
BRANCH   1  13
ATOM     13  N   UNL d   1       0.361  -1.191   0.355  0.00  0.00    -0.297 N 
ATOM     14  H   UNL d   1       0.837  -2.042   0.648  0.00  0.00     0.183 HD
BRANCH  13  15
ATOM     15  N   UNL d   1      -1.042  -1.085   0.460  0.00  0.00    -0.230 NA
ATOM     16  H   UNL d   1      -1.452  -1.804  -0.142  0.00  0.00     0.147 HD
BRANCH  15  17
ATOM     17  C   UNL d   1      -1.534  -1.284   1.850  0.00  0.00     0.019 C 
ATOM     18  C   UNL d   1      -1.147  -0.091   2.738  0.00  0.00     0.033 C 
ATOM     19  C   UNL d   1      -3.071  -1.363   1.776  0.00  0.00     0.033 C 
ATOM     20  C   UNL d   1      -1.020  -2.595   2.477  0.00  0.00     0.033 C 
ENDBRANCH  15  17
ENDBRANCH  13  15
ENDBRANCH   1  13
TORSDOF 5
