REMARK  6 active torsions:
REMARK  status: ('A' for Active; 'I' for Inactive)
REMARK    1  A    between atoms: C_2  and  S_1 
REMARK    2  A    between atoms: N_3  and  S_1 
REMARK    3  A    between atoms: C_4  and  C_6 
REMARK    4  A    between atoms: C_5  and  C_7 
REMARK    5  A    between atoms: C_10  and  C_17 
REMARK    6  A    between atoms: C_14  and  C_10 
ROOT
ATOM      1  S   UNL d   1       0.957   0.155  -0.019  0.00  0.00     0.243 S 
ATOM      2  O   UNL d   1       0.986   1.162  -1.061  0.00  0.00    -0.206 OA
ATOM      3  O   UNL d   1       0.145   0.325   1.174  0.00  0.00    -0.206 OA
ENDROOT
BRANCH   1   4
ATOM      4  C   UNL d   1       2.639  -0.100   0.533  0.00  0.00     0.076 A 
ATOM      5  C   UNL d   1       3.720   0.121  -0.324  0.00  0.00     0.041 A 
ATOM      6  C   UNL d   1       5.031  -0.102   0.134  0.00  0.00     0.050 A 
ATOM      7  C   UNL d   1       5.231  -0.516   1.466  0.00  0.00     0.032 A 
ATOM      8  C   UNL d   1       4.151  -0.686   2.348  0.00  0.00     0.050 A 
ATOM      9  C   UNL d   1       2.853  -0.486   1.863  0.00  0.00     0.041 A 
BRANCH   6  10
ATOM     10  C   UNL d   1       6.227   0.119  -0.765  0.00  0.00     0.417 C 
ATOM     11  F   UNL d   1       5.902   0.583  -2.003  0.00  0.00    -0.166 F 
ATOM     12  F   UNL d   1       7.101   1.025  -0.243  0.00  0.00    -0.166 F 
ATOM     13  F   UNL d   1       6.946  -1.019  -0.967  0.00  0.00    -0.166 F 
ENDBRANCH   6  10
BRANCH   8  14
ATOM     14  C   UNL d   1       4.386  -1.027   3.802  0.00  0.00     0.417 C 
ATOM     15  F   UNL d   1       3.238  -1.111   4.529  0.00  0.00    -0.166 F 
ATOM     16  F   UNL d   1       5.024  -2.216   3.970  0.00  0.00    -0.166 F 
ATOM     17  F   UNL d   1       5.155  -0.093   4.426  0.00  0.00    -0.166 F 
ENDBRANCH   8  14
ENDBRANCH   1   4
BRANCH   1  18
ATOM     18  N   UNL d   1       0.534  -1.358  -0.719  0.00  0.00    -0.206 NA
ATOM     19  C   UNL d   1       0.737  -2.515   0.197  0.00  0.00     0.108 C 
ATOM     20  C   UNL d   1       0.282  -3.830  -0.416  0.00  0.00     0.028 C 
ATOM     21  C   UNL d   1       0.817  -4.054  -1.832  0.00  0.00     0.063 C 
ATOM     22  C   UNL d   1       0.459  -2.849  -2.697  0.00  0.00     0.028 C 
ATOM     23  C   UNL d   1       1.014  -1.554  -2.107  0.00  0.00     0.108 C 
BRANCH  21  24
ATOM     24  C   UNL d   1       2.332  -4.298  -1.876  0.00  0.00     0.163 C 
ATOM     25  O   UNL d   1       3.096  -3.752  -1.079  0.00  0.00    -0.292 OA
BRANCH  24  26
ATOM     26  C   UNL d   1       2.921  -5.173  -2.936  0.00  0.00     0.010 A 
ATOM     27  C   UNL d   1       2.139  -5.856  -3.873  0.00  0.00     0.015 A 
ATOM     28  C   UNL d   1       2.735  -6.729  -4.784  0.00  0.00     0.007 A 
ATOM     29  C   UNL d   1       4.121  -6.918  -4.793  0.00  0.00    -0.062 A 
ATOM     30  C   UNL d   1       4.910  -6.198  -3.890  0.00  0.00     0.007 A 
ATOM     31  C   UNL d   1       4.731  -7.904  -5.742  0.00  0.00     0.048 C 
ATOM     32  C   UNL d   1       4.314  -5.333  -2.969  0.00  0.00     0.015 A 
ENDBRANCH  24  26
ENDBRANCH  21  24
ENDBRANCH   1  18
TORSDOF 6
