REMARK  5 active torsions:
REMARK  status: ('A' for Active; 'I' for Inactive)
REMARK    1  A    between atoms: C_4  and  S_1 
REMARK    2  A    between atoms: N_5  and  S_1 
REMARK    3  A    between atoms: C_7  and  C_2 
REMARK    4  A    between atoms: C_3  and  N_5 
REMARK    5  A    between atoms: O_19  and  C_7 
ROOT
ATOM      1  S   UNL d   1       0.803  -0.191   0.006  0.00  0.00     0.248 S 
ATOM      2  O   UNL d   1       0.956  -0.973   1.217  0.00  0.00    -0.205 OA
ATOM      3  O   UNL d   1      -0.283  -0.464  -0.909  0.00  0.00    -0.205 OA
ENDROOT
BRANCH   1   4
ATOM      4  C   UNL d   1       2.306  -0.304  -0.905  0.00  0.00     0.113 A 
ATOM      5  C   UNL d   1       2.471   0.440  -2.068  0.00  0.00     0.142 A 
ATOM      6  C   UNL d   1       3.611   0.276  -2.853  0.00  0.00     0.086 A 
ATOM      7  F   UNL d   1       1.547   1.325  -2.462  0.00  0.00    -0.204 F 
ATOM      8  C   UNL d   1       4.580  -0.644  -2.463  0.00  0.00     0.119 A 
ATOM      9  C   UNL d   1       4.433  -1.390  -1.298  0.00  0.00     0.044 A 
ATOM     10  F   UNL d   1       5.663  -0.826  -3.228  0.00  0.00    -0.206 F 
ATOM     11  C   UNL d   1       3.292  -1.220  -0.510  0.00  0.00     0.031 A 
ENDBRANCH   1   4
BRANCH   1  12
ATOM     12  N   UNL d   1       0.669   1.453   0.431  0.00  0.00    -0.180 NA
ATOM     13  H   UNL d   1      -0.267   1.735   0.129  0.00  0.00     0.146 HD
BRANCH  12  14
ATOM     14  C   UNL d   1       1.037   1.867   1.727  0.00  0.00     0.046 A 
ATOM     15  C   UNL d   1       2.207   2.529   2.066  0.00  0.00     0.102 A 
ATOM     16  S   UNL d   1       2.318   2.771   3.764  0.00  0.00    -0.094 SA
ATOM     17  C   UNL d   1       0.765   2.121   4.032  0.00  0.00     0.052 A 
ATOM     18  C   UNL d   1       0.184   1.686   2.862  0.00  0.00     0.033 A 
BRANCH  15  19
ATOM     19  C   UNL d   1       3.274   3.039   1.233  0.00  0.00     0.301 C 
ATOM     20  O   UNL d   1       4.423   3.278   1.591  0.00  0.00    -0.259 OA
BRANCH  19  21
ATOM     21  O   UNL d   1       2.804   3.288  -0.024  0.00  0.00    -0.322 OA
ATOM     22  C   UNL d   1       3.729   3.912  -0.914  0.00  0.00     0.213 C 
ENDBRANCH  19  21
ENDBRANCH  15  19
ENDBRANCH  12  14
ENDBRANCH   1  12
TORSDOF 5
