REMARK  5 active torsions:
REMARK  status: ('A' for Active; 'I' for Inactive)
REMARK    1  A    between atoms: C_7  and  N_1 
REMARK    2  A    between atoms: S_13  and  C_2 
REMARK    3  A    between atoms: C_8  and  C_14 
REMARK    4  A    between atoms: C_19  and  S_13 
REMARK    5  A    between atoms: C_14  and  C_19 
ROOT
ATOM      1  N   UNL d   1       2.425  -0.750  -0.068  0.00  0.00    -0.258 N 
ATOM      2  C   UNL d   1       2.343   0.642  -0.155  0.00  0.00     0.155 A 
ATOM      3  C   UNL d   1       1.256  -1.516   0.035  0.00  0.00     0.266 A 
ATOM      4  N   UNL d   1       1.233   1.304  -0.104  0.00  0.00    -0.335 N 
ATOM      5  HN  UNL d   1       1.239   2.324  -0.128  1.00  0.00     0.168 HD
ATOM      6  C   UNL d   1      -0.021  -0.780   0.041  0.00  0.00     0.059 A 
ATOM      7  C   UNL d   1       0.030   0.608  -0.015  0.00  0.00     0.049 A 
ATOM      8  O   UNL d   1       1.218  -2.742   0.139  0.00  0.00    -0.267 OA
ATOM      9  C   UNL d   1      -1.250  -1.450   0.078  0.00  0.00     0.019 A 
ATOM     10  C   UNL d   1      -1.164   1.332  -0.038  0.00  0.00     0.030 A 
ATOM     11  C   UNL d   1      -2.438  -0.720   0.044  0.00  0.00     0.001 A 
ATOM     12  C   UNL d   1      -2.395   0.672  -0.014  0.00  0.00     0.002 A 
ENDROOT
BRANCH   2  13
ATOM     13  S   UNL d   1       3.806   1.585  -0.462  0.00  0.00    -0.085 SA
BRANCH  13  14
ATOM     14  C   UNL d   1       3.080   3.238  -0.628  0.00  0.00     0.166 C 
BRANCH  14  15
ATOM     15  C   UNL d   1       4.078   4.323  -1.015  0.00  0.00     0.175 C 
ATOM     16  O   UNL d   1       5.240   4.066  -1.336  0.00  0.00    -0.291 OA
BRANCH  15  17
ATOM     17  C   UNL d   1       3.588   5.706  -1.008  0.00  0.00     0.053 A 
ATOM     18  S   UNL d   1       1.952   6.105  -0.670  0.00  0.00    -0.074 SA
ATOM     19  C   UNL d   1       2.254   7.758  -0.825  0.00  0.00     0.075 A 
ATOM     20 CL   UNL d   1       0.980   8.881  -0.575  0.00  0.00    -0.076 Cl
ATOM     21  C   UNL d   1       3.551   8.044  -1.150  0.00  0.00     0.033 A 
ATOM     22  C   UNL d   1       4.327   6.851  -1.266  0.00  0.00     0.025 A 
ENDBRANCH  15  17
ENDBRANCH  14  15
ENDBRANCH  13  14
ENDBRANCH   2  13
BRANCH   1  23
ATOM     23  C   UNL d   1       3.667  -1.458  -0.121  0.00  0.00     0.046 A 
ATOM     24  C   UNL d   1       4.690  -1.206   0.803  0.00  0.00     0.055 A 
ATOM     25  C   UNL d   1       5.922  -1.862   0.692  0.00  0.00     0.058 A 
ATOM     26 CL   UNL d   1       7.137  -1.488   1.863  0.00  0.00    -0.082 Cl
ATOM     27  C   UNL d   1       6.136  -2.780  -0.342  0.00  0.00     0.055 A 
ATOM     28  C   UNL d   1       5.105  -3.066  -1.239  0.00  0.00     0.028 A 
ATOM     29 CL   UNL d   1       7.646  -3.587  -0.570  0.00  0.00    -0.083 Cl
ATOM     30  C   UNL d   1       3.872  -2.420  -1.120  0.00  0.00     0.032 A 
ENDBRANCH   1  23
TORSDOF 5
