REMARK  3 active torsions:
REMARK  status: ('A' for Active; 'I' for Inactive)
REMARK    1  A    between atoms: C_16  and  C_3 
REMARK    2  A    between atoms: C_12  and  C_4 
REMARK    3  A    between atoms: C_7  and  C_17 
ROOT
ATOM      1  N   UNL d   1       1.403  -0.589  -0.018  0.00  0.00    -0.349 N 
ATOM      2  HN  UNL d   1       2.282  -1.106  -0.012  1.00  0.00     0.166 HD
ATOM      3  C   UNL d   1       0.206  -1.143  -0.057  0.00  0.00     0.084 A 
ATOM      4  C   UNL d   1       1.300   0.794   0.016  0.00  0.00     0.050 A 
ATOM      5  S   UNL d   1      -1.105  -0.021  -0.025  0.00  0.00    -0.081 SA
ATOM      6  C   UNL d   1       0.007   1.277   0.008  0.00  0.00     0.082 A 
ENDROOT
BRANCH   3   7
ATOM      7  C   UNL d   1      -0.044  -2.595  -0.078  0.00  0.00    -0.002 A 
ATOM      8  C   UNL d   1       0.865  -3.461   0.549  0.00  0.00     0.015 A 
ATOM      9  C   UNL d   1       0.657  -4.848   0.556  0.00  0.00     0.014 A 
ATOM     10  C   UNL d   1      -0.461  -5.404  -0.078  0.00  0.00    -0.008 A 
ATOM     11  C   UNL d   1      -1.359  -4.545  -0.723  0.00  0.00     0.014 A 
ATOM     12  C   UNL d   1      -1.155  -3.160  -0.722  0.00  0.00     0.015 A 
BRANCH  10  13
ATOM     13  C   UNL d   1      -0.702  -6.840  -0.106  0.00  0.00     0.063 A 
ATOM     14  N   UNL d   1      -1.376  -7.434  -1.170  0.00  0.00    -0.292 N 
ATOM     15  N   UNL d   1      -1.504  -8.740  -1.010  0.00  0.00    -0.061 NA
ATOM     16  HN  UNL d   1      -1.730  -6.921  -1.977  1.00  0.00     0.183 HD
ATOM     17  S   UNL d   1      -0.839  -9.286   0.423  0.00  0.00    -0.010 SA
ATOM     18  C   UNL d   1      -0.329  -7.717   0.898  0.00  0.00     0.096 A 
ENDBRANCH  10  13
ENDBRANCH   3   7
BRANCH   4  19
ATOM     19  C   UNL d   1       2.485   1.644   0.026  0.00  0.00    -0.007 A 
ATOM     20  C   UNL d   1       3.656   1.207  -0.608  0.00  0.00     0.039 A 
ATOM     21  C   UNL d   1       4.800   2.014  -0.631  0.00  0.00     0.056 A 
ATOM     22 CL   UNL d   1       6.196   1.411  -1.452  0.00  0.00    -0.083 Cl
ATOM     23  C   UNL d   1       4.784   3.267  -0.007  0.00  0.00     0.055 A 
ATOM     24  C   UNL d   1       3.626   3.703   0.638  0.00  0.00     0.026 A 
ATOM     25 CL   UNL d   1       6.153   4.319   0.004  0.00  0.00    -0.083 Cl
ATOM     26  C   UNL d   1       2.483   2.897   0.656  0.00  0.00     0.015 A 
ENDBRANCH   4  19
TORSDOF 3
