REMARK  5 active torsions:
REMARK  status: ('A' for Active; 'I' for Inactive)
REMARK    1  A    between atoms: O_3  and  C_1 
REMARK       I    between atoms: N_5  and  C_1 
REMARK    2  A    between atoms: C_2  and  O_3 
REMARK    3  A    between atoms: C_4  and  C_2 
REMARK    4  A    between atoms: C_11  and  N_5 
REMARK    5  A    between atoms: C_10  and  C_11 
ROOT
ATOM      1  C   UNL d   1       0.969   0.068   0.103  0.00  0.00     0.362 C 
ATOM      2  N   UNL d   1       0.484  -1.188  -0.047  0.00  0.00    -0.331 N 
ATOM      3  O   UNL d   1       2.010   0.273   0.713  0.00  0.00    -0.238 OA
ATOM      4  H   UNL d   1       1.016  -1.917   0.413  0.00  0.00     0.165 HD
ENDROOT
BRANCH   2   5
ATOM      5  C   UNL d   1      -0.564  -1.636  -0.937  0.00  0.00     0.181 C 
BRANCH   5   6
ATOM      6  C   UNL d   1      -1.052  -3.031  -0.589  0.00  0.00     0.026 A 
ATOM      7  N   UNL d   1      -0.606  -3.599   0.565  0.00  0.00    -0.368 N 
ATOM      8  C   UNL d   1      -1.067  -4.832   0.876  0.00  0.00     0.088 A 
ATOM      9  HN  UNL d   1       0.052  -3.112   1.174  1.00  0.00     0.165 HD
ATOM     10  C   UNL d   1      -1.950  -5.546   0.086  0.00  0.00     0.017 A 
ATOM     11  C   UNL d   1      -2.387  -4.963  -1.098  0.00  0.00     0.003 A 
ATOM     12  C   UNL d   1      -1.937  -3.690  -1.442  0.00  0.00     0.027 A 
ENDBRANCH   5   6
ENDBRANCH   2   5
BRANCH   1  13
ATOM     13  O   UNL d   1       0.185   1.035  -0.439  0.00  0.00    -0.286 OA
BRANCH  13  14
ATOM     14  C   UNL d   1       0.645   2.396  -0.325  0.00  0.00     0.125 C 
ATOM     15  C   UNL d   1       1.727   2.636  -1.392  0.00  0.00     0.055 C 
ATOM     16  C   UNL d   1      -0.557   3.295  -0.661  0.00  0.00     0.055 C 
BRANCH  14  17
ATOM     17  C   UNL d   1       1.129   2.867   1.079  0.00  0.00     0.157 C 
ATOM     18  O   UNL d   1       2.062   3.664   1.221  0.00  0.00    -0.295 OA
ATOM     19  C   UNL d   1       0.361   2.390   2.288  0.00  0.00     0.094 C 
ENDBRANCH  14  17
ENDBRANCH  13  14
ENDBRANCH   1  13
TORSDOF 5
