REMARK  6 active torsions:
REMARK  status: ('A' for Active; 'I' for Inactive)
REMARK    1  A    between atoms: N_5  and  C_1 
REMARK    2  A    between atoms: C_2  and  C_7 
REMARK    3  A    between atoms: C_3  and  N_5 
REMARK    4  A    between atoms: N_10  and  C_3 
REMARK    5  A    between atoms: N_6  and  C_4 
REMARK    6  A    between atoms: C_9  and  N_10 
ROOT
ATOM      1  C   UNL d   1       2.088  -0.107   0.234  0.00  0.00     0.056 A 
ATOM      2  C   UNL d   1       1.375  -1.214  -0.295  0.00  0.00     0.037 A 
ATOM      3  C   UNL d   1       0.166   1.360  -0.059  0.00  0.00     0.050 A 
ATOM      4  C   UNL d   1       1.498   1.162   0.322  0.00  0.00     0.047 A 
ATOM      5  C   UNL d   1       0.021  -1.006  -0.605  0.00  0.00     0.027 A 
ATOM      6  C   UNL d   1      -0.575   0.257  -0.489  0.00  0.00     0.018 A 
ENDROOT
BRANCH   1   7
ATOM      7  N   UNL d   1       3.339  -0.357   0.847  0.00  0.00    -0.332 N 
ATOM      8  H   UNL d   1       3.517  -1.344   0.996  0.00  0.00     0.168 HD
BRANCH   7   9
ATOM      9  C   UNL d   1       4.403   0.473   1.010  0.00  0.00     0.176 C 
ATOM     10  S   UNL d   1       4.867   1.686  -0.054  0.00  0.00    -0.041 SA
BRANCH   9  11
ATOM     11  N   UNL d   1       5.234   0.255   2.072  0.00  0.00    -0.333 N 
ATOM     12  H   UNL d   1       6.069   0.830   2.005  0.00  0.00     0.168 HD
BRANCH  11  13
ATOM     13  C   UNL d   1       5.094  -0.472   3.274  0.00  0.00     0.037 A 
ATOM     14  C   UNL d   1       6.203  -0.456   4.135  0.00  0.00     0.053 A 
ATOM     15  C   UNL d   1       6.162  -1.113   5.366  0.00  0.00     0.037 A 
ATOM     16 CL   UNL d   1       7.535  -1.060   6.402  0.00  0.00    -0.084 Cl
ATOM     17  C   UNL d   1       5.024  -1.803   5.761  0.00  0.00     0.048 A 
ATOM     18  C   UNL d   1       3.920  -1.813   4.914  0.00  0.00     0.037 A 
ATOM     19  C   UNL d   1       3.944  -1.146   3.684  0.00  0.00     0.053 A 
ATOM     20 CL   UNL d   1       2.497  -2.654   5.401  0.00  0.00    -0.084 Cl
ENDBRANCH  11  13
ENDBRANCH   9  11
ENDBRANCH   7   9
ENDBRANCH   1   7
BRANCH   2  21
ATOM     21  N   UNL d   1       2.013  -2.452  -0.487  0.00  0.00    -0.281 NA
ATOM     22  C   UNL d   1       1.229  -3.643  -0.827  0.00  0.00     0.096 C 
ATOM     23  C   UNL d   1       2.312  -4.670  -1.118  0.00  0.00     0.016 C 
ATOM     24  C   UNL d   1       3.343  -3.865  -1.894  0.00  0.00     0.016 C 
ATOM     25  C   UNL d   1       3.192  -2.425  -1.387  0.00  0.00     0.096 C 
ENDBRANCH   2  21
BRANCH   3  26
ATOM     26  C   UNL d   1      -0.475   2.719   0.067  0.00  0.00     0.417 C 
ATOM     27  F   UNL d   1       0.419   3.744   0.124  0.00  0.00    -0.166 F 
ATOM     28  F   UNL d   1      -1.303   3.009  -0.977  0.00  0.00    -0.166 F 
ATOM     29  F   UNL d   1      -1.240   2.827   1.189  0.00  0.00    -0.166 F 
ENDBRANCH   3  26
TORSDOF 6
