REMARK  4 active torsions:
REMARK  status: ('A' for Active; 'I' for Inactive)
REMARK    1  A    between atoms: C_7  and  N_2 
REMARK    2  A    between atoms: C_9  and  C_3 
REMARK    3  A    between atoms: C_10  and  C_4 
REMARK    4  A    between atoms: O_11  and  C_6 
ROOT
ATOM      1  C   UNL d   1      -0.748   1.273   0.035  0.00  0.00     0.266 A 
ATOM      2  N   UNL d   1      -1.418   0.027   0.038  0.00  0.00    -0.282 N 
ATOM      3  C   UNL d   1       0.754   1.233   0.023  0.00  0.00     0.076 A 
ATOM      4  C   UNL d   1      -0.729  -1.199   0.011  0.00  0.00     0.026 A 
ATOM      5  C   UNL d   1       0.618  -1.190   0.006  0.00  0.00     0.063 A 
ATOM      6  C   UNL d   1       1.365   0.039   0.018  0.00  0.00     0.084 A 
ATOM      7  O   UNL d   1      -1.325   2.362   0.042  0.00  0.00    -0.267 OA
ENDROOT
BRANCH   2   8
ATOM      8  C   UNL d   1      -2.839   0.109   0.072  0.00  0.00     0.042 A 
ATOM      9  C   UNL d   1      -3.568   0.144  -1.121  0.00  0.00     0.032 A 
ATOM     10  C   UNL d   1      -4.960   0.266  -1.084  0.00  0.00     0.026 A 
ATOM     11  C   UNL d   1      -5.614   0.360   0.144  0.00  0.00     0.034 A 
ATOM     12  C   UNL d   1      -4.891   0.343   1.336  0.00  0.00     0.026 A 
ATOM     13 CL   UNL d   1      -7.329   0.505   0.187  0.00  0.00    -0.084 Cl
ATOM     14  C   UNL d   1      -3.500   0.222   1.302  0.00  0.00     0.032 A 
ENDBRANCH   2   8
BRANCH   4  15
ATOM     15  C   UNL d   1      -1.507  -2.522  -0.018  0.00  0.00     0.028 C 
ATOM     16  C   UNL d   1      -1.666  -3.012  -1.462  0.00  0.00     0.016 C 
ATOM     17  C   UNL d   1      -0.875  -3.643   0.827  0.00  0.00     0.016 C 
ENDBRANCH   4  15
BRANCH   3  18
ATOM     18  C   UNL d   1       1.538   2.482   0.028  0.00  0.00    -0.018 A 
ATOM     19  C   UNL d   1       1.919   3.086  -1.177  0.00  0.00     0.012 A 
ATOM     20  C   UNL d   1       2.703   4.243  -1.168  0.00  0.00     0.001 A 
ATOM     21  C   UNL d   1       3.105   4.804   0.043  0.00  0.00     0.000 A 
ATOM     22  C   UNL d   1       2.723   4.213   1.247  0.00  0.00     0.001 A 
ATOM     23  C   UNL d   1       1.941   3.055   1.241  0.00  0.00     0.012 A 
ENDBRANCH   3  18
BRANCH   6  24
ATOM     24  O   UNL d   1       2.740  -0.081   0.016  0.00  0.00    -0.360 OA
ATOM     25  H   UNL d   1       2.993  -1.016   0.040  0.00  0.00     0.217 HD
ENDBRANCH   6  24
TORSDOF 4
