REMARK  7 active torsions:
REMARK  status: ('A' for Active; 'I' for Inactive)
REMARK    1  A    between atoms: C_3  and  C_1 
REMARK       I    between atoms: C_2  and  N_5 
REMARK    2  A    between atoms: C_4  and  C_2 
REMARK    3  A    between atoms: N_5  and  C_7 
REMARK    4  A    between atoms: O_17  and  C_8 
REMARK    5  A    between atoms: O_18  and  C_10 
REMARK    6  A    between atoms: O_19  and  C_12 
REMARK    7  A    between atoms: O_20  and  C_13 
ROOT
ATOM      1  C   UNL d   1      -0.752   1.213  -0.043  0.00  0.00     0.083 A 
ATOM      2  C   UNL d   1      -1.225  -0.115   0.101  0.00  0.00     0.051 A 
ATOM      3  C   UNL d   1      -0.878  -1.143  -0.790  0.00  0.00     0.069 A 
ATOM      4  C   UNL d   1       0.118   1.488  -1.103  0.00  0.00     0.086 A 
ATOM      5  C   UNL d   1       0.467   0.455  -1.989  0.00  0.00     0.076 A 
ATOM      6  C   UNL d   1      -0.023  -0.854  -1.857  0.00  0.00     0.097 A 
ENDROOT
BRANCH   3   7
ATOM      7  N   UNL d   1      -1.654  -2.320  -0.722  0.00  0.00    -0.320 N 
ATOM      8  C   UNL d   1      -1.258  -3.459  -0.033  0.00  0.00     0.261 C 
ATOM      9  O   UNL d   1      -0.118  -3.588   0.405  0.00  0.00    -0.267 OA
ATOM     10  H   UNL d   1      -2.658  -2.171  -0.692  0.00  0.00     0.169 HD
BRANCH   8  11
ATOM     11  C   UNL d   1      -2.320  -4.550   0.123  0.00  0.00     0.098 A 
ATOM     12  C   UNL d   1      -3.579  -4.476  -0.534  0.00  0.00     0.086 A 
ATOM     13  C   UNL d   1      -4.512  -5.515  -0.402  0.00  0.00     0.038 A 
ATOM     14  C   UNL d   1      -4.220  -6.637   0.359  0.00  0.00     0.005 A 
ATOM     15  C   UNL d   1      -2.998  -6.728   1.014  0.00  0.00     0.038 A 
ATOM     16  C   UNL d   1      -2.039  -5.705   0.899  0.00  0.00     0.086 A 
BRANCH  12  17
ATOM     17  O   UNL d   1      -3.918  -3.330  -1.216  0.00  0.00    -0.355 OA
ATOM     18  C   UNL d   1      -4.681  -3.514  -2.410  0.00  0.00     0.210 C 
ENDBRANCH  12  17
BRANCH  16  19
ATOM     19  O   UNL d   1      -0.857  -5.771   1.591  0.00  0.00    -0.355 OA
ATOM     20  C   UNL d   1      -0.351  -7.066   1.894  0.00  0.00     0.210 C 
ENDBRANCH  16  19
ENDBRANCH   8  11
ENDBRANCH   3   7
BRANCH   6  21
ATOM     21  O   UNL d   1       0.282  -1.639  -2.937  0.00  0.00    -0.354 OA
ATOM     22  C   UNL d   1       0.457  -3.027  -2.702  0.00  0.00     0.210 C 
ENDBRANCH   6  21
BRANCH   1  23
ATOM     23  C   UNL d   1      -1.309   2.262   0.881  0.00  0.00     0.420 C 
ATOM     24  F   UNL d   1      -2.272   1.785   1.724  0.00  0.00    -0.166 F 
ATOM     25  F   UNL d   1      -0.372   2.818   1.698  0.00  0.00    -0.166 F 
ATOM     26  F   UNL d   1      -1.902   3.296   0.220  0.00  0.00    -0.166 F 
ENDBRANCH   1  23
BRANCH   4  27
ATOM     27  O   UNL d   1       0.576   2.710  -1.512  0.00  0.00    -0.355 OA
ATOM     28  C   UNL d   1       1.052   3.620  -0.531  0.00  0.00     0.210 C 
ENDBRANCH   4  27
TORSDOF 7
