REMARK  4 active torsions:
REMARK  status: ('A' for Active; 'I' for Inactive)
REMARK    1  A    between atoms: S_9  and  C_2 
REMARK    2  A    between atoms: C_8  and  C_12 
REMARK       I    between atoms: N_10  and  C_8 
REMARK    3  A    between atoms: C_12  and  S_9 
REMARK    4  A    between atoms: C_13  and  N_10 
ROOT
ATOM      1  C   UNL d   1       5.661  -0.125  -0.171  0.00  0.00     0.231 C 
ATOM      2  N   UNL d   1       5.873   1.218   0.093  0.00  0.00    -0.327 N 
ATOM      3  O   UNL d   1       6.552  -0.941  -0.413  0.00  0.00    -0.272 OA
ATOM      4  H   UNL d   1       5.070   1.749   0.415  0.00  0.00     0.169 HD
ENDROOT
BRANCH   1   5
ATOM      5  C   UNL d   1       4.231  -0.627  -0.049  0.00  0.00     0.184 C 
BRANCH   5   6
ATOM      6  S   UNL d   1       2.972   0.589  -0.528  0.00  0.00    -0.094 SA
BRANCH   6   7
ATOM      7  C   UNL d   1       1.567  -0.457  -0.612  0.00  0.00     0.128 A 
ATOM      8  S   UNL d   1       0.047   0.056  -1.216  0.00  0.00    -0.050 SA
ATOM      9  C   UNL d   1      -0.508  -1.554  -0.976  0.00  0.00     0.065 A 
ATOM     10  N   UNL d   1       0.389  -2.356  -0.440  0.00  0.00    -0.297 N 
ATOM     11  C   UNL d   1      -1.885  -1.958  -1.358  0.00  0.00     0.078 C 
ATOM     12  N   UNL d   1       1.594  -1.716  -0.226  0.00  0.00    -0.287 N 
ATOM     13  HN  UNL d   1       0.214  -3.334  -0.209  1.00  0.00     0.187 HD
ATOM     14  HN  UNL d   1       2.412  -2.168   0.184  1.00  0.00     0.188 HD
ENDBRANCH   6   7
ENDBRANCH   5   6
ENDBRANCH   1   5
BRANCH   2  15
ATOM     15  C   UNL d   1       7.089   1.924  -0.056  0.00  0.00     0.034 A 
ATOM     16  C   UNL d   1       8.229   1.377  -0.656  0.00  0.00     0.031 A 
ATOM     17  C   UNL d   1       9.392   2.137  -0.823  0.00  0.00     0.021 A 
ATOM     18  C   UNL d   1       9.424   3.456  -0.385  0.00  0.00     0.011 A 
ATOM     19  C   UNL d   1       8.306   4.017   0.226  0.00  0.00     0.021 A 
ATOM     20 BR   UNL d   1      10.986   4.488  -0.637  0.00  0.00    -0.051 Br
ATOM     21  C   UNL d   1       7.140   3.254   0.385  0.00  0.00     0.031 A 
ENDBRANCH   2  15
TORSDOF 4
