REMARK  2 active torsions:
REMARK  status: ('A' for Active; 'I' for Inactive)
REMARK    1  A    between atoms: C_4  and  C_1 
REMARK    2  A    between atoms: C_7  and  C_4 
ROOT
ATOM      1  C   UNL d   1       3.216   0.685  -0.041  0.00  0.00     0.127 A 
ATOM      2  O   UNL d   1       2.762  -0.607  -0.071  0.00  0.00    -0.306 OA
ATOM      3  C   UNL d   1       2.140   1.552   0.007  0.00  0.00     0.055 A 
ATOM      4  C   UNL d   1       0.965   0.760  -0.011  0.00  0.00     0.002 A 
ATOM      5  C   UNL d   1       1.401  -0.559  -0.043  0.00  0.00     0.086 A 
ATOM      6  C   UNL d   1      -0.417   1.016   0.007  0.00  0.00     0.038 A 
ATOM      7  C   UNL d   1       0.551  -1.662  -0.042  0.00  0.00     0.040 A 
ATOM      8  C   UNL d   1      -1.295  -0.076   0.004  0.00  0.00     0.035 A 
ATOM      9  C   UNL d   1      -0.823  -1.391  -0.015  0.00  0.00     0.026 A 
ATOM     10 CL   UNL d   1      -2.993   0.213   0.028  0.00  0.00    -0.084 Cl
ENDROOT
BRANCH   1  11
ATOM     11  C   UNL d   1       4.635   0.963  -0.010  0.00  0.00     0.215 C 
ATOM     12  O   UNL d   1       5.090   2.019   0.429  0.00  0.00    -0.284 OA
BRANCH  11  13
ATOM     13  C   UNL d   1       5.614  -0.026  -0.547  0.00  0.00     0.019 A 
ATOM     14  C   UNL d   1       5.308  -0.849  -1.639  0.00  0.00     0.041 A 
ATOM     15  C   UNL d   1       6.279  -1.712  -2.161  0.00  0.00     0.056 A 
ATOM     16 CL   UNL d   1       5.835  -2.687  -3.518  0.00  0.00    -0.083 Cl
ATOM     17  C   UNL d   1       7.559  -1.754  -1.598  0.00  0.00     0.055 A 
ATOM     18  C   UNL d   1       7.868  -0.928  -0.513  0.00  0.00     0.026 A 
ATOM     19 CL   UNL d   1       8.805  -2.788  -2.199  0.00  0.00    -0.083 Cl
ATOM     20  C   UNL d   1       6.900  -0.062   0.005  0.00  0.00     0.017 A 
ENDBRANCH  11  13
ENDBRANCH   1  11
TORSDOF 2
