REMARK  2 active torsions:
REMARK  status: ('A' for Active; 'I' for Inactive)
REMARK    1  A    between atoms: C_5  and  N_1 
REMARK    2  A    between atoms: N_3  and  C_4 
ROOT
ATOM      1  C   UNL d   1       0.110   3.432   1.387  0.00  0.00     0.074 A 
ATOM      2  C   UNL d   1      -0.929   3.117   2.289  0.00  0.00     0.059 A 
ATOM      3  C   UNL d   1       0.267   1.080   0.762  0.00  0.00     0.104 A 
ATOM      4  C   UNL d   1       0.694   4.738   1.253  0.00  0.00     0.102 C 
ATOM      5  N   UNL d   1       1.191   5.777   1.115  0.00  0.00    -0.191 NA
ATOM      6  C   UNL d   1       0.701   2.405   0.625  0.00  0.00     0.061 A 
ATOM      7  C   UNL d   1      -1.342   1.774   2.421  0.00  0.00     0.034 A 
ATOM      8  C   UNL d   1      -0.754   0.761   1.659  0.00  0.00     0.038 A 
ENDROOT
BRANCH   2   9
ATOM      9  N   UNL d   1      -1.597   4.100   3.083  0.00  0.00    -0.331 N 
ATOM     10  C   UNL d   1      -1.823   5.425   2.770  0.00  0.00     0.096 A 
ATOM     11  C   UNL d   1      -2.514   6.026   3.800  0.00  0.00     0.019 A 
ATOM     12  C   UNL d   1      -2.743   5.042   4.780  0.00  0.00     0.019 A 
ATOM     13  C   UNL d   1      -2.189   3.870   4.314  0.00  0.00     0.096 A 
ENDBRANCH   2   9
BRANCH   3  14
ATOM     14  N   UNL d   1       0.897   0.018  -0.033  0.00  0.00    -0.116 N 
ATOM     15  O   UNL d   1       1.814   0.343  -0.799  0.00  0.00    -0.532 OA
ATOM     16  O   UNL d   1       0.475  -1.137   0.113  0.00  0.00    -0.532 OA
ENDBRANCH   3  14
TORSDOF 2
