REMARK  4 active torsions:
REMARK  status: ('A' for Active; 'I' for Inactive)
REMARK    1  A    between atoms: C_10  and  N_1 
REMARK    2  A    between atoms: C_3  and  O_7 
REMARK    3  A    between atoms: C_6  and  C_12 
REMARK    4  A    between atoms: O_7  and  C_6 
ROOT
ATOM      1  C   UNL d   1      -1.434  -1.312   5.191  0.00  0.00     0.298 C 
ATOM      2  O   UNL d   1      -1.323  -0.622   4.191  0.00  0.00    -0.259 OA
ENDROOT
BRANCH   1   3
ATOM      3  C   UNL d   1      -0.657  -1.089   6.448  0.00  0.00     0.040 A 
ATOM      4  C   UNL d   1      -0.872  -1.854   7.606  0.00  0.00     0.020 A 
ATOM      5  C   UNL d   1      -0.081  -1.657   8.742  0.00  0.00     0.037 A 
ATOM      6  C   UNL d   1       0.932  -0.690   8.722  0.00  0.00     0.102 A 
ATOM      7  C   UNL d   1       1.161   0.076   7.571  0.00  0.00     0.037 A 
ATOM      8  C   UNL d   1       0.364  -0.127   6.437  0.00  0.00     0.020 A 
BRANCH   6   9
ATOM      9  N   UNL d   1       1.760  -0.482   9.917  0.00  0.00    -0.116 N 
ATOM     10  O   UNL d   1       2.658   0.370   9.855  0.00  0.00    -0.532 OA
ATOM     11  O   UNL d   1       1.510  -1.169  10.917  0.00  0.00    -0.532 OA
ENDBRANCH   6   9
ENDBRANCH   1   3
BRANCH   1  12
ATOM     12  O   UNL d   1      -2.202  -2.455   5.332  0.00  0.00    -0.273 OA
BRANCH  12  13
ATOM     13  C   UNL d   1      -2.458  -3.106   4.116  0.00  0.00     0.102 A 
ATOM     14  C   UNL d   1      -1.430  -3.754   3.413  0.00  0.00     0.075 A 
ATOM     15  C   UNL d   1      -1.717  -4.415   2.206  0.00  0.00    -0.015 A 
ATOM     16 CL   UNL d   1       0.165  -3.803   4.102  0.00  0.00    -0.081 Cl
ATOM     17  C   UNL d   1      -0.625  -5.040   1.372  0.00  0.00     0.052 C 
ATOM     18  C   UNL d   1      -3.070  -4.507   1.794  0.00  0.00     0.047 A 
ATOM     19  C   UNL d   1      -4.111  -3.917   2.544  0.00  0.00    -0.037 A 
ATOM     20 CL   UNL d   1      -3.449  -5.398   0.348  0.00  0.00    -0.083 Cl
ATOM     21  C   UNL d   1      -3.784  -3.195   3.702  0.00  0.00     0.047 A 
ATOM     22  C   UNL d   1      -5.572  -4.033   2.191  0.00  0.00     0.050 C 
ENDBRANCH  12  13
ENDBRANCH   1  12
TORSDOF 4
