REMARK  3 active torsions:
REMARK  status: ('A' for Active; 'I' for Inactive)
REMARK    1  A    between atoms: C_2  and  C_1 
REMARK       I    between atoms: N_7  and  C_1 
REMARK    2  A    between atoms: N_4  and  C_3 
REMARK    3  A    between atoms: C_12  and  N_7 
ROOT
ATOM      1  C   UNL d   1      -4.034  -1.185   0.550  0.00  0.00     0.103 A 
ATOM      2  N   UNL d   1      -3.354  -1.526   1.661  0.00  0.00    -0.350 N 
ATOM      3  HN  UNL d   1      -3.850  -1.826   2.500  1.00  0.00     0.166 HD
ATOM      4  C   UNL d   1      -3.337  -0.775  -0.588  0.00  0.00     0.051 A 
ATOM      5  C   UNL d   1      -1.232  -1.067   0.554  0.00  0.00     0.050 A 
ATOM      6  C   UNL d   1      -1.993  -1.462   1.647  0.00  0.00     0.119 A 
ATOM      7  C   UNL d   1      -1.938  -0.711  -0.588  0.00  0.00     0.035 A 
ENDROOT
BRANCH   5   8
ATOM      8  N   UNL d   1       0.181  -0.983   0.530  0.00  0.00    -0.322 N 
ATOM      9  C   UNL d   1       1.033  -1.422   1.529  0.00  0.00     0.262 C 
ATOM     10  O   UNL d   1       0.674  -2.059   2.513  0.00  0.00    -0.267 OA
ATOM     11  H   UNL d   1       0.594  -0.599  -0.315  0.00  0.00     0.169 HD
BRANCH   9  12
ATOM     12  C   UNL d   1       2.476  -1.102   1.382  0.00  0.00     0.109 A 
ATOM     13  C   UNL d   1       3.296  -1.103   2.515  0.00  0.00     0.135 A 
ATOM     14  F   UNL d   1       2.799  -1.337   3.738  0.00  0.00    -0.205 F 
ATOM     15  C   UNL d   1       4.660  -0.824   2.425  0.00  0.00     0.043 A 
ATOM     16  C   UNL d   1       5.232  -0.539   1.188  0.00  0.00     0.006 A 
ATOM     17  C   UNL d   1       4.431  -0.528   0.049  0.00  0.00     0.043 A 
ATOM     18  C   UNL d   1       3.064  -0.805   0.152  0.00  0.00     0.135 A 
ATOM     19  F   UNL d   1       2.331  -0.776  -0.972  0.00  0.00    -0.205 F 
ENDBRANCH   9  12
ENDBRANCH   5   8
BRANCH   1  20
ATOM     20  N   UNL d   1      -5.407  -1.318   0.538  0.00  0.00    -0.363 N 
ATOM     21  C   UNL d   1      -6.061  -2.126   1.580  0.00  0.00     0.150 C 
ATOM     22  C   UNL d   1      -6.904  -1.256   2.522  0.00  0.00     0.187 C 
ATOM     23  O   UNL d   1      -7.829  -0.434   1.789  0.00  0.00    -0.388 OA
ATOM     24  C   UNL d   1      -7.107   0.446   0.916  0.00  0.00     0.187 C 
ATOM     25  C   UNL d   1      -6.272  -0.331  -0.117  0.00  0.00     0.150 C 
ENDBRANCH   1  20
TORSDOF 3
