REMARK  8 active torsions:
REMARK  status: ('A' for Active; 'I' for Inactive)
REMARK    1  A    between atoms: N_4  and  C_1 
REMARK    2  A    between atoms: N_5  and  C_1 
REMARK    3  A    between atoms: C_6  and  C_1 
REMARK    4  A    between atoms: C_7  and  C_1 
REMARK    5  A    between atoms: C_3  and  N_4 
REMARK       I    between atoms: C_13  and  N_5 
REMARK    6  A    between atoms: C_14  and  C_8 
REMARK    7  A    between atoms: O_22  and  C_13 
REMARK    8  A    between atoms: C_25  and  O_22 
ROOT
ATOM      1  C   UNL d   1       1.000  -0.056  -0.133  0.00  0.00     0.309 C 
ENDROOT
BRANCH   1   2
ATOM      2  N   UNL d   1       0.741   1.396  -0.383  0.00  0.00    -0.328 N 
ATOM      3  H   UNL d   1       0.221   1.647  -1.216  0.00  0.00     0.164 HD
BRANCH   2   4
ATOM      4  C   UNL d   1       1.060   2.486   0.396  0.00  0.00     0.163 A 
ATOM      5  S   UNL d   1       1.771   2.512   1.937  0.00  0.00    -0.033 SA
ATOM      6  C   UNL d   1       1.608   4.223   1.914  0.00  0.00     0.102 A 
ATOM      7  N   UNL d   1       1.139   4.684   0.771  0.00  0.00    -0.291 N 
ATOM      8  N   UNL d   1       0.789   3.669  -0.097  0.00  0.00    -0.279 N 
ATOM      9  HN  UNL d   1       1.045   5.677   0.554  1.00  0.00     0.187 HD
ATOM     10  HN  UNL d   1       0.369   3.823  -1.014  1.00  0.00     0.189 HD
BRANCH   6  11
ATOM     11  C   UNL d   1       2.011   5.034   3.063  0.00  0.00    -0.001 A 
ATOM     12  C   UNL d   1       2.740   6.214   2.858  0.00  0.00     0.014 A 
ATOM     13  C   UNL d   1       3.127   7.006   3.941  0.00  0.00     0.001 A 
ATOM     14  C   UNL d   1       2.776   6.636   5.238  0.00  0.00     0.000 A 
ATOM     15  C   UNL d   1       2.039   5.474   5.456  0.00  0.00     0.001 A 
ATOM     16  C   UNL d   1       1.659   4.677   4.375  0.00  0.00     0.014 A 
ENDBRANCH   6  11
ENDBRANCH   2   4
ENDBRANCH   1   2
BRANCH   1  17
ATOM     17  N   UNL d   1       0.341  -0.738  -1.278  0.00  0.00    -0.295 N 
ATOM     18  C   UNL d   1      -0.997  -0.916  -1.335  0.00  0.00     0.362 C 
ATOM     19  O   UNL d   1      -1.789  -0.326  -0.622  0.00  0.00    -0.238 OA
ATOM     20  H   UNL d   1       0.878  -1.402  -1.827  0.00  0.00     0.168 HD
BRANCH  18  21
ATOM     21  O   UNL d   1      -1.272  -1.871  -2.240  0.00  0.00    -0.304 OA
BRANCH  21  22
ATOM     22  C   UNL d   1      -2.608  -2.399  -2.207  0.00  0.00     0.176 C 
ATOM     23  C   UNL d   1      -2.611  -3.617  -1.302  0.00  0.00     0.034 C 
ENDBRANCH  21  22
ENDBRANCH  18  21
ENDBRANCH   1  17
BRANCH   1  24
ATOM     24  C   UNL d   1       0.497  -0.559   1.256  0.00  0.00     0.441 C 
ATOM     25  F   UNL d   1      -0.657   0.041   1.628  0.00  0.00    -0.166 F 
ATOM     26  F   UNL d   1       0.272  -1.896   1.234  0.00  0.00    -0.166 F 
ATOM     27  F   UNL d   1       1.372  -0.324   2.258  0.00  0.00    -0.166 F 
ENDBRANCH   1  24
BRANCH   1  28
ATOM     28  C   UNL d   1       2.525  -0.392  -0.176  0.00  0.00     0.441 C 
ATOM     29  F   UNL d   1       3.289   0.725  -0.144  0.00  0.00    -0.166 F 
ATOM     30  F   UNL d   1       2.952  -1.210   0.802  0.00  0.00    -0.166 F 
ATOM     31  F   UNL d   1       2.827  -1.016  -1.350  0.00  0.00    -0.166 F 
ENDBRANCH   1  28
TORSDOF 8
