REMARK  3 active torsions:
REMARK  status: ('A' for Active; 'I' for Inactive)
REMARK    1  A    between atoms: C_5  and  N_1 
REMARK    2  A    between atoms: N_8  and  C_4 
REMARK       I    between atoms: C_9  and  N_8 
REMARK       I    between atoms: N_11  and  C_9 
REMARK    3  A    between atoms: N_10  and  N_11 
ROOT
ATOM      1  N   UNL d   1       1.501  -0.392  -0.275  0.00  0.00    -0.256 N 
ATOM      2  N   UNL d   1       1.324   0.967  -0.281  0.00  0.00    -0.278 N 
ATOM      3  HN  UNL d   1       2.038   1.685  -0.407  1.00  0.00     0.189 HD
ATOM      4  C   UNL d   1       0.019   1.148  -0.087  0.00  0.00     0.126 A 
ATOM      5  C   UNL d   1       0.309  -1.057  -0.014  0.00  0.00     0.034 A 
ATOM      6  C   UNL d   1      -0.658  -0.078   0.046  0.00  0.00     0.076 A 
ATOM      7  C   UNL d   1       0.141  -2.512   0.241  0.00  0.00     0.070 C 
ENDROOT
BRANCH   4   8
ATOM      8  N   UNL d   1      -0.627   2.350   0.022  0.00  0.00    -0.293 N 
ATOM      9  C   UNL d   1      -0.163   3.626  -0.019  0.00  0.00     0.336 C 
ATOM     10  N   UNL d   1       1.166   3.824  -0.321  0.00  0.00    -0.271 N 
ATOM     11  O   UNL d   1      -0.982   4.519   0.202  0.00  0.00    -0.246 OA
ATOM     12  H   UNL d   1       1.756   2.994  -0.376  0.00  0.00     0.185 HD
ATOM     13  H   UNL d   1      -1.619   2.318   0.213  0.00  0.00     0.172 HD
BRANCH  10  14
ATOM     14  N   UNL d   1       1.774   5.122  -0.392  0.00  0.00    -0.223 NA
ATOM     15  C   UNL d   1       1.112   6.007  -1.378  0.00  0.00     0.140 C 
ATOM     16  C   UNL d   1       1.701   7.426  -1.381  0.00  0.00     0.183 C 
ATOM     17  O   UNL d   1       1.665   8.015  -0.076  0.00  0.00    -0.389 OA
ATOM     18  C   UNL d   1       2.402   7.203   0.845  0.00  0.00     0.183 C 
ATOM     19  C   UNL d   1       1.829   5.779   0.931  0.00  0.00     0.140 C 
ENDBRANCH  10  14
ENDBRANCH   4   8
BRANCH   1  20
ATOM     20  C   UNL d   1       2.790  -0.933  -0.511  0.00  0.00     0.100 A 
ATOM     21  C   UNL d   1       3.901  -0.437   0.196  0.00  0.00     0.064 A 
ATOM     22 CL   UNL d   1       3.788   0.705   1.496  0.00  0.00    -0.082 Cl
ATOM     23  C   UNL d   1       5.184  -0.940  -0.061  0.00  0.00     0.026 A 
ATOM     24  C   UNL d   1       5.376  -1.942  -1.008  0.00  0.00     0.003 A 
ATOM     25  C   UNL d   1       4.282  -2.439  -1.710  0.00  0.00     0.026 A 
ATOM     26  C   UNL d   1       2.995  -1.932  -1.481  0.00  0.00     0.064 A 
ATOM     27 CL   UNL d   1       1.768  -2.504  -2.561  0.00  0.00    -0.082 Cl
ENDBRANCH   1  20
TORSDOF 3
