REMARK  2 active torsions:
REMARK  status: ('A' for Active; 'I' for Inactive)
REMARK    1  A    between atoms: N_6  and  C_1 
REMARK       I    between atoms: C_8  and  N_6 
REMARK    2  A    between atoms: C_9  and  C_8 
ROOT
ATOM      1  C   UNL d   1       1.175   1.034   0.501  0.00  0.00     0.138 A 
ATOM      2  N   UNL d   1      -0.151   0.915   0.598  0.00  0.00    -0.282 N 
ATOM      3  HN  UNL d   1      -0.856   1.614   0.367  1.00  0.00     0.189 HD
ATOM      4  C   UNL d   1       1.821  -0.171   0.909  0.00  0.00     0.076 A 
ATOM      5  N   UNL d   1      -0.353  -0.325   1.066  0.00  0.00    -0.294 N 
ATOM      6  C   UNL d   1       0.800  -1.011   1.341  0.00  0.00     0.067 A 
ATOM      7  C   UNL d   1       3.144  -0.631   0.988  0.00  0.00     0.132 A 
ATOM      8  C   UNL d   1      -1.702  -0.816   1.212  0.00  0.00     0.178 C 
ATOM      9  F   UNL d   1       4.158   0.130   0.548  0.00  0.00    -0.205 F 
ATOM     10  C   UNL d   1       1.044  -2.269   1.913  0.00  0.00     0.032 A 
ATOM     11  C   UNL d   1       2.376  -2.689   2.007  0.00  0.00     0.005 A 
ATOM     12  C   UNL d   1       3.415  -1.889   1.530  0.00  0.00     0.043 A 
ENDROOT
BRANCH   1  13
ATOM     13  N   UNL d   1       1.841   2.194   0.142  0.00  0.00    -0.311 N 
ATOM     14  C   UNL d   1       1.224   3.383  -0.213  0.00  0.00     0.231 C 
ATOM     15  O   UNL d   1       0.040   3.515  -0.509  0.00  0.00    -0.272 OA
ATOM     16  H   UNL d   1       2.846   2.157   0.228  0.00  0.00     0.170 HD
BRANCH  14  17
ATOM     17  C   UNL d   1       2.174   4.608  -0.201  0.00  0.00     0.030 C 
ATOM     18  C   UNL d   1       3.294   4.447  -1.238  0.00  0.00     0.025 C 
ATOM     19  C   UNL d   1       1.378   5.884  -0.538  0.00  0.00     0.025 C 
ATOM     20  C   UNL d   1       2.775   4.780   1.205  0.00  0.00     0.025 C 
ENDBRANCH  14  17
ENDBRANCH   1  13
TORSDOF 2
