REMARK  7 active torsions:
REMARK  status: ('A' for Active; 'I' for Inactive)
REMARK    1  A    between atoms: C_11  and  C_1 
REMARK    2  A    between atoms: C_3  and  O_12 
REMARK    3  A    between atoms: C_4  and  N_9 
REMARK    4  A    between atoms: N_8  and  C_4 
REMARK    5  A    between atoms: C_16  and  N_8 
REMARK    6  A    between atoms: N_9  and  C_11 
REMARK    7  A    between atoms: O_12  and  C_17 
ROOT
ATOM      1  C   UNL d   1      -0.403  -5.149   0.164  0.00  0.00     0.172 C 
ATOM      2  S   UNL d   1      -1.970  -5.607   0.543  0.00  0.00    -0.041 SA
ENDROOT
BRANCH   1   3
ATOM      3  N   UNL d   1      -0.118  -3.820   0.244  0.00  0.00    -0.363 N 
ATOM      4  H   UNL d   1      -0.920  -3.264   0.521  0.00  0.00     0.162 HD
BRANCH   3   5
ATOM      5  C   UNL d   1       0.878  -3.120  -0.544  0.00  0.00     0.162 C 
BRANCH   5   6
ATOM      6  C   UNL d   1       2.037  -2.712   0.309  0.00  0.00    -0.022 A 
ATOM      7  C   UNL d   1       1.924  -2.065   1.526  0.00  0.00     0.060 A 
ATOM      8  S   UNL d   1       3.428  -1.653   2.206  0.00  0.00    -0.101 SA
ATOM      9  C   UNL d   1       4.292  -2.313   0.875  0.00  0.00     0.015 A 
ATOM     10  C   UNL d   1       3.429  -2.874  -0.071  0.00  0.00    -0.011 A 
ATOM     11  C   UNL d   1       5.691  -2.315   0.698  0.00  0.00     0.019 A 
ATOM     12  C   UNL d   1       4.013  -3.467  -1.221  0.00  0.00     0.013 A 
ATOM     13  C   UNL d   1       5.400  -3.475  -1.399  0.00  0.00     0.001 A 
ATOM     14  C   UNL d   1       6.229  -2.900  -0.449  0.00  0.00     0.001 A 
ENDBRANCH   5   6
ENDBRANCH   3   5
ENDBRANCH   1   3
BRANCH   1  15
ATOM     15  N   UNL d   1       0.656  -5.965  -0.162  0.00  0.00    -0.333 N 
ATOM     16  H   UNL d   1       1.511  -5.701   0.320  0.00  0.00     0.168 HD
BRANCH  15  17
ATOM     17  C   UNL d   1       0.577  -7.303  -0.603  0.00  0.00     0.034 A 
ATOM     18  C   UNL d   1      -0.363  -7.705  -1.557  0.00  0.00     0.032 A 
ATOM     19  C   UNL d   1      -0.442  -9.041  -1.971  0.00  0.00     0.039 A 
ATOM     20  C   UNL d   1       0.444  -9.984  -1.461  0.00  0.00     0.078 A 
ATOM     21  C   UNL d   1       1.398  -9.576  -0.518  0.00  0.00     0.039 A 
ATOM     22  C   UNL d   1       1.486  -8.242  -0.111  0.00  0.00     0.032 A 
BRANCH  20  23
ATOM     23  O   UNL d   1       0.509 -11.306  -1.785  0.00  0.00    -0.255 OA
BRANCH  23  24
ATOM     24  C   UNL d   1      -0.246 -11.786  -2.886  0.00  0.00     0.530 C 
ATOM     25  F   UNL d   1      -0.239 -10.933  -3.933  0.00  0.00    -0.144 F 
ATOM     26  F   UNL d   1       0.307 -12.948  -3.305  0.00  0.00    -0.144 F 
ATOM     27  F   UNL d   1      -1.519 -12.035  -2.517  0.00  0.00    -0.144 F 
ENDBRANCH  23  24
ENDBRANCH  20  23
ENDBRANCH  15  17
ENDBRANCH   1  15
TORSDOF 7
