REMARK  5 active torsions:
REMARK  status: ('A' for Active; 'I' for Inactive)
REMARK    1  A    between atoms: C_15  and  C_3 
REMARK    2  A    between atoms: N_10  and  C_4 
REMARK    3  A    between atoms: C_7  and  O_14 
REMARK    4  A    between atoms: C_16  and  N_10 
REMARK    5  A    between atoms: O_14  and  C_20 
ROOT
ATOM      1  C   UNL d   1       0.023  -0.491   0.063  0.00  0.00     0.076 A 
ATOM      2  S   UNL d   1       1.710  -0.797   0.133  0.00  0.00    -0.084 SA
ATOM      3  C   UNL d   1       2.119   0.870   0.045  0.00  0.00     0.018 A 
ATOM      4  C   UNL d   1      -1.061  -1.382   0.049  0.00  0.00     0.126 A 
ATOM      5  C   UNL d   1       0.970   1.639  -0.012  0.00  0.00     0.050 A 
ATOM      6  C   UNL d   1      -0.225   0.873  -0.010  0.00  0.00     0.055 A 
ATOM      7  N   UNL d   1      -2.303  -0.847  -0.044  0.00  0.00    -0.337 N 
ATOM      8  HN  UNL d   1      -3.124  -1.452  -0.077  1.00  0.00     0.168 HD
ATOM      9  N   UNL d   1      -1.475   1.395  -0.079  0.00  0.00    -0.351 N 
ATOM     10  HN  UNL d   1      -1.656   2.398  -0.118  1.00  0.00     0.166 HD
ATOM     11  C   UNL d   1      -2.442   0.482  -0.091  0.00  0.00     0.182 A 
ENDROOT
BRANCH   4  12
ATOM     12  N   UNL d   1      -0.907  -2.769   0.162  0.00  0.00    -0.341 N 
ATOM     13  H   UNL d   1       0.027  -3.076   0.404  0.00  0.00     0.167 HD
BRANCH  12  14
ATOM     14  C   UNL d   1      -1.745  -3.777  -0.343  0.00  0.00     0.033 A 
ATOM     15  C   UNL d   1      -2.573  -3.576  -1.455  0.00  0.00     0.032 A 
ATOM     16  C   UNL d   1      -3.403  -4.594  -1.943  0.00  0.00     0.039 A 
ATOM     17  C   UNL d   1      -3.418  -5.836  -1.317  0.00  0.00     0.078 A 
ATOM     18  C   UNL d   1      -2.646  -6.024  -0.168  0.00  0.00     0.039 A 
ATOM     19  C   UNL d   1      -1.808  -5.011   0.308  0.00  0.00     0.032 A 
BRANCH  17  20
ATOM     20  O   UNL d   1      -4.135  -6.929  -1.700  0.00  0.00    -0.255 OA
BRANCH  20  21
ATOM     21  C   UNL d   1      -4.586  -7.010  -3.043  0.00  0.00     0.530 C 
ATOM     22  F   UNL d   1      -3.748  -6.416  -3.920  0.00  0.00    -0.144 F 
ATOM     23  F   UNL d   1      -4.671  -8.317  -3.382  0.00  0.00    -0.144 F 
ATOM     24  F   UNL d   1      -5.814  -6.464  -3.157  0.00  0.00    -0.144 F 
ENDBRANCH  20  21
ENDBRANCH  17  20
ENDBRANCH  12  14
ENDBRANCH   4  12
BRANCH   3  25
ATOM     25  C   UNL d   1       3.523   1.322   0.012  0.00  0.00    -0.019 A 
ATOM     26  C   UNL d   1       3.860   2.516  -0.650  0.00  0.00     0.013 A 
ATOM     27  C   UNL d   1       5.178   2.984  -0.674  0.00  0.00     0.001 A 
ATOM     28  C   UNL d   1       6.183   2.264  -0.038  0.00  0.00     0.000 A 
ATOM     29  C   UNL d   1       5.872   1.077   0.620  0.00  0.00     0.001 A 
ATOM     30  C   UNL d   1       4.553   0.611   0.646  0.00  0.00     0.013 A 
ENDBRANCH   3  25
TORSDOF 5
