REMARK  4 active torsions:
REMARK  status: ('A' for Active; 'I' for Inactive)
REMARK    1  A    between atoms: C_9  and  N_3 
REMARK    2  A    between atoms: O_10  and  C_5 
REMARK    3  A    between atoms: C_12  and  C_9 
REMARK    4  A    between atoms: O_11  and  C_12 
ROOT
ATOM      1  N   UNL d   1       1.196   0.678   0.045  0.00  0.00    -0.275 N 
ATOM      2  HN  UNL d   1       2.095   1.158   0.082  1.00  0.00     0.189 HD
ATOM      3  N   UNL d   1       1.095  -0.704   0.074  0.00  0.00    -0.254 N 
ATOM      4  C   UNL d   1      -0.118  -1.389   0.022  0.00  0.00     0.262 A 
ATOM      5  C   UNL d   1       0.086   1.316  -0.032  0.00  0.00     0.154 A 
ATOM      6  C   UNL d   1      -1.340  -0.552  -0.071  0.00  0.00     0.080 A 
ATOM      7  C   UNL d   1      -1.262   0.780  -0.088  0.00  0.00     0.063 A 
ATOM      8  O   UNL d   1      -0.238  -2.610   0.053  0.00  0.00    -0.267 OA
ENDROOT
BRANCH   3   9
ATOM      9  C   UNL d   1       2.336  -1.439   0.300  0.00  0.00     0.178 C 
BRANCH   9  10
ATOM     10  C   UNL d   1       2.731  -2.356  -0.857  0.00  0.00     0.186 C 
BRANCH  10  11
ATOM     11  O   UNL d   1       4.011  -2.932  -0.596  0.00  0.00    -0.399 OA
ATOM     12  H   UNL d   1       4.181  -3.573  -1.307  0.00  0.00     0.209 HD
ENDBRANCH  10  11
ENDBRANCH   9  10
ENDBRANCH   3   9
BRANCH   5  13
ATOM     13  O   UNL d   1       0.096   2.653  -0.065  0.00  0.00    -0.345 OA
ATOM     14  H   UNL d   1       1.024   2.938  -0.018  0.00  0.00     0.219 HD
ENDBRANCH   5  13
TORSDOF 4
