REMARK  3 active torsions:
REMARK  status: ('A' for Active; 'I' for Inactive)
REMARK    1  A    between atoms: C_2  and  C_1 
REMARK    2  A    between atoms: O_3  and  C_1 
REMARK    3  A    between atoms: C_9  and  O_3 
ROOT
ATOM      1  C   UNL d   1       1.133   0.128  -0.118  0.00  0.00     0.304 C 
ATOM      2  O   UNL d   1       2.341   0.082   0.030  0.00  0.00    -0.259 OA
ENDROOT
BRANCH   1   3
ATOM      3  C   UNL d   1       0.410  -0.566  -1.195  0.00  0.00     0.116 A 
ATOM      4  C   UNL d   1      -0.823  -1.175  -0.976  0.00  0.00     0.135 A 
ATOM      5  F   UNL d   1      -1.391  -1.171   0.239  0.00  0.00    -0.205 F 
ATOM      6  C   UNL d   1      -1.494  -1.825  -2.014  0.00  0.00     0.043 A 
ATOM      7  C   UNL d   1      -0.926  -1.873  -3.287  0.00  0.00     0.006 A 
ATOM      8  C   UNL d   1       0.311  -1.272  -3.514  0.00  0.00     0.043 A 
ATOM      9  C   UNL d   1       0.973  -0.625  -2.468  0.00  0.00     0.135 A 
ATOM     10  F   UNL d   1       2.147  -0.035  -2.733  0.00  0.00    -0.205 F 
ENDBRANCH   1   3
BRANCH   1  11
ATOM     11  O   UNL d   1       0.216   0.865   0.617  0.00  0.00    -0.273 OA
BRANCH  11  12
ATOM     12  C   UNL d   1       0.602   1.793   1.601  0.00  0.00     0.094 A 
ATOM     13  C   UNL d   1      -0.328   2.080   2.592  0.00  0.00     0.124 A 
ATOM     14  N   UNL d   1      -0.146   3.024   3.545  0.00  0.00    -0.373 N 
ATOM     15  C   UNL d   1       1.018   3.709   3.498  0.00  0.00     0.088 A 
ATOM     16  HN  UNL d   1      -0.850   3.208   4.261  1.00  0.00     0.164 HD
ATOM     17  C   UNL d   1       2.005   3.488   2.550  0.00  0.00     0.020 A 
ATOM     18  C   UNL d   1       1.790   2.513   1.578  0.00  0.00     0.040 A 
ENDBRANCH  11  12
ENDBRANCH   1  11
TORSDOF 3
