REMARK  8 active torsions:
REMARK  status: ('A' for Active; 'I' for Inactive)
REMARK    1  A    between atoms: N_8  and  C_1 
REMARK    2  A    between atoms: C_6  and  C_5 
REMARK    3  A    between atoms: C_7  and  C_6 
REMARK       I    between atoms: N_10  and  C_7 
REMARK    4  A    between atoms: C_21  and  N_8 
REMARK    5  A    between atoms: C_15  and  N_10 
REMARK    6  A    between atoms: O_11  and  C_14 
REMARK    7  A    between atoms: C_12  and  O_11 
REMARK    8  A    between atoms: C_25  and  C_18 
ROOT
ATOM      1  C   UNL d   1       1.123   1.443   0.475  0.00  0.00     0.148 C 
ATOM      2  N   UNL d   1       1.242   0.134   0.790  0.00  0.00    -0.306 N 
ATOM      3  C   UNL d   1       0.255  -0.674   0.326  0.00  0.00     0.238 C 
ATOM      4  S   UNL d   1      -0.568   1.843   0.296  0.00  0.00    -0.079 SA
ATOM      5  C   UNL d   1      -0.970   0.099  -0.069  0.00  0.00     0.156 C 
ATOM      6  O   UNL d   1       0.438  -1.857   0.094  0.00  0.00    -0.272 OA
ATOM      7  H   UNL d   1       2.146  -0.298   0.912  0.00  0.00     0.171 HD
ENDROOT
BRANCH   5   8
ATOM      8  C   UNL d   1      -2.246  -0.521   0.448  0.00  0.00     0.128 C 
BRANCH   8   9
ATOM      9  C   UNL d   1      -2.769  -0.396   1.861  0.00  0.00     0.223 C 
ATOM     10  N   UNL d   1      -2.110   0.373   2.793  0.00  0.00    -0.325 N 
ATOM     11  H   UNL d   1      -1.714   1.235   2.432  0.00  0.00     0.169 HD
ATOM     12  O   UNL d   1      -3.836  -0.992   2.110  0.00  0.00    -0.273 OA
BRANCH  10  13
ATOM     13  C   UNL d   1      -2.589   0.415   4.139  0.00  0.00     0.069 C 
ATOM     14  C   UNL d   1      -2.969  -0.726   4.880  0.00  0.00     0.102 C 
ATOM     15  C   UNL d   1      -3.700  -0.567   6.069  0.00  0.00     0.039 C 
ATOM     16  C   UNL d   1      -4.002   0.697   6.568  0.00  0.00     0.003 C 
ATOM     17  C   UNL d   1      -3.512   1.819   5.914  0.00  0.00     0.002 C 
ATOM     18  C   UNL d   1      -2.790   1.681   4.718  0.00  0.00     0.032 C 
BRANCH  14  19
ATOM     19  O   UNL d   1      -2.800  -2.045   4.543  0.00  0.00    -0.307 OA
BRANCH  19  20
ATOM     20  C   UNL d   1      -1.697  -2.526   3.880  0.00  0.00     0.098 A 
ATOM     21  C   UNL d   1      -1.901  -3.671   3.089  0.00  0.00     0.069 A 
ATOM     22  C   UNL d   1      -0.841  -4.275   2.413  0.00  0.00     0.050 A 
ATOM     23 CL   UNL d   1      -3.469  -4.385   2.927  0.00  0.00    -0.081 Cl
ATOM     24  C   UNL d   1       0.438  -3.745   2.540  0.00  0.00     0.035 A 
ATOM     25  C   UNL d   1       0.659  -2.608   3.320  0.00  0.00     0.026 A 
ATOM     26 CL   UNL d   1       1.761  -4.506   1.743  0.00  0.00    -0.084 Cl
ATOM     27  C   UNL d   1      -0.404  -2.004   4.003  0.00  0.00     0.041 A 
ENDBRANCH  19  20
ENDBRANCH  14  19
ENDBRANCH  10  13
ENDBRANCH   8   9
ENDBRANCH   5   8
BRANCH   1  28
ATOM     28  N   UNL d   1       2.088   2.292   0.298  0.00  0.00    -0.337 N 
ATOM     29  HN  UNL d   1       1.895   3.280   0.131  1.00  0.00     0.168 HD
BRANCH  28  30
ATOM     30  C   UNL d   1       3.412   1.810   0.344  0.00  0.00     0.034 C 
ATOM     31  C   UNL d   1       4.214   1.836  -0.800  0.00  0.00     0.030 C 
ATOM     32  C   UNL d   1       5.438   1.148  -0.826  0.00  0.00     0.010 C 
ATOM     33  C   UNL d   1       5.867   0.382   0.272  0.00  0.00    -0.054 C 
ATOM     34  C   UNL d   1       5.120   0.490   1.452  0.00  0.00     0.010 C 
ATOM     35  C   UNL d   1       3.925   1.212   1.493  0.00  0.00     0.030 C 
BRANCH  33  36
ATOM     36  C   UNL d   1       7.108  -0.511   0.159  0.00  0.00     0.018 C 
ATOM     37  C   UNL d   1       7.108  -1.394  -1.111  0.00  0.00     0.009 C 
ATOM     38  C   UNL d   1       6.054  -2.501  -1.050  0.00  0.00     0.001 C 
ATOM     39  C   UNL d   1       6.218  -3.389   0.180  0.00  0.00     0.000 C 
ATOM     40  C   UNL d   1       6.381  -2.603   1.477  0.00  0.00     0.001 C 
ATOM     41  C   UNL d   1       7.383  -1.448   1.359  0.00  0.00     0.009 C 
ENDBRANCH  33  36
ENDBRANCH  28  30
ENDBRANCH   1  28
TORSDOF 8
