REMARK  5 active torsions:
REMARK  status: ('A' for Active; 'I' for Inactive)
REMARK    1  A    between atoms: N_3  and  S_1 
REMARK    2  A    between atoms: C_7  and  S_1 
REMARK    3  A    between atoms: C_2  and  C_4 
REMARK    4  A    between atoms: N_5  and  N_3 
REMARK       I    between atoms: C_4  and  N_5 
REMARK    5  A    between atoms: N_17  and  C_6 
ROOT
ATOM      1  C   UNL d   1       0.248   2.907   2.457  0.00  0.00     0.290 C 
ATOM      2  N   UNL d   1       1.078   2.054   1.749  0.00  0.00    -0.255 N 
ATOM      3  O   UNL d   1      -0.878   3.206   2.065  0.00  0.00    -0.264 OA
ATOM      4  H   UNL d   1       1.950   1.716   2.163  0.00  0.00     0.191 HD
ENDROOT
BRANCH   2   5
ATOM      5  N   UNL d   1       0.582   1.442   0.520  0.00  0.00    -0.220 N 
ATOM      6  H   UNL d   1      -0.395   1.648   0.283  0.00  0.00     0.200 HD
BRANCH   5   7
ATOM      7  S   UNL d   1       1.179  -0.090   0.116  0.00  0.00     0.276 S 
ATOM      8  O   UNL d   1       0.580  -1.030   1.036  0.00  0.00    -0.199 OA
ATOM      9  O   UNL d   1       2.616   0.011  -0.029  0.00  0.00    -0.199 OA
BRANCH   7  10
ATOM     10  C   UNL d   1       0.488  -0.380  -1.496  0.00  0.00     0.081 A 
ATOM     11  C   UNL d   1       0.866   0.444  -2.562  0.00  0.00     0.027 A 
ATOM     12  C   UNL d   1       0.367   0.185  -3.842  0.00  0.00     0.025 A 
ATOM     13  C   UNL d   1      -0.495  -0.894  -4.049  0.00  0.00     0.034 A 
ATOM     14  C   UNL d   1      -0.865  -1.719  -2.987  0.00  0.00     0.025 A 
ATOM     15 CL   UNL d   1      -1.098  -1.215  -5.628  0.00  0.00    -0.084 Cl
ATOM     16  C   UNL d   1      -0.373  -1.463  -1.703  0.00  0.00     0.027 A 
ENDBRANCH   7  10
ENDBRANCH   5   7
ENDBRANCH   2   5
BRANCH   1  17
ATOM     17  C   UNL d   1       0.816   3.367   3.765  0.00  0.00     0.140 A 
ATOM     18  C   UNL d   1       0.132   4.272   4.593  0.00  0.00     0.110 A 
ATOM     19  N   UNL d   1       0.646   4.628   5.794  0.00  0.00    -0.354 N 
ATOM     20  C   UNL d   1       1.827   4.065   6.141  0.00  0.00     0.106 A 
ATOM     21  HN  UNL d   1       0.167   5.287   6.407  1.00  0.00     0.166 HD
ATOM     22  C   UNL d   1       2.494   3.170   5.322  0.00  0.00     0.105 A 
ATOM     23  N   UNL d   1       2.012   2.793   4.117  0.00  0.00    -0.357 N 
ATOM     24  HN  UNL d   1       2.500   2.131   3.514  1.00  0.00     0.165 HD
BRANCH  18  25
ATOM     25  N   UNL d   1      -1.033   4.944   4.247  0.00  0.00    -0.287 NA
ATOM     26  H   UNL d   1      -1.719   4.348   3.788  0.00  0.00     0.125 HD
ATOM     27  H   UNL d   1      -1.386   5.450   5.053  0.00  0.00     0.125 HD
ENDBRANCH  18  25
ENDBRANCH   1  17
TORSDOF 5
