REMARK  2 active torsions:
REMARK  status: ('A' for Active; 'I' for Inactive)
REMARK    1  A    between atoms: C_13  and  C_6 
REMARK    2  A    between atoms: O_23  and  C_18 
ROOT
ATOM      1  C   UNL d   1       1.988   1.440   0.043  0.00  0.00     0.026 C 
ATOM      2  N   UNL d   1       0.913   1.495  -0.665  0.00  0.00    -0.357 N 
ATOM      3  HN  UNL d   1       0.882   2.195  -1.407  1.00  0.00     0.166 HD
ATOM      4  C   UNL d   1       2.403   0.404   1.028  0.00  0.00     0.055 C 
ATOM      5  S   UNL d   1       0.794  -1.829   0.632  0.00  0.00    -0.117 SA
ATOM      6  C   UNL d   1       2.363  -1.000   0.454  0.00  0.00     0.095 C 
ATOM      7  C   UNL d   1       2.913   2.585   0.160  0.00  0.00    -0.007 A 
ATOM      8  C   UNL d   1      -0.229   0.673  -0.508  0.00  0.00     0.049 A 
ATOM      9  C   UNL d   1       3.228   2.902   1.507  0.00  0.00    -0.043 A 
ATOM     10  C   UNL d   1      -0.391  -0.652  -0.037  0.00  0.00     0.028 A 
ATOM     11  C   UNL d   1       1.799   0.890   2.341  0.00  0.00     0.017 C 
ATOM     12  C   UNL d   1       3.716   2.977  -0.899  0.00  0.00     0.017 A 
ATOM     13  C   UNL d   1       2.403   2.299   2.654  0.00  0.00     0.040 C 
ATOM     14  C   UNL d   1       4.415   3.587   1.772  0.00  0.00     0.044 A 
ATOM     15  C   UNL d   1       5.284   3.904   0.721  0.00  0.00     0.068 A 
ATOM     16  C   UNL d   1       4.912   3.640  -0.608  0.00  0.00     0.037 A 
ATOM     17  C   UNL d   1      -1.410   1.381  -0.843  0.00  0.00     0.031 A 
ATOM     18  C   UNL d   1      -1.696  -1.205   0.015  0.00  0.00     0.021 A 
ATOM     19  C   UNL d   1      -2.835  -0.473  -0.324  0.00  0.00     0.002 A 
ATOM     20  C   UNL d   1      -2.689   0.836  -0.740  0.00  0.00     0.002 A 
ENDROOT
BRANCH   6  21
ATOM     21  C   UNL d   1       3.570  -1.708   1.103  0.00  0.00    -0.043 A 
ATOM     22  C   UNL d   1       4.829  -1.543   0.490  0.00  0.00     0.009 A 
ATOM     23  C   UNL d   1       6.007  -1.685   1.227  0.00  0.00     0.007 A 
ATOM     24  C   UNL d   1       5.956  -2.031   2.580  0.00  0.00    -0.062 A 
ATOM     25  C   UNL d   1       4.714  -2.296   3.167  0.00  0.00     0.007 A 
ATOM     26  C   UNL d   1       7.206  -1.996   3.411  0.00  0.00     0.048 C 
ATOM     27  C   UNL d   1       3.531  -2.147   2.436  0.00  0.00     0.009 A 
ENDBRANCH   6  21
BRANCH  15  28
ATOM     28  O   UNL d   1       6.540   4.432   0.877  0.00  0.00    -0.356 OA
ATOM     29  C   UNL d   1       7.118   4.294   2.174  0.00  0.00     0.210 C 
ENDBRANCH  15  28
TORSDOF 2
