REMARK  6 active torsions:
REMARK  status: ('A' for Active; 'I' for Inactive)
REMARK    1  A    between atoms: N_2  and  S_1 
REMARK    2  A    between atoms: C_3  and  S_1 
REMARK    3  A    between atoms: C_7  and  N_2 
REMARK    4  A    between atoms: C_4  and  C_9 
REMARK    5  A    between atoms: C_5  and  C_8 
REMARK    6  A    between atoms: C_6  and  C_10 
ROOT
ATOM      1  S   UNL d   1       0.869   0.040  -0.065  0.00  0.00     0.263 S 
ATOM      2  O   UNL d   1       0.135   1.284  -0.162  0.00  0.00    -0.200 OA
ATOM      3  O   UNL d   1       2.314   0.015  -0.076  0.00  0.00    -0.200 OA
ENDROOT
BRANCH   1   4
ATOM      4  N   UNL d   1       0.361  -0.999  -1.295  0.00  0.00    -0.278 N 
ATOM      5  H   UNL d   1       0.956  -1.829  -1.340  0.00  0.00     0.179 HD
BRANCH   4   6
ATOM      6  C   UNL d   1      -1.038  -1.236  -1.443  0.00  0.00     0.082 A 
ATOM      7  C   UNL d   1      -1.836  -0.306  -2.112  0.00  0.00     0.049 A 
ATOM      8  C   UNL d   1      -3.216  -0.539  -2.261  0.00  0.00     0.050 A 
ATOM      9  C   UNL d   1      -3.777  -1.698  -1.695  0.00  0.00     0.019 A 
ATOM     10  C   UNL d   1      -2.980  -2.612  -1.005  0.00  0.00     0.045 A 
ATOM     11  C   UNL d   1      -1.617  -2.376  -0.888  0.00  0.00     0.143 A 
ATOM     12  F   UNL d   1      -0.850  -3.259  -0.231  0.00  0.00    -0.204 F 
BRANCH   8  13
ATOM     13  C   UNL d   1      -4.095   0.422  -3.030  0.00  0.00     0.417 C 
ATOM     14  F   UNL d   1      -3.425   1.490  -3.542  0.00  0.00    -0.166 F 
ATOM     15  F   UNL d   1      -4.705  -0.179  -4.088  0.00  0.00    -0.166 F 
ATOM     16  F   UNL d   1      -5.096   0.933  -2.263  0.00  0.00    -0.166 F 
ENDBRANCH   8  13
ENDBRANCH   4   6
ENDBRANCH   1   4
BRANCH   1  17
ATOM     17  C   UNL d   1       0.353  -0.776   1.440  0.00  0.00     0.081 A 
ATOM     18  C   UNL d   1       1.196  -1.725   2.033  0.00  0.00     0.041 A 
ATOM     19  C   UNL d   1       0.869  -2.274   3.284  0.00  0.00     0.050 A 
ATOM     20  C   UNL d   1      -0.310  -1.850   3.924  0.00  0.00     0.032 A 
ATOM     21  C   UNL d   1      -1.149  -0.880   3.344  0.00  0.00     0.050 A 
ATOM     22  C   UNL d   1      -0.812  -0.353   2.088  0.00  0.00     0.041 A 
BRANCH  19  23
ATOM     23  C   UNL d   1       1.785  -3.264   3.972  0.00  0.00     0.417 C 
ATOM     24  F   UNL d   1       2.914  -3.541   3.266  0.00  0.00    -0.166 F 
ATOM     25  F   UNL d   1       2.201  -2.819   5.189  0.00  0.00    -0.166 F 
ATOM     26  F   UNL d   1       1.178  -4.461   4.197  0.00  0.00    -0.166 F 
ENDBRANCH  19  23
BRANCH  21  27
ATOM     27  C   UNL d   1      -2.357  -0.375   4.101  0.00  0.00     0.417 C 
ATOM     28  F   UNL d   1      -3.044   0.596   3.440  0.00  0.00    -0.166 F 
ATOM     29  F   UNL d   1      -3.257  -1.361   4.363  0.00  0.00    -0.166 F 
ATOM     30  F   UNL d   1      -2.019   0.158   5.308  0.00  0.00    -0.166 F 
ENDBRANCH  21  27
ENDBRANCH   1  17
TORSDOF 6
