REMARK  7 active torsions:
REMARK  status: ('A' for Active; 'I' for Inactive)
REMARK    1  A    between atoms: C_2  and  C_1 
REMARK       I    between atoms: N_7  and  C_2 
REMARK    2  A    between atoms: C_17  and  C_5 
REMARK    3  A    between atoms: C_6  and  C_11 
REMARK    4  A    between atoms: C_10  and  N_7 
REMARK    5  A    between atoms: O_13  and  C_12 
REMARK    6  A    between atoms: C_15  and  O_13 
REMARK    7  A    between atoms: O_24  and  C_20 
ROOT
ATOM      1  C   UNL d   1      -1.988  -3.428   0.045  0.00  0.00     0.070 A 
ATOM      2  C   UNL d   1      -4.219  -4.419   0.086  0.00  0.00     0.050 A 
ATOM      3  C   UNL d   1      -2.330  -2.683  -1.097  0.00  0.00     0.103 A 
ATOM      4  C   UNL d   1      -2.916  -4.327   0.586  0.00  0.00     0.048 A 
ATOM      5  C   UNL d   1      -4.564  -3.656  -1.037  0.00  0.00     0.019 A 
ATOM      6  C   UNL d   1      -3.626  -2.797  -1.621  0.00  0.00     0.040 A 
ENDROOT
BRANCH   1   7
ATOM      7  N   UNL d   1      -0.720  -3.430   0.670  0.00  0.00    -0.320 N 
ATOM      8  C   UNL d   1      -0.051  -2.304   1.106  0.00  0.00     0.261 C 
ATOM      9  O   UNL d   1      -0.537  -1.181   1.066  0.00  0.00    -0.267 OA
ATOM     10  H   UNL d   1      -0.485  -4.283   1.155  0.00  0.00     0.169 HD
BRANCH   8  11
ATOM     11  C   UNL d   1       1.260  -2.559   1.722  0.00  0.00     0.093 A 
ATOM     12  C   UNL d   1       2.122  -1.645   2.443  0.00  0.00     0.083 A 
ATOM     13  N   UNL d   1       3.269  -2.264   2.778  0.00  0.00    -0.259 N 
ATOM     14  O   UNL d   1       3.167  -3.555   2.358  0.00  0.00    -0.241 OA
ATOM     15  HN  UNL d   1       4.066  -1.844   3.257  1.00  0.00     0.195 HD
ATOM     16  C   UNL d   1       1.972  -3.751   1.751  0.00  0.00     0.090 A 
ATOM     17  C   UNL d   1       1.753  -5.151   1.330  0.00  0.00     0.080 C 
BRANCH  12  18
ATOM     18  C   UNL d   1       1.943  -0.260   2.896  0.00  0.00    -0.006 A 
ATOM     19  C   UNL d   1       3.057   0.595   2.992  0.00  0.00     0.014 A 
ATOM     20  C   UNL d   1       2.943   1.876   3.539  0.00  0.00     0.001 A 
ATOM     21  C   UNL d   1       1.708   2.329   3.992  0.00  0.00     0.000 A 
ATOM     22  C   UNL d   1       0.593   1.500   3.903  0.00  0.00     0.001 A 
ATOM     23  C   UNL d   1       0.710   0.210   3.372  0.00  0.00     0.014 A 
ENDBRANCH  12  18
ENDBRANCH   8  11
ENDBRANCH   1   7
BRANCH   3  24
ATOM     24  O   UNL d   1      -1.488  -1.849  -1.805  0.00  0.00    -0.306 OA
BRANCH  24  25
ATOM     25  C   UNL d   1      -0.248  -2.303  -2.212  0.00  0.00     0.109 A 
ATOM     26  C   UNL d   1       0.744  -1.367  -2.546  0.00  0.00     0.102 A 
ATOM     27  C   UNL d   1       1.997  -1.824  -2.982  0.00  0.00     0.039 A 
ATOM     28  C   UNL d   1       2.287  -3.185  -3.062  0.00  0.00     0.003 A 
ATOM     29  C   UNL d   1       1.303  -4.113  -2.753  0.00  0.00     0.003 A 
ATOM     30  C   UNL d   1       0.036  -3.674  -2.366  0.00  0.00     0.040 A 
BRANCH  26  31
ATOM     31  O   UNL d   1       0.647  -0.003  -2.586  0.00  0.00    -0.353 OA
ATOM     32  C   UNL d   1      -0.178   0.664  -1.644  0.00  0.00     0.210 C 
ENDBRANCH  26  31
ENDBRANCH  24  25
ENDBRANCH   3  24
BRANCH   2  33
ATOM     33  C   UNL d   1      -5.239  -5.292   0.776  0.00  0.00     0.417 C 
ATOM     34  F   UNL d   1      -4.747  -5.917   1.885  0.00  0.00    -0.166 F 
ATOM     35  F   UNL d   1      -6.323  -4.588   1.199  0.00  0.00    -0.166 F 
ATOM     36  F   UNL d   1      -5.716  -6.280  -0.026  0.00  0.00    -0.166 F 
ENDBRANCH   2  33
TORSDOF 7
