REMARK  4 active torsions:
REMARK  status: ('A' for Active; 'I' for Inactive)
REMARK    1  A    between atoms: C_2  and  N_1 
REMARK    2  A    between atoms: C_5  and  C_8 
REMARK    3  A    between atoms: N_11  and  N_9 
REMARK    4  A    between atoms: C_23  and  C_21 
ROOT
ATOM      1  N   UNL d   1      -0.330   1.117  -0.007  0.00  0.00    -0.259 N 
ATOM      2  C   UNL d   1       0.976   0.690  -0.062  0.00  0.00     0.169 A 
ATOM      3  C   UNL d   1      -1.308   0.145  -0.082  0.00  0.00     0.240 A 
ATOM      4  S   UNL d   1       1.056  -1.057  -0.128  0.00  0.00    -0.083 SA
ATOM      5  N   UNL d   1       1.990   1.500  -0.019  0.00  0.00    -0.280 N 
ATOM      6  HN  UNL d   1       1.885   2.510   0.074  1.00  0.00     0.189 HD
ATOM      7  C   UNL d   1      -0.729  -1.245  -0.108  0.00  0.00     0.186 A 
ATOM      8  O   UNL d   1      -2.518   0.336  -0.193  0.00  0.00    -0.272 OA
ENDROOT
BRANCH   1   9
ATOM      9  C   UNL d   1      -0.678   2.496  -0.022  0.00  0.00     0.067 A 
ATOM     10  C   UNL d   1      -0.196   3.308  -1.066  0.00  0.00     0.048 A 
ATOM     11  C   UNL d   1      -0.541   4.667  -1.149  0.00  0.00     0.050 A 
ATOM     12  C   UNL d   1      -1.360   5.219  -0.155  0.00  0.00     0.018 A 
ATOM     13  C   UNL d   1      -1.830   4.428   0.896  0.00  0.00     0.027 A 
ATOM     14  C   UNL d   1      -1.497   3.071   0.964  0.00  0.00     0.061 A 
ATOM     15 CL   UNL d   1      -2.013   2.197   2.365  0.00  0.00    -0.082 Cl
BRANCH  11  16
ATOM     16  C   UNL d   1      -0.054   5.527  -2.292  0.00  0.00     0.417 C 
ATOM     17  F   UNL d   1       0.714   4.856  -3.193  0.00  0.00    -0.166 F 
ATOM     18  F   UNL d   1      -1.081   6.065  -3.006  0.00  0.00    -0.166 F 
ATOM     19  F   UNL d   1       0.697   6.580  -1.867  0.00  0.00    -0.166 F 
ENDBRANCH  11  16
ENDBRANCH   1   9
BRANCH   5  20
ATOM     20  N   UNL d   1       3.230   0.880  -0.112  0.00  0.00    -0.309 N 
ATOM     21  C   UNL d   1       4.162   1.586   0.445  0.00  0.00     0.118 C 
ATOM     22  HN  UNL d   1       3.387  -0.022  -0.563  1.00  0.00     0.186 HD
BRANCH  21  23
ATOM     23  C   UNL d   1       5.565   1.133   0.459  0.00  0.00    -0.019 A 
ATOM     24  C   UNL d   1       5.934  -0.061  -0.169  0.00  0.00     0.013 A 
ATOM     25  C   UNL d   1       7.269  -0.467  -0.159  0.00  0.00     0.001 A 
ATOM     26  C   UNL d   1       8.230   0.316   0.478  0.00  0.00     0.000 A 
ATOM     27  C   UNL d   1       7.860   1.505   1.111  0.00  0.00     0.001 A 
ATOM     28  C   UNL d   1       6.526   1.917   1.104  0.00  0.00     0.013 A 
ENDBRANCH  21  23
ENDBRANCH   5  20
TORSDOF 4
