REMARK  4 active torsions:
REMARK  status: ('A' for Active; 'I' for Inactive)
REMARK    1  A    between atoms: N_11  and  C_3 
REMARK    2  A    between atoms: C_14  and  N_11 
REMARK    3  A    between atoms: C_15  and  N_12 
REMARK    4  A    between atoms: C_22  and  C_15 
ROOT
ATOM      1  C   UNL d   1       3.584  -4.317  -0.658  0.00  0.00     0.043 A 
ATOM      2  C   UNL d   1       4.111  -5.535  -0.225  0.00  0.00     0.089 A 
ATOM      3  C   UNL d   1       2.317  -3.979  -0.098  0.00  0.00     0.095 A 
ATOM      4  S   UNL d   1       5.540  -5.995  -1.020  0.00  0.00    -0.075 SA
ATOM      5  C   UNL d   1       4.523  -3.699  -1.591  0.00  0.00    -0.029 C 
ATOM      6  C   UNL d   1       5.571  -4.551  -1.904  0.00  0.00    -0.008 C 
ATOM      7  N   UNL d   1       3.610  -6.361   0.706  0.00  0.00    -0.346 N 
ATOM      8  HN  UNL d   1       4.049  -7.239   0.983  1.00  0.00     0.167 HD
ATOM      9  N   UNL d   1       1.822  -4.799   0.866  0.00  0.00    -0.342 N 
ATOM     10  HN  UNL d   1       0.939  -4.568   1.320  1.00  0.00     0.167 HD
ATOM     11  C   UNL d   1       2.480  -5.904   1.225  0.00  0.00     0.182 A 
ATOM     12  C   UNL d   1       4.497  -2.300  -2.145  0.00  0.00     0.041 C 
ATOM     13  C   UNL d   1       6.660  -4.290  -2.897  0.00  0.00     0.047 C 
ATOM     14  C   UNL d   1       5.473  -2.097  -3.322  0.00  0.00     0.005 C 
ATOM     15  C   UNL d   1       6.828  -2.786  -3.113  0.00  0.00     0.005 C 
ENDROOT
BRANCH   3  16
ATOM     16  N   UNL d   1       1.505  -2.882  -0.494  0.00  0.00    -0.273 NA
ATOM     17  H   UNL d   1       1.803  -2.578  -1.414  0.00  0.00     0.129 HD
BRANCH  16  18
ATOM     18  C   UNL d   1       0.042  -3.180  -0.439  0.00  0.00     0.065 C 
ATOM     19  C   UNL d   1      -0.758  -2.313  -1.421  0.00  0.00     0.050 C 
ATOM     20  C   UNL d   1      -1.070  -0.889  -0.930  0.00  0.00     0.274 C 
ATOM     21  N   UNL d   1      -1.639  -0.820   0.422  0.00  0.00     0.092 N 
ATOM     22  C   UNL d   1      -0.781  -1.582   1.359  0.00  0.00     0.274 C 
ATOM     23  C   UNL d   1      -0.566  -3.031   0.958  0.00  0.00     0.050 C 
BRANCH  21  24
ATOM     24  C   UNL d   1      -1.694   0.568   0.955  0.00  0.00     0.311 C 
BRANCH  24  25
ATOM     25  C   UNL d   1      -2.592   1.609   0.313  0.00  0.00    -0.030 A 
ATOM     26  C   UNL d   1      -3.664   2.151   1.041  0.00  0.00     0.009 A 
ATOM     27  C   UNL d   1      -4.337   3.295   0.595  0.00  0.00     0.001 A 
ATOM     28  C   UNL d   1      -3.963   3.901  -0.601  0.00  0.00     0.000 A 
ATOM     29  C   UNL d   1      -2.935   3.353  -1.361  0.00  0.00     0.001 A 
ATOM     30  C   UNL d   1      -2.244   2.220  -0.907  0.00  0.00     0.009 A 
ENDBRANCH  24  25
ENDBRANCH  21  24
ENDBRANCH  16  18
ENDBRANCH   3  16
TORSDOF 4
