REMARK  6 active torsions:
REMARK  status: ('A' for Active; 'I' for Inactive)
REMARK    1  A    between atoms: C_2  and  S_1 
REMARK    2  A    between atoms: C_5  and  S_1 
REMARK    3  A    between atoms: C_8  and  C_2 
REMARK    4  A    between atoms: C_3  and  C_4 
REMARK    5  A    between atoms: C_4  and  O_9 
REMARK    6  A    between atoms: O_9  and  N_6 
ROOT
ATOM      1  N   UNL d   1       1.900  -2.109   1.949  0.00  0.00    -0.265 N 
ATOM      2  HN  UNL d   1       2.355  -2.861   2.466  1.00  0.00     0.194 HD
ATOM      3  C   UNL d   1       1.066  -1.273   2.490  0.00  0.00     0.021 C 
ATOM      4  C   UNL d   1       0.412  -0.108   1.785  0.00  0.00     0.066 C 
ENDROOT
BRANCH   3   5
ATOM      5  C   UNL d   1       0.739  -1.468   3.947  0.00  0.00     0.199 C 
BRANCH   5   6
ATOM      6  S   UNL d   1      -0.643  -2.559   4.141  0.00  0.00     0.180 S 
ATOM      7  O   UNL d   1      -1.758  -2.017   3.380  0.00  0.00    -0.222 OA
ATOM      8  O   UNL d   1      -0.798  -2.844   5.555  0.00  0.00    -0.222 OA
BRANCH   6   9
ATOM      9  C   UNL d   1      -0.141  -4.077   3.368  0.00  0.00     0.059 A 
ATOM     10  C   UNL d   1       0.912  -4.804   3.932  0.00  0.00     0.025 A 
ATOM     11  C   UNL d   1       1.397  -5.931   3.267  0.00  0.00     0.025 A 
ATOM     12  C   UNL d   1       0.816  -6.328   2.062  0.00  0.00     0.034 A 
ATOM     13  C   UNL d   1      -0.267  -5.627   1.528  0.00  0.00     0.025 A 
ATOM     14 CL   UNL d   1       1.445  -7.690   1.220  0.00  0.00    -0.084 Cl
ATOM     15  C   UNL d   1      -0.754  -4.495   2.184  0.00  0.00     0.025 A 
ENDBRANCH   6   9
ENDBRANCH   5   6
ENDBRANCH   3   5
BRANCH   1  16
ATOM     16  O   UNL d   1       2.114  -1.871   0.577  0.00  0.00    -0.195 OA
BRANCH  16  17
ATOM     17  C   UNL d   1       3.087  -2.712   0.107  0.00  0.00     0.316 C 
ATOM     18  O   UNL d   1       3.715  -3.546   0.744  0.00  0.00    -0.257 OA
BRANCH  17  19
ATOM     19  C   UNL d   1       3.224  -2.592  -1.367  0.00  0.00     0.063 A 
ATOM     20  C   UNL d   1       3.131  -1.395  -2.088  0.00  0.00     0.050 A 
ATOM     21 CL   UNL d   1       2.953   0.157  -1.349  0.00  0.00    -0.083 Cl
ATOM     22  C   UNL d   1       3.250  -1.410  -3.486  0.00  0.00     0.025 A 
ATOM     23  C   UNL d   1       3.493  -2.604  -4.167  0.00  0.00     0.002 A 
ATOM     24  C   UNL d   1       3.631  -3.791  -3.454  0.00  0.00     0.001 A 
ATOM     25  C   UNL d   1       3.497  -3.785  -2.063  0.00  0.00     0.019 A 
ENDBRANCH  17  19
ENDBRANCH  16  17
ENDBRANCH   1  16
TORSDOF 6
