REMARK  5 active torsions:
REMARK  status: ('A' for Active; 'I' for Inactive)
REMARK    1  A    between atoms: N_8  and  C_2 
REMARK    2  A    between atoms: C_16  and  N_8 
REMARK    3  A    between atoms: O_14  and  C_9 
REMARK    4  A    between atoms: O_15  and  C_10 
REMARK    5  A    between atoms: C_19  and  C_16 
ROOT
ATOM      1  C   UNL d   1       0.146   0.718   0.382  0.00  0.00     0.032 A 
ATOM      2  C   UNL d   1      -1.047   1.464   0.382  0.00  0.00     0.094 A 
ATOM      3  C   UNL d   1       0.014  -0.652   0.168  0.00  0.00     0.049 A 
ATOM      4  C   UNL d   1       1.432   1.267   0.585  0.00  0.00     0.056 A 
ATOM      5  N   UNL d   1      -2.248   0.881   0.238  0.00  0.00    -0.342 N 
ATOM      6  HN  UNL d   1      -3.113   1.420   0.265  1.00  0.00     0.167 HD
ATOM      7  C   UNL d   1       1.169  -1.427   0.116  0.00  0.00     0.070 A 
ATOM      8  C   UNL d   1       2.590   0.486   0.523  0.00  0.00     0.102 A 
ATOM      9  C   UNL d   1       2.458  -0.880   0.258  0.00  0.00     0.103 A 
ATOM     10  N   UNL d   1      -1.175  -1.242   0.002  0.00  0.00    -0.351 N 
ATOM     11  HN  UNL d   1      -1.259  -2.246  -0.158  1.00  0.00     0.166 HD
ATOM     12  C   UNL d   1      -2.249  -0.443   0.058  0.00  0.00     0.182 A 
ENDROOT
BRANCH   2  13
ATOM     13  N   UNL d   1      -0.962   2.865   0.523  0.00  0.00    -0.274 NA
ATOM     14  H   UNL d   1      -0.340   3.207  -0.206  0.00  0.00     0.129 HD
BRANCH  13  15
ATOM     15  C   UNL d   1      -2.208   3.629   0.589  0.00  0.00     0.057 C 
ATOM     16  C   UNL d   1      -1.917   5.057   0.111  0.00  0.00     0.026 C 
BRANCH  15  17
ATOM     17  C   UNL d   1      -2.778   3.619   2.020  0.00  0.00     0.015 C 
ATOM     18  C   UNL d   1      -1.810   4.089   3.101  0.00  0.00     0.006 C 
ENDBRANCH  15  17
ENDBRANCH  13  15
ENDBRANCH   2  13
BRANCH   8  19
ATOM     19  O   UNL d   1       3.718   1.234   0.708  0.00  0.00    -0.353 OA
ATOM     20  C   UNL d   1       4.984   0.597   0.722  0.00  0.00     0.210 C 
ENDBRANCH   8  19
BRANCH   9  21
ATOM     21  O   UNL d   1       3.578  -1.665   0.189  0.00  0.00    -0.353 OA
ATOM     22  C   UNL d   1       3.515  -2.742  -0.744  0.00  0.00     0.210 C 
ENDBRANCH   9  21
TORSDOF 5
