REMARK  5 active torsions:
REMARK  status: ('A' for Active; 'I' for Inactive)
REMARK    1  A    between atoms: N_2  and  S_1 
REMARK    2  A    between atoms: C_3  and  S_1 
REMARK    3  A    between atoms: C_4  and  N_2 
REMARK    4  A    between atoms: C_14  and  C_4 
REMARK    5  A    between atoms: N_9  and  C_14 
ROOT
ATOM      1  N   UNL d   1       0.770  -2.399  -0.193  0.00  0.00    -0.268 N 
ATOM      2  H   UNL d   1       0.513  -3.322  -0.547  0.00  0.00     0.180 HD
ENDROOT
BRANCH   1   3
ATOM      3  S   UNL d   1       0.966  -1.230  -1.352  0.00  0.00     0.264 S 
ATOM      4  O   UNL d   1       1.234  -1.910  -2.599  0.00  0.00    -0.200 OA
ATOM      5  O   UNL d   1       1.839  -0.198  -0.841  0.00  0.00    -0.200 OA
BRANCH   3   6
ATOM      6  C   UNL d   1      -0.673  -0.542  -1.456  0.00  0.00     0.083 A 
ATOM      7  C   UNL d   1      -1.087   0.412  -0.521  0.00  0.00     0.049 A 
ATOM      8  C   UNL d   1      -2.358   0.976  -0.645  0.00  0.00     0.037 A 
ATOM      9 CL   UNL d   1      -2.888   2.147   0.499  0.00  0.00    -0.084 Cl
ATOM     10  C   UNL d   1      -3.206   0.605  -1.688  0.00  0.00     0.047 A 
ATOM     11  C   UNL d   1      -2.774  -0.338  -2.619  0.00  0.00     0.037 A 
ATOM     12  C   UNL d   1      -1.510  -0.916  -2.513  0.00  0.00     0.049 A 
ATOM     13 CL   UNL d   1      -3.812  -0.793  -3.914  0.00  0.00    -0.084 Cl
ENDBRANCH   3   6
ENDBRANCH   1   3
BRANCH   1  14
ATOM     14  C   UNL d   1       0.962  -2.284   1.190  0.00  0.00     0.113 C 
ATOM     15  N   UNL d   1       1.592  -1.299   1.726  0.00  0.00    -0.387 N 
ATOM     16  H   UNL d   1       1.973  -0.685   0.988  0.00  0.00     0.157 HD
ATOM     17  HN  UNL d   1       1.700  -1.147   2.729  1.00  0.00     0.157 HD
BRANCH  14  18
ATOM     18  C   UNL d   1       0.346  -3.377   2.057  0.00  0.00     0.348 C 
BRANCH  18  19
ATOM     19  N   UNL d   1       0.737  -4.739   1.613  0.00  0.00     0.095 N 
ATOM     20  C   UNL d   1       2.168  -4.984   1.889  0.00  0.00     0.273 C 
ATOM     21  C   UNL d   1       2.583  -6.402   1.476  0.00  0.00     0.030 C 
ATOM     22  C   UNL d   1       1.718  -7.465   2.144  0.00  0.00     0.003 C 
ATOM     23  C   UNL d   1       0.240  -7.153   1.952  0.00  0.00     0.030 C 
ATOM     24  C   UNL d   1      -0.079  -5.718   2.366  0.00  0.00     0.273 C 
ENDBRANCH  18  19
ENDBRANCH  14  18
ENDBRANCH   1  14
TORSDOF 5
