REMARK  6 active torsions:
REMARK  status: ('A' for Active; 'I' for Inactive)
REMARK    1  A    between atoms: C_7  and  C_1 
REMARK    2  A    between atoms: C_8  and  N_2 
REMARK    3  A    between atoms: C_10  and  C_6 
REMARK       I    between atoms: N_9  and  C_7 
REMARK    4  A    between atoms: C_17  and  C_8 
REMARK    5  A    between atoms: C_18  and  N_9 
REMARK    6  A    between atoms: C_12  and  C_18 
ROOT
ATOM      1  C   UNL d   1      -0.293  -1.168   0.163  0.00  0.00     0.120 A 
ATOM      2  N   UNL d   1       0.926  -0.569  -0.091  0.00  0.00    -0.282 N 
ATOM      3  N   UNL d   1       0.875   0.780  -0.050  0.00  0.00    -0.301 N 
ATOM      4  HN  UNL d   1       1.653   1.433  -0.141  1.00  0.00     0.187 HD
ATOM      5  C   UNL d   1      -1.172  -0.107   0.312  0.00  0.00     0.064 A 
ATOM      6  C   UNL d   1      -0.413   1.075   0.133  0.00  0.00     0.036 A 
ENDROOT
BRANCH   1   7
ATOM      7  C   UNL d   1      -0.563  -2.597   0.147  0.00  0.00     0.270 C 
ATOM      8  N   UNL d   1      -1.717  -3.010   0.798  0.00  0.00    -0.351 N 
ATOM      9  H   UNL d   1      -2.306  -2.344   1.273  0.00  0.00     0.163 HD
ATOM     10  O   UNL d   1       0.156  -3.396  -0.439  0.00  0.00    -0.266 OA
BRANCH   8  11
ATOM     11  C   UNL d   1      -2.192  -4.363   0.584  0.00  0.00     0.169 C 
BRANCH  11  12
ATOM     12  C   UNL d   1      -3.284  -4.778   1.525  0.00  0.00     0.000 A 
ATOM     13  S   UNL d   1      -2.898  -5.398   3.079  0.00  0.00    -0.105 SA
ATOM     14  C   UNL d   1      -4.509  -5.917   3.353  0.00  0.00     0.050 A 
ATOM     15  C   UNL d   1      -5.346  -5.558   2.318  0.00  0.00     0.008 A 
ATOM     16  C   UNL d   1      -4.646  -4.877   1.277  0.00  0.00     0.017 A 
ENDBRANCH  11  12
ENDBRANCH   8  11
ENDBRANCH   1   7
BRANCH   2  17
ATOM     17  C   UNL d   1       2.199  -1.166  -0.488  0.00  0.00     0.188 C 
BRANCH  17  18
ATOM     18  C   UNL d   1       3.040  -1.556   0.699  0.00  0.00    -0.038 A 
ATOM     19  C   UNL d   1       3.096  -2.897   1.100  0.00  0.00     0.015 A 
ATOM     20  C   UNL d   1       3.813  -3.277   2.239  0.00  0.00    -0.061 A 
ATOM     21  C   UNL d   1       3.827  -4.710   2.676  0.00  0.00     0.048 C 
ATOM     22  C   UNL d   1       4.510  -2.306   2.966  0.00  0.00     0.007 A 
ATOM     23  C   UNL d   1       4.490  -0.971   2.557  0.00  0.00     0.001 A 
ATOM     24  C   UNL d   1       3.757  -0.597   1.430  0.00  0.00     0.009 A 
ENDBRANCH  17  18
ENDBRANCH   2  17
BRANCH   6  25
ATOM     25  C   UNL d   1      -0.856   2.527   0.093  0.00  0.00    -0.007 C 
ATOM     26  C   UNL d   1      -2.392   2.652   0.081  0.00  0.00     0.021 C 
ATOM     27  C   UNL d   1      -0.315   3.284   1.321  0.00  0.00     0.021 C 
ATOM     28  C   UNL d   1      -0.319   3.208  -1.187  0.00  0.00     0.021 C 
ENDBRANCH   6  25
TORSDOF 6
