REMARK  9 active torsions:
REMARK  status: ('A' for Active; 'I' for Inactive)
REMARK    1  A    between atoms: N_10  and  C_1 
REMARK    2  A    between atoms: N_14  and  C_1 
REMARK    3  A    between atoms: N_9  and  C_4 
REMARK    4  A    between atoms: C_5  and  C_13 
REMARK    5  A    between atoms: N_6  and  N_10 
REMARK    6  A    between atoms: C_18  and  N_14 
REMARK    7  A    between atoms: C_16  and  C_18 
REMARK    8  A    between atoms: C_21  and  C_16 
REMARK    9  A    between atoms: O_17  and  C_21 
ROOT
ATOM      1  N   UNL d   1      -1.186   0.090  -1.165  0.00  0.00    -0.309 N 
ATOM      2  HN  UNL d   1      -1.701  -0.035  -0.293  1.00  0.00     0.186 HD
ATOM      3  C   UNL d   1      -1.790   0.322  -2.290  0.00  0.00     0.120 C 
ENDROOT
BRANCH   1   4
ATOM      4  N   UNL d   1       0.177   0.025  -1.212  0.00  0.00    -0.277 N 
ATOM      5  H   UNL d   1       0.679   0.184  -2.081  0.00  0.00     0.189 HD
BRANCH   4   6
ATOM      6  C   UNL d   1       0.901  -0.024  -0.034  0.00  0.00     0.186 C 
ATOM      7  S   UNL d   1       2.558   0.113  -0.056  0.00  0.00    -0.040 SA
BRANCH   6   8
ATOM      8  N   UNL d   1       0.097  -0.176   1.067  0.00  0.00    -0.366 N 
ATOM      9  H   UNL d   1      -0.876  -0.233   0.775  0.00  0.00     0.161 HD
BRANCH   8  10
ATOM     10  C   UNL d   1       0.389   0.166   2.447  0.00  0.00     0.124 C 
BRANCH  10  11
ATOM     11  C   UNL d   1       0.027   1.620   2.753  0.00  0.00     0.046 C 
BRANCH  11  12
ATOM     12  C   UNL d   1      -1.471   1.884   2.625  0.00  0.00     0.168 C 
BRANCH  12  13
ATOM     13  O   UNL d   1      -1.738   3.235   3.001  0.00  0.00    -0.396 OA
ATOM     14  C   UNL d   1      -3.120   3.547   2.874  0.00  0.00     0.201 C 
ENDBRANCH  12  13
ENDBRANCH  11  12
ENDBRANCH  10  11
ENDBRANCH   8  10
ENDBRANCH   6   8
ENDBRANCH   4   6
ENDBRANCH   1   4
BRANCH   3  15
ATOM     15  C   UNL d   1      -3.266   0.459  -2.319  0.00  0.00     0.003 A 
ATOM     16  C   UNL d   1      -3.980   0.688  -3.493  0.00  0.00     0.047 A 
ATOM     17  C   UNL d   1      -5.377   0.848  -3.444  0.00  0.00     0.054 A 
ATOM     18 CL   UNL d   1      -3.218   0.800  -5.041  0.00  0.00    -0.083 Cl
ATOM     19  C   UNL d   1      -6.105   0.784  -2.242  0.00  0.00     0.031 A 
ATOM     20  C   UNL d   1      -5.356   0.538  -1.083  0.00  0.00     0.030 A 
ATOM     21  C   UNL d   1      -3.965   0.382  -1.112  0.00  0.00     0.017 A 
BRANCH  19  22
ATOM     22  N   UNL d   1      -7.473   0.987  -2.202  0.00  0.00    -0.390 N 
ATOM     23  C   UNL d   1      -8.342   0.592  -3.307  0.00  0.00     0.149 C 
ATOM     24  C   UNL d   1      -8.166   1.381  -0.979  0.00  0.00     0.149 C 
ENDBRANCH  19  22
ENDBRANCH   3  15
TORSDOF 9
