REMARK  2 active torsions:
REMARK  status: ('A' for Active; 'I' for Inactive)
REMARK    1  A    between atoms: C_16  and  N_8 
REMARK    2  A    between atoms: C_17  and  C_16 
ROOT
ATOM      1  C   UNL d   1       0.100  -0.739   0.041  0.00  0.00     0.101 A 
ATOM      2  C   UNL d   1       0.049   0.604   0.065  0.00  0.00     0.077 A 
ATOM      3  N   UNL d   1       1.323  -1.379  -0.060  0.00  0.00    -0.293 N 
ATOM      4  N   UNL d   1       2.479   0.678  -0.007  0.00  0.00    -0.270 N 
ATOM      5  C   UNL d   1       2.542  -0.704  -0.093  0.00  0.00     0.332 A 
ATOM      6  C   UNL d   1       1.296   1.394   0.056  0.00  0.00     0.262 A 
ATOM      7  N   UNL d   1      -1.089  -1.448   0.123  0.00  0.00    -0.252 NA
ATOM      8  N   UNL d   1      -2.422   0.560  -0.387  0.00  0.00     0.108 N 
ATOM      9  C   UNL d   1      -1.259   1.363   0.074  0.00  0.00     0.321 C 
ATOM     10  C   UNL d   1      -2.349  -0.742   0.258  0.00  0.00     0.369 C 
ATOM     11  O   UNL d   1       3.611  -1.308  -0.188  0.00  0.00    -0.246 OA
ATOM     12  O   UNL d   1       1.248   2.621   0.132  0.00  0.00    -0.267 OA
ATOM     13  C   UNL d   1       1.417  -2.832  -0.099  0.00  0.00     0.162 C 
ATOM     14  C   UNL d   1       3.718   1.431   0.019  0.00  0.00     0.164 C 
ATOM     15  H   UNL d   1      -1.134  -2.161  -0.599  0.00  0.00     0.130 HD
ENDROOT
BRANCH   8  16
ATOM     16  C   UNL d   1      -3.689   1.257  -0.107  0.00  0.00     0.306 C 
BRANCH  16  17
ATOM     17  C   UNL d   1      -4.988   0.526  -0.532  0.00  0.00     0.149 C 
ATOM     18  O   UNL d   1      -6.117   1.359  -0.211  0.00  0.00    -0.384 OA
ATOM     19  C   UNL d   1      -6.900   1.569  -1.388  0.00  0.00     0.168 C 
ATOM     20  C   UNL d   1      -6.501   0.509  -2.386  0.00  0.00     0.029 C 
ATOM     21  C   UNL d   1      -5.073   0.190  -2.016  0.00  0.00     0.036 C 
ENDBRANCH  16  17
ENDBRANCH   8  16
TORSDOF 2
