REMARK  3 active torsions:
REMARK  status: ('A' for Active; 'I' for Inactive)
REMARK       I    between atoms: N_4  and  C_1 
REMARK    1  A    between atoms: C_10  and  C_1 
REMARK    2  A    between atoms: N_2  and  N_4 
REMARK    3  A    between atoms: C_12  and  C_11 
ROOT
ATOM      1  C   UNL d   1       0.997   0.200   0.010  0.00  0.00     0.270 C 
ATOM      2  N   UNL d   1       0.239   1.363  -0.011  0.00  0.00    -0.266 N 
ATOM      3  O   UNL d   1       2.224   0.159  -0.064  0.00  0.00    -0.266 OA
ATOM      4  H   UNL d   1      -0.771   1.347  -0.067  0.00  0.00     0.190 HD
ENDROOT
BRANCH   2   5
ATOM      5  N   UNL d   1       0.898   2.554  -0.071  0.00  0.00    -0.308 N 
ATOM      6  C   UNL d   1       0.188   3.629  -0.161  0.00  0.00     0.120 C 
ATOM      7  HN  UNL d   1       1.917   2.595  -0.044  1.00  0.00     0.186 HD
BRANCH   6   8
ATOM      8  C   UNL d   1       0.845   4.947  -0.213  0.00  0.00    -0.004 A 
ATOM      9  C   UNL d   1       0.086   6.104  -0.295  0.00  0.00     0.100 A 
ATOM     10  N   UNL d   1       0.619   7.350  -0.328  0.00  0.00    -0.374 N 
ATOM     11  C   UNL d   1       1.968   7.436  -0.278  0.00  0.00     0.087 A 
ATOM     12  HN  UNL d   1       0.031   8.182  -0.388  1.00  0.00     0.164 HD
ATOM     13  C   UNL d   1       2.809   6.337  -0.200  0.00  0.00     0.018 A 
ATOM     14  C   UNL d   1       2.235   5.069  -0.168  0.00  0.00     0.015 A 
ENDBRANCH   6   8
ENDBRANCH   2   5
BRANCH   1  15
ATOM     15  C   UNL d   1       0.254  -1.083   0.104  0.00  0.00     0.036 A 
ATOM     16  C   UNL d   1       0.857  -2.222  -0.436  0.00  0.00     0.034 A 
ATOM     17  C   UNL d   1       0.198  -3.430  -0.318  0.00  0.00     0.088 A 
ATOM     18  N   UNL d   1      -0.997  -3.568   0.294  0.00  0.00    -0.375 N 
ATOM     19  C   UNL d   1      -1.549  -2.456   0.825  0.00  0.00     0.088 A 
ATOM     20  HN  UNL d   1      -1.462  -4.474   0.354  1.00  0.00     0.164 HD
ATOM     21  C   UNL d   1      -0.972  -1.199   0.757  0.00  0.00     0.034 A 
ENDBRANCH   1  15
TORSDOF 3
