REMARK  3 active torsions:
REMARK  status: ('A' for Active; 'I' for Inactive)
REMARK    1  A    between atoms: C_4  and  C_1 
REMARK    2  A    between atoms: N_2  and  C_3 
REMARK    3  A    between atoms: O_16  and  C_10 
ROOT
ATOM      1  C   UNL d   1       0.091   2.118  -2.839  0.00  0.00     0.041 A 
ATOM      2  C   UNL d   1       0.644   0.388  -1.206  0.00  0.00     0.052 A 
ATOM      3  C   UNL d   1       0.653   1.734  -1.613  0.00  0.00     0.046 A 
ATOM      4  C   UNL d   1      -0.465   1.128  -3.663  0.00  0.00     0.066 A 
ATOM      5  C   UNL d   1       0.080  -0.583  -2.049  0.00  0.00     0.053 A 
ATOM      6  C   UNL d   1      -0.475  -0.217  -3.272  0.00  0.00     0.071 A 
ENDROOT
BRANCH   1   7
ATOM      7  N   UNL d   1       0.053   3.496  -3.226  0.00  0.00    -0.333 N 
ATOM      8  C   UNL d   1       0.592   4.565  -2.530  0.00  0.00     0.096 A 
ATOM      9  C   UNL d   1       0.290   5.740  -3.185  0.00  0.00     0.019 A 
ATOM     10  C   UNL d   1      -0.436   5.396  -4.339  0.00  0.00     0.019 A 
ATOM     11  C   UNL d   1      -0.553   4.023  -4.353  0.00  0.00     0.096 A 
ENDBRANCH   1   7
BRANCH   2  12
ATOM     12  C   UNL d   1       1.203  -0.023   0.135  0.00  0.00     0.417 C 
ATOM     13  F   UNL d   1       1.734   1.009   0.846  0.00  0.00    -0.166 F 
ATOM     14  F   UNL d   1       2.193  -0.950   0.024  0.00  0.00    -0.166 F 
ATOM     15  F   UNL d   1       0.257  -0.583   0.939  0.00  0.00    -0.166 F 
ENDBRANCH   2  12
BRANCH   6  16
ATOM     16  O   UNL d   1      -1.068  -1.063  -4.170  0.00  0.00    -0.356 OA
ATOM     17  C   UNL d   1      -1.137  -2.439  -3.819  0.00  0.00     0.210 C 
ENDBRANCH   6  16
TORSDOF 3
