REMARK  5 active torsions:
REMARK  status: ('A' for Active; 'I' for Inactive)
REMARK    1  A    between atoms: N_7  and  C_1 
REMARK    2  A    between atoms: C_8  and  N_2 
REMARK    3  A    between atoms: C_12  and  C_6 
REMARK       I    between atoms: C_9  and  N_7 
REMARK    4  A    between atoms: C_16  and  C_9 
REMARK    5  A    between atoms: O_25  and  C_22 
ROOT
ATOM      1  C   UNL d   1      -0.463  -1.207  -0.186  0.00  0.00     0.132 C 
ATOM      2  N   UNL d   1       0.828  -0.799   0.136  0.00  0.00    -0.239 N 
ATOM      3  N   UNL d   1       0.865   0.519   0.460  0.00  0.00    -0.291 N 
ATOM      4  HN  UNL d   1       1.636   1.029   0.891  1.00  0.00     0.187 HD
ATOM      5  C   UNL d   1      -1.188  -0.043  -0.316  0.00  0.00     0.082 C 
ATOM      6  C   UNL d   1      -0.333   1.009   0.093  0.00  0.00     0.062 C 
ENDROOT
BRANCH   1   7
ATOM      7  N   UNL d   1      -0.874  -2.530  -0.319  0.00  0.00    -0.311 N 
ATOM      8  C   UNL d   1      -1.910  -2.884  -1.162  0.00  0.00     0.227 C 
ATOM      9  O   UNL d   1      -2.545  -2.078  -1.853  0.00  0.00    -0.273 OA
ATOM     10  H   UNL d   1      -0.315  -3.261   0.102  0.00  0.00     0.170 HD
BRANCH   8  11
ATOM     11  C   UNL d   1      -2.171  -4.405  -1.239  0.00  0.00     0.078 C 
ATOM     12  C   UNL d   1      -3.665  -4.822  -1.342  0.00  0.00     0.014 C 
ATOM     13  C   UNL d   1      -3.300  -6.087  -0.550  0.00  0.00     0.002 C 
ATOM     14  C   UNL d   1      -2.117  -5.288   0.036  0.00  0.00     0.014 C 
ENDBRANCH   8  11
ENDBRANCH   1   7
BRANCH   2  15
ATOM     15  C   UNL d   1       2.038  -1.558   0.083  0.00  0.00     0.060 A 
ATOM     16  C   UNL d   1       2.120  -2.744  -0.664  0.00  0.00     0.057 A 
ATOM     17  C   UNL d   1       3.303  -3.492  -0.681  0.00  0.00     0.058 A 
ATOM     18 CL   UNL d   1       3.296  -4.961  -1.591  0.00  0.00    -0.082 Cl
ATOM     19  C   UNL d   1       4.422  -3.046   0.017  0.00  0.00     0.055 A 
ATOM     20  C   UNL d   1       4.362  -1.833   0.720  0.00  0.00     0.028 A 
ATOM     21 CL   UNL d   1       5.909  -3.922   0.048  0.00  0.00    -0.083 Cl
ATOM     22  C   UNL d   1       3.177  -1.090   0.745  0.00  0.00     0.033 A 
ENDBRANCH   2  15
BRANCH   6  23
ATOM     23  C   UNL d   1      -0.657   2.439   0.177  0.00  0.00    -0.008 A 
ATOM     24  C   UNL d   1       0.158   3.322   0.898  0.00  0.00     0.016 A 
ATOM     25  C   UNL d   1      -0.171   4.681   1.011  0.00  0.00     0.037 A 
ATOM     26  C   UNL d   1      -1.321   5.177   0.399  0.00  0.00     0.068 A 
ATOM     27  C   UNL d   1      -2.115   4.316  -0.355  0.00  0.00     0.037 A 
ATOM     28  C   UNL d   1      -1.795   2.958  -0.461  0.00  0.00     0.016 A 
BRANCH  26  29
ATOM     29  O   UNL d   1      -1.741   6.476   0.438  0.00  0.00    -0.356 OA
ATOM     30  C   UNL d   1      -1.350   7.215   1.590  0.00  0.00     0.210 C 
ENDBRANCH  26  29
ENDBRANCH   6  23
TORSDOF 5
