REMARK  5 active torsions:
REMARK  status: ('A' for Active; 'I' for Inactive)
REMARK    1  A    between atoms: C_2  and  S_1 
REMARK    2  A    between atoms: C_3  and  S_1 
REMARK    3  A    between atoms: C_9  and  C_3 
REMARK    4  A    between atoms: S_8  and  C_9 
REMARK    5  A    between atoms: C_13  and  S_8 
ROOT
ATOM      1  S   UNL d   1       1.079  -0.195  -0.100  0.00  0.00     0.176 S 
ATOM      2  O   UNL d   1       2.475  -0.058   0.274  0.00  0.00    -0.223 OA
ATOM      3  O   UNL d   1       0.703  -0.337  -1.494  0.00  0.00    -0.223 OA
ENDROOT
BRANCH   1   4
ATOM      4  C   UNL d   1       0.223   1.231   0.535  0.00  0.00     0.059 A 
ATOM      5  C   UNL d   1       0.751   1.923   1.628  0.00  0.00     0.024 A 
ATOM      6  C   UNL d   1       0.141   3.104   2.057  0.00  0.00     0.008 A 
ATOM      7  C   UNL d   1      -0.989   3.605   1.394  0.00  0.00    -0.062 A 
ATOM      8  C   UNL d   1      -1.504   2.903   0.296  0.00  0.00     0.008 A 
ATOM      9  C   UNL d   1      -1.605   4.899   1.840  0.00  0.00     0.048 C 
ATOM     10  C   UNL d   1      -0.900   1.720  -0.137  0.00  0.00     0.024 A 
ENDBRANCH   1   4
BRANCH   1  11
ATOM     11  C   UNL d   1       0.401  -1.577   0.795  0.00  0.00     0.156 C 
BRANCH  11  12
ATOM     12  C   UNL d   1       1.076  -2.855   0.314  0.00  0.00     0.095 C 
BRANCH  12  13
ATOM     13  S   UNL d   1       0.404  -4.309   1.192  0.00  0.00    -0.129 SA
BRANCH  13  14
ATOM     14  C   UNL d   1       1.379  -5.675   0.554  0.00  0.00     0.000 A 
ATOM     15  C   UNL d   1       2.374  -5.562  -0.423  0.00  0.00     0.018 A 
ATOM     16  C   UNL d   1       3.091  -6.688  -0.849  0.00  0.00     0.001 A 
ATOM     17  C   UNL d   1       2.820  -7.942  -0.306  0.00  0.00     0.000 A 
ATOM     18  C   UNL d   1       1.828  -8.071   0.662  0.00  0.00     0.001 A 
ATOM     19  C   UNL d   1       1.115  -6.946   1.087  0.00  0.00     0.018 A 
ENDBRANCH  13  14
ENDBRANCH  12  13
ENDBRANCH  11  12
ENDBRANCH   1  11
TORSDOF 5
