REMARK  6 active torsions:
REMARK  status: ('A' for Active; 'I' for Inactive)
REMARK    1  A    between atoms: C_6  and  C_1 
REMARK    2  A    between atoms: C_2  and  C_4 
REMARK    3  A    between atoms: C_3  and  C_5 
REMARK    4  A    between atoms: C_12  and  C_6 
REMARK    5  A    between atoms: N_11  and  C_7 
REMARK    6  A    between atoms: C_13  and  N_11 
ROOT
ATOM      1  C   UNL d   1       0.856   0.179   0.002  0.00  0.00     0.110 C 
ATOM      2  C   UNL d   1       0.184  -0.186   1.110  0.00  0.00     0.115 C 
ATOM      3  C   UNL d   1       0.171   0.602  -1.169  0.00  0.00     0.105 C 
ATOM      4  N   UNL d   1      -0.412   0.914  -2.120  0.00  0.00    -0.191 NA
ENDROOT
BRANCH   1   5
ATOM      5  C   UNL d   1       2.349   0.154   0.038  0.00  0.00     0.204 C 
ATOM      6  O   UNL d   1       2.972   0.347   1.079  0.00  0.00    -0.286 OA
BRANCH   5   7
ATOM      7  C   UNL d   1       3.095  -0.103  -1.228  0.00  0.00     0.016 A 
ATOM      8  C   UNL d   1       4.337   0.519  -1.415  0.00  0.00     0.017 A 
ATOM      9  C   UNL d   1       5.047   0.327  -2.605  0.00  0.00     0.025 A 
ATOM     10  C   UNL d   1       4.520  -0.491  -3.604  0.00  0.00     0.034 A 
ATOM     11  C   UNL d   1       3.305  -1.144  -3.411  0.00  0.00     0.025 A 
ATOM     12 CL   UNL d   1       5.375  -0.703  -5.081  0.00  0.00    -0.084 Cl
ATOM     13  C   UNL d   1       2.601  -0.966  -2.217  0.00  0.00     0.017 A 
ENDBRANCH   5   7
ENDBRANCH   1   5
BRANCH   2  14
ATOM     14  N   UNL d   1      -1.178  -0.329   1.268  0.00  0.00    -0.364 N 
ATOM     15  H   UNL d   1      -1.754  -0.217   0.434  0.00  0.00     0.165 HD
BRANCH  14  16
ATOM     16  C   UNL d   1      -1.915  -0.414   2.461  0.00  0.00     0.033 A 
ATOM     17  C   UNL d   1      -1.394  -0.060   3.709  0.00  0.00     0.045 A 
ATOM     18  C   UNL d   1      -2.166  -0.160   4.880  0.00  0.00     0.050 A 
ATOM     19  C   UNL d   1      -3.467  -0.677   4.799  0.00  0.00     0.032 A 
ATOM     20  C   UNL d   1      -4.006  -1.067   3.566  0.00  0.00     0.050 A 
ATOM     21  C   UNL d   1      -3.218  -0.934   2.410  0.00  0.00     0.045 A 
BRANCH  18  22
ATOM     22  C   UNL d   1      -1.594   0.322   6.192  0.00  0.00     0.417 C 
ATOM     23  F   UNL d   1      -2.463   0.210   7.235  0.00  0.00    -0.166 F 
ATOM     24  F   UNL d   1      -0.477  -0.362   6.559  0.00  0.00    -0.166 F 
ATOM     25  F   UNL d   1      -1.235   1.634   6.146  0.00  0.00    -0.166 F 
ENDBRANCH  18  22
BRANCH  20  26
ATOM     26  C   UNL d   1      -5.413  -1.604   3.459  0.00  0.00     0.417 C 
ATOM     27  F   UNL d   1      -6.066  -1.658   4.653  0.00  0.00    -0.166 F 
ATOM     28  F   UNL d   1      -6.194  -0.846   2.641  0.00  0.00    -0.166 F 
ATOM     29  F   UNL d   1      -5.454  -2.867   2.953  0.00  0.00    -0.166 F 
ENDBRANCH  20  26
ENDBRANCH  14  16
ENDBRANCH   2  14
TORSDOF 6
