REMARK  2 active torsions:
REMARK  status: ('A' for Active; 'I' for Inactive)
REMARK    1  A    between atoms: C_8  and  C_1 
REMARK    2  A    between atoms: C_7  and  C_2 
ROOT
ATOM      1  C   UNL d   1      -0.777  -1.115  -0.087  0.00  0.00     0.066 C 
ATOM      2  C   UNL d   1       0.733  -1.126   0.180  0.00  0.00     0.066 C 
ATOM      3  N   UNL d   1      -1.467  -0.029   0.068  0.00  0.00    -0.386 N 
ATOM      4  HN  UNL d   1      -2.482  -0.004  -0.035  1.00  0.00     0.159 HD
ATOM      5  N   UNL d   1       1.437  -0.047   0.021  0.00  0.00    -0.386 N 
ATOM      6  HN  UNL d   1       2.451  -0.031   0.132  1.00  0.00     0.159 HD
ATOM      7  C   UNL d   1       0.660   1.148  -0.332  0.00  0.00     0.139 C 
ATOM      8  C   UNL d   1      -0.678   1.161   0.404  0.00  0.00     0.139 C 
ENDROOT
BRANCH   1   9
ATOM      9  C   UNL d   1      -1.491  -2.329  -0.579  0.00  0.00    -0.007 A 
ATOM     10  C   UNL d   1      -2.837  -2.501  -0.220  0.00  0.00     0.014 A 
ATOM     11  C   UNL d   1      -3.560  -3.595  -0.696  0.00  0.00     0.001 A 
ATOM     12  C   UNL d   1      -2.943  -4.523  -1.533  0.00  0.00     0.000 A 
ATOM     13  C   UNL d   1      -1.604  -4.361  -1.890  0.00  0.00     0.001 A 
ATOM     14  C   UNL d   1      -0.878  -3.262  -1.422  0.00  0.00     0.014 A 
ENDBRANCH   1   9
BRANCH   2  15
ATOM     15  C   UNL d   1       1.420  -2.356   0.661  0.00  0.00    -0.007 A 
ATOM     16  C   UNL d   1       2.753  -2.573   0.286  0.00  0.00     0.014 A 
ATOM     17  C   UNL d   1       3.419  -3.728   0.696  0.00  0.00     0.001 A 
ATOM     18  C   UNL d   1       2.760  -4.668   1.486  0.00  0.00     0.000 A 
ATOM     19  C   UNL d   1       1.442  -4.446   1.883  0.00  0.00     0.001 A 
ATOM     20  C   UNL d   1       0.774  -3.285   1.484  0.00  0.00     0.014 A 
ENDBRANCH   2  15
TORSDOF 2
