REMARK  3 active torsions:
REMARK  status: ('A' for Active; 'I' for Inactive)
REMARK    1  A    between atoms: N_10  and  C_3 
REMARK    2  A    between atoms: N_11  and  C_6 
REMARK    3  A    between atoms: C_12  and  N_10 
ROOT
ATOM      1  N   UNL d   1      -0.086  -1.238   0.063  0.00  0.00    -0.166 N 
ATOM      2  HN  UNL d   1      -0.524  -2.158   0.095  1.00  0.00     0.187 HD
ATOM      3  C   UNL d   1      -0.808  -0.124  -0.031  0.00  0.00     0.685 A 
ATOM      4  N   UNL d   1      -0.274   1.091  -0.104  0.00  0.00    -0.188 N 
ATOM      5  HN  UNL d   1      -0.837   1.936  -0.195  1.00  0.00     0.185 HD
ATOM      6  C   UNL d   1       1.224  -1.092   0.111  0.00  0.00     0.170 A 
ATOM      7  N   UNL d   1       1.860   0.064   0.045  0.00  0.00    -0.328 N 
ATOM      8  HN  UNL d   1       2.877   0.141   0.065  1.00  0.00     0.169 HD
ATOM      9  C   UNL d   1       1.056   1.116  -0.050  0.00  0.00     0.200 A 
ENDROOT
BRANCH   3  10
ATOM     10  N   UNL d   1      -2.199  -0.193  -0.107  0.00  0.00    -0.192 N 
ATOM     11  H   UNL d   1      -2.596   0.718  -0.284  0.00  0.00     0.184 HD
BRANCH  10  12
ATOM     12  C   UNL d   1      -3.084  -1.258   0.099  0.00  0.00     0.049 A 
ATOM     13  C   UNL d   1      -2.714  -2.439   0.757  0.00  0.00     0.031 A 
ATOM     14  C   UNL d   1      -3.591  -3.522   0.868  0.00  0.00     0.021 A 
ATOM     15  C   UNL d   1      -4.859  -3.437   0.306  0.00  0.00     0.011 A 
ATOM     16  C   UNL d   1      -5.256  -2.278  -0.353  0.00  0.00     0.021 A 
ATOM     17 BR   UNL d   1      -6.037  -4.909   0.430  0.00  0.00    -0.051 Br
ATOM     18  C   UNL d   1      -4.372  -1.197  -0.456  0.00  0.00     0.031 A 
ENDBRANCH  10  12
ENDBRANCH   3  10
BRANCH   6  19
ATOM     19  N   UNL d   1       1.976  -2.247   0.194  0.00  0.00    -0.273 NA
ATOM     20  H   UNL d   1       1.439  -3.026  -0.162  0.00  0.00     0.127 HD
ATOM     21  H   UNL d   1       2.893  -2.100  -0.205  0.00  0.00     0.127 HD
ENDBRANCH   6  19
TORSDOF 3
