REMARK  4 active torsions:
REMARK  status: ('A' for Active; 'I' for Inactive)
REMARK    1  A    between atoms: C_2  and  N_1 
REMARK    2  A    between atoms: O_12  and  C_3 
REMARK    3  A    between atoms: C_9  and  C_5 
REMARK    4  A    between atoms: O_13  and  C_7 
ROOT
ATOM      1  C   UNL d   1      -1.523  -2.499  -4.620  0.00  0.00     0.102 A 
ATOM      2  C   UNL d   1      -1.040  -3.779  -4.934  0.00  0.00     0.101 A 
ATOM      3  C   UNL d   1      -0.857  -1.747  -3.640  0.00  0.00     0.051 A 
ATOM      4  C   UNL d   1       0.244  -2.261  -2.935  0.00  0.00    -0.032 A 
ATOM      5  C   UNL d   1       0.060  -4.294  -4.236  0.00  0.00     0.040 A 
ATOM      6  C   UNL d   1       0.703  -3.541  -3.251  0.00  0.00     0.014 A 
ENDROOT
BRANCH   4   7
ATOM      7  C   UNL d   1       0.950  -1.471  -1.911  0.00  0.00     0.035 C 
ATOM      8  C   UNL d   1       0.333  -0.562  -1.145  0.00  0.00     0.168 C 
BRANCH   8   9
ATOM      9  N   UNL d   1       1.080   0.208  -0.182  0.00  0.00    -0.127 N 
ATOM     10  O   UNL d   1       0.428   1.045   0.455  0.00  0.00    -0.532 OA
ATOM     11  O   UNL d   1       2.294   0.002  -0.059  0.00  0.00    -0.532 OA
ENDBRANCH   8   9
ENDBRANCH   4   7
BRANCH   1  12
ATOM     12  O   UNL d   1      -2.645  -2.056  -5.270  0.00  0.00    -0.353 OA
ATOM     13  C   UNL d   1      -3.174  -0.786  -4.913  0.00  0.00     0.210 C 
ENDBRANCH   1  12
BRANCH   2  14
ATOM     14  O   UNL d   1      -1.559  -4.657  -5.852  0.00  0.00    -0.353 OA
ATOM     15  C   UNL d   1      -2.144  -4.086  -7.017  0.00  0.00     0.210 C 
ENDBRANCH   2  14
TORSDOF 4
