REMARK  4 active torsions:
REMARK  status: ('A' for Active; 'I' for Inactive)
REMARK    1  A    between atoms: S_12  and  C_6 
REMARK    2  A    between atoms: C_11  and  C_16 
REMARK       I    between atoms: N_15  and  C_11 
REMARK    3  A    between atoms: C_16  and  S_12 
REMARK    4  A    between atoms: N_17  and  N_15 
ROOT
ATOM      1  C   UNL d   1       1.145   0.556   0.031  0.00  0.00     0.089 A 
ATOM      2  C   UNL d   1       0.544  -0.699   0.068  0.00  0.00     0.039 A 
ATOM      3  S   UNL d   1       0.033   1.844  -0.009  0.00  0.00    -0.075 SA
ATOM      4  C   UNL d   1      -0.903  -0.555   0.030  0.00  0.00    -0.029 A 
ATOM      5  C   UNL d   1      -1.285   0.777   0.030  0.00  0.00    -0.008 A 
ATOM      6  C   UNL d   1       1.455  -1.768   0.137  0.00  0.00     0.084 A 
ATOM      7  N   UNL d   1       2.461   0.826   0.026  0.00  0.00    -0.346 N 
ATOM      8  HN  UNL d   1       2.845   1.770  -0.011  1.00  0.00     0.167 HD
ATOM      9  N   UNL d   1       2.788  -1.541   0.133  0.00  0.00    -0.346 N 
ATOM     10  HN  UNL d   1       3.452  -2.314   0.173  1.00  0.00     0.167 HD
ATOM     11  C   UNL d   1       3.209  -0.273   0.076  0.00  0.00     0.182 A 
ATOM     12  C   UNL d   1      -1.936  -1.651   0.046  0.00  0.00     0.040 C 
ATOM     13  C   UNL d   1      -2.694   1.285   0.035  0.00  0.00     0.047 C 
ATOM     14  C   UNL d   1      -3.355  -1.135  -0.255  0.00  0.00     0.005 C 
ATOM     15  C   UNL d   1      -3.656   0.177   0.476  0.00  0.00     0.005 C 
ENDROOT
BRANCH   6  16
ATOM     16  S   UNL d   1       0.919  -3.455   0.183  0.00  0.00    -0.102 SA
BRANCH  16  17
ATOM     17  C   UNL d   1       2.081  -4.110   1.419  0.00  0.00     0.184 C 
BRANCH  17  18
ATOM     18  C   UNL d   1       1.798  -3.602   2.825  0.00  0.00     0.241 C 
ATOM     19  O   UNL d   1       0.933  -2.783   3.133  0.00  0.00    -0.271 OA
ATOM     20  N   UNL d   1       2.646  -4.174   3.779  0.00  0.00    -0.293 N 
ATOM     21  H   UNL d   1       3.223  -4.978   3.538  0.00  0.00     0.183 HD
BRANCH  20  22
ATOM     22  N   UNL d   1       2.436  -3.887   5.147  0.00  0.00    -0.247 NA
ATOM     23  H   UNL d   1       1.543  -3.376   5.210  0.00  0.00     0.143 HD
ATOM     24  H   UNL d   1       3.131  -3.191   5.433  0.00  0.00     0.143 HD
ENDBRANCH  20  22
ENDBRANCH  17  18
ENDBRANCH  16  17
ENDBRANCH   6  16
TORSDOF 4
