REMARK  3 active torsions:
REMARK  status: ('A' for Active; 'I' for Inactive)
REMARK    1  A    between atoms: C_10  and  C_1 
REMARK       I    between atoms: C_4  and  N_9 
REMARK       I    between atoms: N_7  and  C_4 
REMARK    2  A    between atoms: C_6  and  N_7 
REMARK    3  A    between atoms: N_9  and  C_10 
ROOT
ATOM      1  C   UNL d   1      -0.205  -5.187   0.208  0.00  0.00     0.320 C 
ATOM      2  N   UNL d   1      -1.422  -5.778   0.468  0.00  0.00    -0.309 N 
ATOM      3  N   UNL d   1      -0.298  -3.817   0.131  0.00  0.00    -0.339 N 
ATOM      4  O   UNL d   1       0.861  -5.772   0.062  0.00  0.00    -0.247 OA
ATOM      5  H   UNL d   1      -2.189  -5.152   0.662  0.00  0.00     0.170 HD
ATOM      6  H   UNL d   1      -1.188  -3.354   0.209  0.00  0.00     0.164 HD
ENDROOT
BRANCH   3   7
ATOM      7  C   UNL d   1       0.885  -2.994  -0.014  0.00  0.00     0.164 C 
BRANCH   7   8
ATOM      8  C   UNL d   1       0.810  -2.162  -1.260  0.00  0.00    -0.022 A 
ATOM      9  C   UNL d   1       0.603  -2.680  -2.526  0.00  0.00     0.060 A 
ATOM     10  S   UNL d   1       0.686  -1.504  -3.753  0.00  0.00    -0.101 SA
ATOM     11  C   UNL d   1       1.036  -0.250  -2.631  0.00  0.00     0.015 A 
ATOM     12  C   UNL d   1       1.047  -0.728  -1.316  0.00  0.00    -0.011 A 
ATOM     13  C   UNL d   1       1.296   1.103  -2.934  0.00  0.00     0.019 A 
ATOM     14  C   UNL d   1       1.312   0.211  -0.283  0.00  0.00     0.013 A 
ATOM     15  C   UNL d   1       1.562   1.556  -0.579  0.00  0.00     0.001 A 
ATOM     16  C   UNL d   1       1.561   1.995  -1.894  0.00  0.00     0.001 A 
ENDBRANCH   7   8
ENDBRANCH   3   7
BRANCH   2  17
ATOM     17  C   UNL d   1      -1.708  -7.164   0.506  0.00  0.00     0.039 A 
ATOM     18  C   UNL d   1      -0.768  -8.163   0.237  0.00  0.00     0.053 A 
ATOM     19  C   UNL d   1      -1.149  -9.506   0.214  0.00  0.00     0.037 A 
ATOM     20 CL   UNL d   1       0.016 -10.719  -0.160  0.00  0.00    -0.084 Cl
ATOM     21  C   UNL d   1      -2.464  -9.881   0.468  0.00  0.00     0.048 A 
ATOM     22  C   UNL d   1      -3.395  -8.893   0.768  0.00  0.00     0.037 A 
ATOM     23  C   UNL d   1      -3.026  -7.545   0.794  0.00  0.00     0.053 A 
ATOM     24 CL   UNL d   1      -5.026  -9.335   1.095  0.00  0.00    -0.084 Cl
ENDBRANCH   2  17
TORSDOF 3
