REMARK  1 active torsions:
REMARK  status: ('A' for Active; 'I' for Inactive)
REMARK    1  A    between atoms: C_6  and  C_1 
ROOT
ATOM      1  C   UNL d   1      -0.360   1.077  -0.013  0.00  0.00     0.134 A 
ATOM      2  C   UNL d   1       1.115  -0.604   0.009  0.00  0.00     0.067 A 
ATOM      3  N   UNL d   1      -1.093  -0.054  -0.068  0.00  0.00    -0.296 N 
ATOM      4  HN  UNL d   1      -2.108  -0.140  -0.111  1.00  0.00     0.187 HD
ATOM      5  C   UNL d   1       1.028   0.771   0.035  0.00  0.00     0.068 A 
ATOM      6  N   UNL d   1      -0.180  -1.041  -0.053  0.00  0.00    -0.299 N 
ATOM      7  C   UNL d   1       2.262  -1.465   0.030  0.00  0.00     0.033 A 
ATOM      8  S   UNL d   1       2.126  -3.175  -0.038  0.00  0.00    -0.100 SA
ATOM      9  C   UNL d   1       3.587  -1.077   0.101  0.00  0.00     0.021 A 
ATOM     10  C   UNL d   1       3.821  -3.384   0.001  0.00  0.00     0.050 A 
ATOM     11  C   UNL d   1       4.487  -2.182   0.079  0.00  0.00     0.008 A 
ATOM     12  H   UNL d   1      -0.503  -2.002  -0.091  0.00  0.00     0.187 HD
ENDROOT
BRANCH   1  13
ATOM     13  C   UNL d   1      -0.954   2.460  -0.007  0.00  0.00     0.434 C 
ATOM     14  F   UNL d   1      -2.312   2.480  -0.038  0.00  0.00    -0.165 F 
ATOM     15  F   UNL d   1      -0.578   3.157   1.101  0.00  0.00    -0.165 F 
ATOM     16  F   UNL d   1      -0.527   3.189  -1.076  0.00  0.00    -0.165 F 
ENDBRANCH   1  13
TORSDOF 1
