REMARK  6 active torsions:
REMARK  status: ('A' for Active; 'I' for Inactive)
REMARK    1  A    between atoms: N_2  and  C_1 
REMARK    2  A    between atoms: N_8  and  C_1 
REMARK       I    between atoms: C_7  and  N_2 
REMARK    3  A    between atoms: C_11  and  C_7 
REMARK    4  A    between atoms: C_22  and  N_8 
REMARK    5  A    between atoms: C_9  and  C_10 
REMARK    6  A    between atoms: C_24  and  C_22 
ROOT
ATOM      1  C   UNL d   1       2.088   0.015  -0.224  0.00  0.00     0.362 A 
ATOM      2  C   UNL d   1       1.160  -1.214  -0.085  0.00  0.00     0.228 A 
ATOM      3  C   UNL d   1       1.127   1.203   0.020  0.00  0.00     0.228 A 
ATOM      4  C   UNL d   1      -0.221   0.662   0.215  0.00  0.00     0.029 A 
ATOM      5  C   UNL d   1      -0.210  -0.726   0.119  0.00  0.00     0.029 A 
ATOM      6  O   UNL d   1       1.376   2.398   0.018  0.00  0.00    -0.287 OA
ATOM      7  O   UNL d   1       1.471  -2.393  -0.160  0.00  0.00    -0.287 OA
ATOM      8  C   UNL d   1      -1.399   1.370   0.389  0.00  0.00     0.016 A 
ATOM      9  C   UNL d   1      -1.382  -1.460   0.154  0.00  0.00     0.016 A 
ATOM     10  C   UNL d   1      -2.585  -0.758   0.294  0.00  0.00     0.001 A 
ATOM     11  C   UNL d   1      -2.592   0.644   0.423  0.00  0.00     0.001 A 
ENDROOT
BRANCH   1  12
ATOM     12  N   UNL d   1       2.797   0.000  -1.478  0.00  0.00    -0.309 N 
ATOM     13  C   UNL d   1       2.134   0.059  -2.678  0.00  0.00     0.254 C 
ATOM     14  O   UNL d   1       0.912   0.070  -2.774  0.00  0.00    -0.268 OA
ATOM     15  H   UNL d   1       3.723  -0.398  -1.479  0.00  0.00     0.166 HD
BRANCH  13  16
ATOM     16  C   UNL d   1       2.995   0.129  -3.888  0.00  0.00     0.032 A 
ATOM     17  C   UNL d   1       2.528  -0.395  -5.096  0.00  0.00     0.018 A 
ATOM     18  C   UNL d   1       3.261  -0.205  -6.271  0.00  0.00     0.017 A 
ATOM     19  C   UNL d   1       4.460   0.526  -6.254  0.00  0.00     0.048 A 
ATOM     20  C   UNL d   1       4.944   1.009  -5.027  0.00  0.00     0.017 A 
ATOM     21  C   UNL d   1       4.217   0.815  -3.851  0.00  0.00     0.018 A 
BRANCH  19  22
ATOM     22  C   UNL d   1       5.200   0.856  -7.530  0.00  0.00     0.417 C 
ATOM     23  F   UNL d   1       4.616   0.346  -8.649  0.00  0.00    -0.166 F 
ATOM     24  F   UNL d   1       5.289   2.200  -7.736  0.00  0.00    -0.166 F 
ATOM     25  F   UNL d   1       6.480   0.394  -7.528  0.00  0.00    -0.166 F 
ENDBRANCH  19  22
ENDBRANCH  13  16
ENDBRANCH   1  12
BRANCH   1  26
ATOM     26  N   UNL d   1       3.121  -0.051   0.824  0.00  0.00     0.133 N 
ATOM     27  H   UNL d   1       3.619  -0.935   0.740  0.00  0.00     0.320 HD
BRANCH  26  28
ATOM     28  C   UNL d   1       4.061   1.075   0.812  0.00  0.00     0.312 C 
BRANCH  28  29
ATOM     29  C   UNL d   1       5.175   0.865   1.812  0.00  0.00    -0.030 A 
ATOM     30  C   UNL d   1       6.357   0.202   1.442  0.00  0.00     0.012 A 
ATOM     31  C   UNL d   1       7.381   0.019   2.373  0.00  0.00     0.043 A 
ATOM     32  C   UNL d   1       7.222   0.492   3.670  0.00  0.00     0.116 A 
ATOM     33  C   UNL d   1       6.059   1.147   4.056  0.00  0.00     0.043 A 
ATOM     34  F   UNL d   1       8.206   0.315   4.561  0.00  0.00    -0.206 F 
ATOM     35  C   UNL d   1       5.033   1.329   3.128  0.00  0.00     0.012 A 
ENDBRANCH  28  29
ENDBRANCH  26  28
ENDBRANCH   1  26
TORSDOF 6
