REMARK  3 active torsions:
REMARK  status: ('A' for Active; 'I' for Inactive)
REMARK    1  A    between atoms: N_4  and  C_2 
REMARK    2  A    between atoms: C_12  and  C_16 
REMARK    3  A    between atoms: O_20  and  C_12 
ROOT
ATOM      1  C   UNL d   1      -0.025  -0.794  -0.905  0.00  0.00     0.043 A 
ATOM      2  C   UNL d   1      -0.908  -1.524  -0.064  0.00  0.00     0.097 A 
ATOM      3  C   UNL d   1      -0.175   0.587  -0.870  0.00  0.00     0.088 A 
ATOM      4  S   UNL d   1       0.905   1.412  -1.893  0.00  0.00    -0.083 SA
ATOM      5  C   UNL d   1       1.063  -1.161  -1.805  0.00  0.00    -0.039 A 
ATOM      6  N   UNL d   1      -1.784  -0.827   0.705  0.00  0.00    -0.342 N 
ATOM      7  HN  UNL d   1      -2.418  -1.318   1.335  1.00  0.00     0.167 HD
ATOM      8  C   UNL d   1       1.623  -0.045  -2.399  0.00  0.00     0.059 A 
ATOM      9  N   UNL d   1      -1.048   1.292  -0.132  0.00  0.00    -0.346 N 
ATOM     10  HN  UNL d   1      -1.120   2.309  -0.153  1.00  0.00     0.167 HD
ATOM     11  C   UNL d   1      -1.809   0.509   0.629  0.00  0.00     0.182 A 
ATOM     12  C   UNL d   1       1.560  -2.540  -2.092  0.00  0.00     0.050 C 
ENDROOT
BRANCH   2  13
ATOM     13  N   UNL d   1      -0.868  -2.927   0.048  0.00  0.00    -0.269 NA
ATOM     14  C   UNL d   1      -1.309  -3.399   1.365  0.00  0.00     0.098 C 
ATOM     15  C   UNL d   1      -0.933  -4.876   1.484  0.00  0.00     0.030 C 
ATOM     16  C   UNL d   1      -1.533  -5.714   0.345  0.00  0.00     0.086 C 
ATOM     17  C   UNL d   1      -1.266  -5.070  -1.027  0.00  0.00     0.030 C 
ATOM     18  C   UNL d   1      -1.601  -3.573  -1.051  0.00  0.00     0.098 C 
BRANCH  16  19
ATOM     19  C   UNL d   1      -3.018  -5.953   0.555  0.00  0.00     0.143 C 
ATOM     20  O   UNL d   1      -3.901  -5.561  -0.192  0.00  0.00    -0.650 OA
BRANCH  19  21
ATOM     21  O   UNL d   1      -3.290  -6.698   1.650  0.00  0.00    -0.776 OA
ATOM     22  H   UNL d   1      -2.505  -7.000   2.143  0.00  0.00     0.167 HD
ENDBRANCH  19  21
ENDBRANCH  16  19
ENDBRANCH   2  13
TORSDOF 3
