REMARK  5 active torsions:
REMARK  status: ('A' for Active; 'I' for Inactive)
REMARK    1  A    between atoms: C_8  and  N_3 
REMARK    2  A    between atoms: C_12  and  C_6 
REMARK    3  A    between atoms: C_9  and  C_8 
REMARK       I    between atoms: N_13  and  C_9 
REMARK       I    between atoms: C_10  and  N_11 
REMARK    4  A    between atoms: C_14  and  C_10 
REMARK    5  A    between atoms: N_11  and  N_13 
ROOT
ATOM      1  N   UNL d   1       0.665   0.778   1.037  0.00  0.00    -0.268 N 
ATOM      2  HN  UNL d   1       1.400   1.237   1.575  1.00  0.00     0.190 HD
ATOM      3  N   UNL d   1       0.726  -0.321   0.263  0.00  0.00    -0.207 N 
ATOM      4  N   UNL d   1      -1.289   0.271   0.024  0.00  0.00    -0.266 N 
ATOM      5  HN  UNL d   1      -2.271   0.324  -0.245  1.00  0.00     0.186 HD
ATOM      6  C   UNL d   1      -0.633   1.105   0.904  0.00  0.00     0.144 A 
ATOM      7  N   UNL d   1      -0.399  -0.615  -0.409  0.00  0.00    -0.002 NA
ENDROOT
BRANCH   3   8
ATOM      8  C   UNL d   1       1.984  -0.981   0.017  0.00  0.00     0.271 C 
BRANCH   8   9
ATOM      9  C   UNL d   1       2.001  -2.485   0.094  0.00  0.00     0.257 C 
ATOM     10  N   UNL d   1       0.831  -3.202   0.074  0.00  0.00    -0.266 N 
ATOM     11  H   UNL d   1      -0.107  -2.804  -0.044  0.00  0.00     0.190 HD
ATOM     12  O   UNL d   1       3.091  -3.083   0.132  0.00  0.00    -0.270 OA
BRANCH  10  13
ATOM     13  N   UNL d   1       0.933  -4.608   0.083  0.00  0.00    -0.267 N 
ATOM     14  C   UNL d   1      -0.162  -5.367   0.437  0.00  0.00     0.243 C 
ATOM     15  O   UNL d   1      -1.246  -4.845   0.706  0.00  0.00    -0.271 OA
ATOM     16  H   UNL d   1       1.882  -4.981   0.057  0.00  0.00     0.190 HD
BRANCH  14  17
ATOM     17  C   UNL d   1       0.078  -6.892   0.516  0.00  0.00     0.032 C 
ATOM     18  C   UNL d   1       0.852  -7.234   1.797  0.00  0.00     0.025 C 
ATOM     19  C   UNL d   1      -1.284  -7.607   0.547  0.00  0.00     0.025 C 
ATOM     20  C   UNL d   1       0.862  -7.402  -0.705  0.00  0.00     0.025 C 
ENDBRANCH  14  17
ENDBRANCH  10  13
ENDBRANCH   8   9
ENDBRANCH   3   8
BRANCH   6  21
ATOM     21  C   UNL d   1      -1.289   2.158   1.671  0.00  0.00     0.010 A 
ATOM     22  C   UNL d   1      -2.686   2.253   1.718  0.00  0.00     0.016 A 
ATOM     23  C   UNL d   1      -3.308   3.182   2.561  0.00  0.00     0.007 A 
ATOM     24  C   UNL d   1      -2.546   4.040   3.363  0.00  0.00    -0.062 A 
ATOM     25  C   UNL d   1      -1.152   3.984   3.281  0.00  0.00     0.007 A 
ATOM     26  C   UNL d   1      -3.224   4.984   4.313  0.00  0.00     0.048 C 
ATOM     27  C   UNL d   1      -0.531   3.053   2.442  0.00  0.00     0.016 A 
ENDBRANCH   6  21
TORSDOF 5
