REMARK  2 active torsions:
REMARK  status: ('A' for Active; 'I' for Inactive)
REMARK    1  A    between atoms: C_7  and  C_2 
REMARK    2  A    between atoms: N_8  and  C_6 
ROOT
ATOM      1  C   UNL d   1      -0.135  -1.096   0.414  0.00  0.00     0.081 A 
ATOM      2  C   UNL d   1      -1.396  -0.761  -0.043  0.00  0.00     0.062 A 
ATOM      3  N   UNL d   1      -1.250   0.515  -0.527  0.00  0.00    -0.298 N 
ATOM      4  N   UNL d   1      -0.004   1.006  -0.425  0.00  0.00    -0.285 N 
ATOM      5  HN  UNL d   1       0.341   1.916  -0.729  1.00  0.00     0.188 HD
ATOM      6  C   UNL d   1       0.671   0.030   0.166  0.00  0.00     0.115 A 
ATOM      7  H   UNL d   1      -1.967   1.114  -0.919  0.00  0.00     0.187 HD
ENDROOT
BRANCH   2   8
ATOM      8  C   UNL d   1      -2.668  -1.479  -0.009  0.00  0.00    -0.008 A 
ATOM      9  C   UNL d   1      -2.942  -2.371   1.036  0.00  0.00     0.014 A 
ATOM     10  C   UNL d   1      -4.167  -3.040   1.104  0.00  0.00     0.001 A 
ATOM     11  C   UNL d   1      -5.130  -2.829   0.121  0.00  0.00     0.000 A 
ATOM     12  C   UNL d   1      -4.867  -1.957  -0.933  0.00  0.00     0.001 A 
ATOM     13  C   UNL d   1      -3.642  -1.286  -0.999  0.00  0.00     0.014 A 
ENDBRANCH   2   8
BRANCH   6  14
ATOM     14  N   UNL d   1       1.964   0.114   0.488  0.00  0.00    -0.384 N 
ATOM     15  H   UNL d   1       2.484   0.896   0.106  0.00  0.00     0.157 HD
ATOM     16  H   UNL d   1       2.519  -0.711   0.676  0.00  0.00     0.157 HD
ENDBRANCH   6  14
TORSDOF 2
