REMARK  4 active torsions:
REMARK  status: ('A' for Active; 'I' for Inactive)
REMARK    1  A    between atoms: N_5  and  C_1 
REMARK    2  A    between atoms: C_10  and  C_4 
REMARK       I    between atoms: C_8  and  N_5 
REMARK    3  A    between atoms: C_11  and  C_8 
REMARK    4  A    between atoms: N_9  and  C_11 
ROOT
ATOM      1  C   UNL d   1      -1.447  -1.721   0.018  0.00  0.00     0.151 A 
ATOM      2  N   UNL d   1      -2.471  -2.487  -0.249  0.00  0.00    -0.335 N 
ATOM      3  HN  UNL d   1      -2.415  -3.475  -0.499  1.00  0.00     0.168 HD
ATOM      4  C   UNL d   1      -3.654  -1.752  -0.139  0.00  0.00     0.051 A 
ATOM      5  S   UNL d   1      -1.791  -0.085   0.363  0.00  0.00    -0.063 SA
ATOM      6  C   UNL d   1      -3.462  -0.421   0.193  0.00  0.00     0.083 A 
ENDROOT
BRANCH   1   7
ATOM      7  N   UNL d   1      -0.111  -1.995   0.080  0.00  0.00    -0.306 N 
ATOM      8  C   UNL d   1       0.432  -3.249  -0.004  0.00  0.00     0.241 C 
ATOM      9  O   UNL d   1      -0.204  -4.288  -0.167  0.00  0.00    -0.271 OA
ATOM     10  H   UNL d   1       0.482  -1.220   0.326  0.00  0.00     0.171 HD
BRANCH   8  11
ATOM     11  C   UNL d   1       1.972  -3.305   0.051  0.00  0.00     0.220 C 
BRANCH  11  12
ATOM     12  N   UNL d   1       2.698  -2.227   0.753  0.00  0.00    -0.403 N 
ATOM     13  C   UNL d   1       2.337  -2.023   2.158  0.00  0.00     0.127 C 
ATOM     14  C   UNL d   1       3.359  -1.211   2.968  0.00  0.00     0.093 C 
ATOM     15  S   UNL d   1       3.642   0.433   2.246  0.00  0.00    -0.166 SA
ATOM     16  C   UNL d   1       4.110  -0.139   0.587  0.00  0.00     0.093 C 
ATOM     17  C   UNL d   1       3.031  -1.039  -0.036  0.00  0.00     0.127 C 
ENDBRANCH  11  12
ENDBRANCH   8  11
ENDBRANCH   1   7
BRANCH   4  18
ATOM     18  C   UNL d   1      -4.968  -2.376  -0.319  0.00  0.00    -0.009 A 
ATOM     19  C   UNL d   1      -5.059  -3.666  -0.868  0.00  0.00     0.015 A 
ATOM     20  C   UNL d   1      -6.292  -4.322  -0.959  0.00  0.00     0.024 A 
ATOM     21  C   UNL d   1      -7.449  -3.694  -0.507  0.00  0.00     0.034 A 
ATOM     22  C   UNL d   1      -7.389  -2.402  -0.000  0.00  0.00     0.024 A 
ATOM     23 CL   UNL d   1      -8.954  -4.526  -0.549  0.00  0.00    -0.084 Cl
ATOM     24  C   UNL d   1      -6.155  -1.744   0.089  0.00  0.00     0.015 A 
ENDBRANCH   4  18
TORSDOF 4
