REMARK  6 active torsions:
REMARK  status: ('A' for Active; 'I' for Inactive)
REMARK    1  A    between atoms: C_4  and  C_1 
REMARK    2  A    between atoms: C_2  and  C_3 
REMARK    3  A    between atoms: C_6  and  C_7 
REMARK    4  A    between atoms: N_20  and  C_6 
REMARK    5  A    between atoms: C_8  and  C_9 
REMARK    6  A    between atoms: O_21  and  N_10 
ROOT
ATOM      1  C   UNL d   1       8.274  -7.294   5.294  0.00  0.00     0.049 A 
ATOM      2  C   UNL d   1       8.107  -4.884   4.947  0.00  0.00     0.049 A 
ATOM      3  C   UNL d   1       8.812  -6.003   5.415  0.00  0.00     0.032 A 
ATOM      4  C   UNL d   1       6.305  -6.350   4.192  0.00  0.00    -0.035 A 
ATOM      5  C   UNL d   1       7.015  -7.451   4.690  0.00  0.00     0.027 A 
ATOM      6  C   UNL d   1       6.847  -5.069   4.354  0.00  0.00     0.027 A 
ENDROOT
BRANCH   4   7
ATOM      7  C   UNL d   1       5.026  -6.589   3.509  0.00  0.00     0.014 C 
ATOM      8  C   UNL d   1       4.603  -5.861   2.462  0.00  0.00     0.044 C 
BRANCH   8   9
ATOM      9  C   UNL d   1       3.362  -6.184   1.700  0.00  0.00     0.098 C 
ATOM     10  N   UNL d   1       3.046  -5.354   0.741  0.00  0.00    -0.258 N 
ATOM     11  HN  UNL d   1       3.563  -4.502   0.521  1.00  0.00     0.195 HD
BRANCH  10  12
ATOM     12  O   UNL d   1       1.901  -5.790   0.052  0.00  0.00    -0.289 OA
ATOM     13  H   UNL d   1       1.757  -5.061  -0.581  0.00  0.00     0.244 HD
ENDBRANCH  10  12
BRANCH   9  14
ATOM     14  N   UNL d   1       2.614  -7.305   1.955  0.00  0.00    -0.287 NA
ATOM     15  H   UNL d   1       3.146  -8.140   2.164  0.00  0.00     0.125 HD
ATOM     16  H   UNL d   1       1.964  -7.451   1.186  0.00  0.00     0.125 HD
ENDBRANCH   9  14
ENDBRANCH   8   9
ENDBRANCH   4   7
BRANCH   2  17
ATOM     17  C   UNL d   1       8.688  -3.493   5.040  0.00  0.00     0.417 C 
ATOM     18  F   UNL d   1       9.946  -3.465   5.561  0.00  0.00    -0.166 F 
ATOM     19  F   UNL d   1       7.940  -2.665   5.819  0.00  0.00    -0.166 F 
ATOM     20  F   UNL d   1       8.776  -2.888   3.823  0.00  0.00    -0.166 F 
ENDBRANCH   2  17
BRANCH   1  21
ATOM     21  C   UNL d   1       9.034  -8.509   5.770  0.00  0.00     0.417 C 
ATOM     22  F   UNL d   1      10.264  -8.217   6.276  0.00  0.00    -0.166 F 
ATOM     23  F   UNL d   1       8.375  -9.184   6.751  0.00  0.00    -0.166 F 
ATOM     24  F   UNL d   1       9.245  -9.410   4.772  0.00  0.00    -0.166 F 
ENDBRANCH   1  21
TORSDOF 6
