REMARK  7 active torsions:
REMARK  status: ('A' for Active; 'I' for Inactive)
REMARK    1  A    between atoms: N_2  and  C_1 
REMARK    2  A    between atoms: C_3  and  C_1 
REMARK    3  A    between atoms: C_4  and  C_1 
REMARK    4  A    between atoms: N_6  and  C_1 
REMARK       I    between atoms: C_5  and  N_2 
REMARK    5  A    between atoms: C_7  and  C_5 
REMARK    6  A    between atoms: C_18  and  N_6 
REMARK    7  A    between atoms: C_19  and  C_18 
ROOT
ATOM      1  C   UNL d   1       0.895  -0.160   0.246  0.00  0.00     0.426 C 
ENDROOT
BRANCH   1   2
ATOM      2  N   UNL d   1       0.744  -1.050  -0.943  0.00  0.00    -0.307 N 
ATOM      3  C   UNL d   1       0.709  -2.424  -0.889  0.00  0.00     0.254 C 
ATOM      4  O   UNL d   1       0.980  -3.055   0.121  0.00  0.00    -0.268 OA
ATOM      5  H   UNL d   1       0.355  -0.611  -1.772  0.00  0.00     0.166 HD
BRANCH   3   6
ATOM      6  C   UNL d   1       0.307  -3.100  -2.159  0.00  0.00     0.037 A 
ATOM      7  C   UNL d   1      -0.565  -4.206  -2.164  0.00  0.00    -0.046 A 
ATOM      8  C   UNL d   1      -1.162  -4.799  -0.916  0.00  0.00     0.049 C 
ATOM      9  C   UNL d   1      -0.875  -4.814  -3.393  0.00  0.00     0.007 A 
ATOM     10  C   UNL d   1      -0.365  -4.316  -4.593  0.00  0.00     0.001 A 
ATOM     11  C   UNL d   1       0.478  -3.210  -4.584  0.00  0.00     0.001 A 
ATOM     12  C   UNL d   1       0.822  -2.610  -3.373  0.00  0.00     0.017 A 
ENDBRANCH   3   6
ENDBRANCH   1   2
BRANCH   1  13
ATOM     13  C   UNL d   1      -0.228  -0.359   1.320  0.00  0.00     0.452 C 
ATOM     14  F   UNL d   1      -1.457  -0.392   0.744  0.00  0.00    -0.166 F 
ATOM     15  F   UNL d   1      -0.097  -1.514   2.012  0.00  0.00    -0.166 F 
ATOM     16  F   UNL d   1      -0.238   0.639   2.235  0.00  0.00    -0.166 F 
ENDBRANCH   1  13
BRANCH   1  17
ATOM     17  C   UNL d   1       0.670   1.332  -0.183  0.00  0.00     0.452 C 
ATOM     18  F   UNL d   1       1.053   1.492  -1.485  0.00  0.00    -0.166 F 
ATOM     19  F   UNL d   1      -0.618   1.733  -0.132  0.00  0.00    -0.166 F 
ATOM     20  F   UNL d   1       1.404   2.210   0.538  0.00  0.00    -0.166 F 
ENDBRANCH   1  17
BRANCH   1  21
ATOM     21  N   UNL d   1       2.236  -0.457   0.827  0.00  0.00     0.137 N 
ATOM     22  H   UNL d   1       2.269  -1.462   1.046  0.00  0.00     0.320 HD
BRANCH  21  23
ATOM     23  C   UNL d   1       3.404  -0.118   0.021  0.00  0.00     0.330 C 
BRANCH  23  24
ATOM     24  C   UNL d   1       4.666  -0.237   0.865  0.00  0.00     0.037 A 
ATOM     25  N   UNL d   1       5.301  -1.438   0.870  0.00  0.00    -0.368 N 
ATOM     26  C   UNL d   1       6.361  -1.575   1.698  0.00  0.00     0.088 A 
ATOM     27  HN  UNL d   1       4.990  -2.206   0.274  1.00  0.00     0.165 HD
ATOM     28  C   UNL d   1       6.834  -0.568   2.522  0.00  0.00     0.017 A 
ATOM     29  C   UNL d   1       6.178   0.658   2.504  0.00  0.00     0.003 A 
ATOM     30  C   UNL d   1       5.076   0.824   1.669  0.00  0.00     0.027 A 
ENDBRANCH  23  24
ENDBRANCH  21  23
ENDBRANCH   1  21
TORSDOF 7
