REMARK  3 active torsions:
REMARK  status: ('A' for Active; 'I' for Inactive)
REMARK    1  A    between atoms: C_6  and  C_2 
REMARK    2  A    between atoms: O_15  and  C_10 
REMARK    3  A    between atoms: O_16  and  C_12 
ROOT
ATOM      1  C   UNL d   1      -0.460  -0.061  -0.023  0.00  0.00     0.058 A 
ATOM      2  C   UNL d   1       0.196   1.191  -0.070  0.00  0.00    -0.005 A 
ATOM      3  N   UNL d   1      -3.039  -0.348   0.076  0.00  0.00    -0.191 NA
ATOM      4  C   UNL d   1      -1.886  -0.199   0.043  0.00  0.00     0.100 C 
ATOM      5  C   UNL d   1       1.610   1.155  -0.083  0.00  0.00     0.016 A 
ATOM      6  C   UNL d   1       0.279  -1.262  -0.013  0.00  0.00     0.060 A 
ATOM      7  C   UNL d   1       1.671  -1.259  -0.009  0.00  0.00     0.069 A 
ATOM      8  C   UNL d   1       2.337  -0.042  -0.037  0.00  0.00     0.037 A 
ENDROOT
BRANCH   2   9
ATOM      9  C   UNL d   1      -0.491   2.517  -0.084  0.00  0.00    -0.024 A 
ATOM     10  C   UNL d   1       0.062   3.621   0.597  0.00  0.00     0.015 A 
ATOM     11  C   UNL d   1      -0.541   4.887   0.586  0.00  0.00     0.037 A 
ATOM     12  C   UNL d   1      -1.745   5.083  -0.081  0.00  0.00     0.068 A 
ATOM     13  C   UNL d   1      -2.316   4.009  -0.756  0.00  0.00     0.037 A 
ATOM     14  C   UNL d   1      -1.688   2.754  -0.779  0.00  0.00     0.015 A 
BRANCH  12  15
ATOM     15  O   UNL d   1      -2.450   6.252  -0.143  0.00  0.00    -0.356 OA
ATOM     16  C   UNL d   1      -1.872   7.382   0.499  0.00  0.00     0.210 C 
ENDBRANCH  12  15
ENDBRANCH   2   9
BRANCH   7  17
ATOM     17  O   UNL d   1       2.251  -2.495   0.024  0.00  0.00    -0.356 OA
ATOM     18  C   UNL d   1       3.672  -2.535   0.093  0.00  0.00     0.210 C 
ENDBRANCH   7  17
TORSDOF 3
