REMARK  5 active torsions:
REMARK  status: ('A' for Active; 'I' for Inactive)
REMARK    1  A    between atoms: C_7  and  C_1 
REMARK    2  A    between atoms: N_8  and  C_4 
REMARK    3  A    between atoms: S_10  and  C_5 
REMARK    4  A    between atoms: O_11  and  C_7 
REMARK    5  A    between atoms: C_13  and  O_11 
ROOT
ATOM      1  C   UNL d   1      -0.113   1.115  -0.042  0.00  0.00     0.126 A 
ATOM      2  N   UNL d   1      -0.638  -1.163  -0.074  0.00  0.00    -0.330 N 
ATOM      3  HN  UNL d   1      -1.234  -1.991  -0.086  1.00  0.00     0.168 HD
ATOM      4  C   UNL d   1      -1.080   0.131  -0.065  0.00  0.00     0.123 A 
ATOM      5  C   UNL d   1       0.675  -1.171  -0.065  0.00  0.00     0.114 A 
ATOM      6  S   UNL d   1       1.434   0.362  -0.072  0.00  0.00    -0.055 SA
ENDROOT
BRANCH   1   7
ATOM      7  C   UNL d   1      -0.207   2.554   0.057  0.00  0.00     0.304 C 
ATOM      8  O   UNL d   1       0.734   3.335   0.142  0.00  0.00    -0.259 OA
BRANCH   7   9
ATOM      9  O   UNL d   1      -1.518   2.930   0.126  0.00  0.00    -0.317 OA
BRANCH   9  10
ATOM     10  C   UNL d   1      -1.763   4.239   0.654  0.00  0.00     0.174 C 
ATOM     11  C   UNL d   1      -1.849   4.127   2.166  0.00  0.00     0.034 C 
ENDBRANCH   9  10
ENDBRANCH   7   9
ENDBRANCH   1   7
BRANCH   4  12
ATOM     12  N   UNL d   1      -2.405   0.305  -0.046  0.00  0.00    -0.384 N 
ATOM     13  H   UNL d   1      -3.029  -0.494  -0.040  0.00  0.00     0.157 HD
ATOM     14  H   UNL d   1      -2.845   1.220  -0.028  0.00  0.00     0.157 HD
ENDBRANCH   4  12
BRANCH   5  15
ATOM     15  S   UNL d   1       1.593  -2.661  -0.035  0.00  0.00    -0.109 SA
ATOM     16  C   UNL d   1       0.255  -3.873  -0.001  0.00  0.00     0.097 C 
ENDBRANCH   5  15
TORSDOF 5
