REMARK  5 active torsions:
REMARK  status: ('A' for Active; 'I' for Inactive)
REMARK    1  A    between atoms: N_3  and  N_1 
REMARK    2  A    between atoms: C_7  and  C_5 
REMARK    3  A    between atoms: C_8  and  C_6 
REMARK    4  A    between atoms: O_19  and  C_13 
REMARK    5  A    between atoms: O_20  and  C_14 
ROOT
ATOM      1  N   UNL d   1       1.021  -1.926   1.432  0.00  0.00    -0.304 N 
ATOM      2  HN  UNL d   1       0.497  -2.568   2.027  1.00  0.00     0.186 HD
ATOM      3  C   UNL d   1       2.315  -1.997   1.303  0.00  0.00     0.032 C 
ATOM      4  C   UNL d   1       3.143  -1.083   0.423  0.00  0.00     0.070 C 
ENDROOT
BRANCH   1   5
ATOM      5  N   UNL d   1       0.404  -0.922   0.708  0.00  0.00    -0.304 N 
ATOM      6  C   UNL d   1      -0.898  -0.942   0.771  0.00  0.00     0.032 C 
ATOM      7  C   UNL d   1      -1.701  -1.976   1.543  0.00  0.00     0.070 C 
ATOM      8  HN  UNL d   1       0.923  -0.226   0.172  1.00  0.00     0.186 HD
BRANCH   6   9
ATOM      9  C   UNL d   1      -1.667   0.132   0.070  0.00  0.00    -0.012 A 
ATOM     10  C   UNL d   1      -2.975  -0.085  -0.383  0.00  0.00     0.016 A 
ATOM     11  C   UNL d   1      -3.682   0.947  -1.005  0.00  0.00     0.037 A 
ATOM     12  C   UNL d   1      -3.088   2.192  -1.167  0.00  0.00     0.065 A 
ATOM     13  C   UNL d   1      -1.787   2.421  -0.729  0.00  0.00     0.037 A 
ATOM     14  C   UNL d   1      -1.074   1.387  -0.118  0.00  0.00     0.016 A 
BRANCH  12  15
ATOM     15  O   UNL d   1      -3.824   3.173  -1.761  0.00  0.00    -0.361 OA
ATOM     16  H   UNL d   1      -3.303   3.991  -1.774  0.00  0.00     0.217 HD
ENDBRANCH  12  15
ENDBRANCH   6   9
ENDBRANCH   1   5
BRANCH   3  17
ATOM     17  C   UNL d   1       3.041  -3.032   2.105  0.00  0.00    -0.012 A 
ATOM     18  C   UNL d   1       4.263  -3.569   1.685  0.00  0.00     0.016 A 
ATOM     19  C   UNL d   1       4.913  -4.525   2.471  0.00  0.00     0.037 A 
ATOM     20  C   UNL d   1       4.348  -4.934   3.674  0.00  0.00     0.065 A 
ATOM     21  C   UNL d   1       3.132  -4.415   4.103  0.00  0.00     0.037 A 
ATOM     22  C   UNL d   1       2.477  -3.467   3.314  0.00  0.00     0.016 A 
BRANCH  20  23
ATOM     23  O   UNL d   1       5.027  -5.857   4.413  0.00  0.00    -0.361 OA
ATOM     24  H   UNL d   1       4.530  -6.027   5.230  0.00  0.00     0.217 HD
ENDBRANCH  20  23
ENDBRANCH   3  17
TORSDOF 5
