REMARK  3 active torsions:
REMARK  status: ('A' for Active; 'I' for Inactive)
REMARK    1  A    between atoms: C_7  and  C_3 
REMARK    2  A    between atoms: C_6  and  C_7 
REMARK       I    between atoms: N_10  and  C_6 
REMARK    3  A    between atoms: C_8  and  N_10 
ROOT
ATOM      1  C   UNL d   1       2.077   2.635   0.006  0.00  0.00     0.229 C 
ATOM      2  N   UNL d   1       2.972   1.587  -0.024  0.00  0.00    -0.327 N 
ATOM      3  O   UNL d   1       0.854   2.505  -0.139  0.00  0.00    -0.273 OA
ATOM      4  H   UNL d   1       3.926   1.797   0.269  0.00  0.00     0.169 HD
ENDROOT
BRANCH   1   5
ATOM      5  C   UNL d   1       2.588   4.030   0.296  0.00  0.00     0.181 C 
BRANCH   5   6
ATOM      6  C   UNL d   1       4.046   4.264   0.335  0.00  0.00     0.112 A 
ATOM      7  N   UNL d   1       4.966   3.359   0.812  0.00  0.00    -0.333 N 
ATOM      8  C   UNL d   1       6.070   4.071   0.801  0.00  0.00     0.260 A 
ATOM      9  HN  UNL d   1       4.828   2.390   1.099  1.00  0.00     0.168 HD
ATOM     10  O   UNL d   1       5.908   5.335   0.337  0.00  0.00    -0.232 OA
ATOM     11  N   UNL d   1       4.556   5.466   0.028  0.00  0.00    -0.247 N 
ATOM     12  HN  UNL d   1       4.070   6.283  -0.343  1.00  0.00     0.196 HD
ENDBRANCH   5   6
ENDBRANCH   1   5
BRANCH   2  13
ATOM     13  C   UNL d   1       2.648   0.219  -0.220  0.00  0.00     0.037 A 
ATOM     14  C   UNL d   1       1.405  -0.223  -0.688  0.00  0.00     0.053 A 
ATOM     15  C   UNL d   1       1.122  -1.588  -0.777  0.00  0.00     0.037 A 
ATOM     16 CL   UNL d   1      -0.427  -2.104  -1.326  0.00  0.00    -0.084 Cl
ATOM     17  C   UNL d   1       2.073  -2.535  -0.419  0.00  0.00     0.048 A 
ATOM     18  C   UNL d   1       3.323  -2.101   0.006  0.00  0.00     0.037 A 
ATOM     19  C   UNL d   1       3.622  -0.735   0.096  0.00  0.00     0.053 A 
ATOM     20 CL   UNL d   1       4.513  -3.263   0.455  0.00  0.00    -0.084 Cl
ENDBRANCH   2  13
TORSDOF 3
