REMARK  2 active torsions:
REMARK  status: ('A' for Active; 'I' for Inactive)
REMARK    1  A    between atoms: C_11  and  C_6 
REMARK    2  A    between atoms: C_7  and  C_10 
ROOT
ATOM      1  N   UNL d   1      -1.684   1.501  -0.255  0.00  0.00    -0.305 N 
ATOM      2  HN  UNL d   1      -1.381   2.395  -0.641  1.00  0.00     0.186 HD
ATOM      3  C   UNL d   1      -0.948   0.482   0.066  0.00  0.00     0.043 C 
ATOM      4  N   UNL d   1      -2.945   1.108   0.039  0.00  0.00    -0.322 N 
ATOM      5  C   UNL d   1      -1.694  -0.691   0.646  0.00  0.00     0.067 C 
ATOM      6  C   UNL d   1      -3.123  -0.348   0.199  0.00  0.00     0.144 C 
ATOM      7  C   UNL d   1       0.508   0.412  -0.013  0.00  0.00    -0.005 A 
ATOM      8  C   UNL d   1      -1.079  -2.058   0.378  0.00  0.00     0.018 C 
ATOM      9  C   UNL d   1       1.074  -0.853  -0.201  0.00  0.00    -0.046 A 
ATOM     10  C   UNL d   1       0.180  -2.032  -0.494  0.00  0.00     0.040 C 
ATOM     11  C   UNL d   1      -4.099   1.913  -0.294  0.00  0.00     0.171 C 
ATOM     12  C   UNL d   1       1.294   1.552   0.157  0.00  0.00     0.014 A 
ATOM     13  C   UNL d   1       2.470  -0.966  -0.208  0.00  0.00     0.008 A 
ATOM     14  C   UNL d   1       2.682   1.423   0.164  0.00  0.00     0.001 A 
ATOM     15  C   UNL d   1       3.268   0.167  -0.013  0.00  0.00     0.001 A 
ENDROOT
BRANCH   6  16
ATOM     16  C   UNL d   1      -3.710  -1.029  -1.029  0.00  0.00    -0.033 A 
ATOM     17  C   UNL d   1      -3.090  -1.019  -2.287  0.00  0.00     0.010 A 
ATOM     18  C   UNL d   1      -3.761  -1.497  -3.420  0.00  0.00     0.017 A 
ATOM     19  C   UNL d   1      -5.074  -1.987  -3.326  0.00  0.00     0.047 A 
ATOM     20  C   UNL d   1      -5.670  -2.062  -2.062  0.00  0.00     0.017 A 
ATOM     21  C   UNL d   1      -4.996  -1.591  -0.931  0.00  0.00     0.010 A 
BRANCH  19  22
ATOM     22  C   UNL d   1      -5.843  -2.362  -4.570  0.00  0.00     0.417 C 
ATOM     23  F   UNL d   1      -7.128  -2.741  -4.320  0.00  0.00    -0.166 F 
ATOM     24  F   UNL d   1      -5.926  -1.335  -5.461  0.00  0.00    -0.166 F 
ATOM     25  F   UNL d   1      -5.276  -3.399  -5.250  0.00  0.00    -0.166 F 
ENDBRANCH  19  22
ENDBRANCH   6  16
TORSDOF 2
