REMARK  2 active torsions:
REMARK  status: ('A' for Active; 'I' for Inactive)
REMARK    1  A    between atoms: C_6  and  N_1 
REMARK    2  A    between atoms: C_5  and  C_2 
ROOT
ATOM      1  N   UNL d   1      -0.654  -1.188   0.175  0.00  0.00    -0.299 N 
ATOM      2  C   UNL d   1       0.752  -1.378  -0.158  0.00  0.00     0.190 C 
ATOM      3  S   UNL d   1       1.533   0.255  -0.080  0.00  0.00    -0.129 SA
ATOM      4  C   UNL d   1      -1.128   0.127   0.114  0.00  0.00     0.235 C 
ATOM      5  C   UNL d   1      -0.036   1.118  -0.225  0.00  0.00     0.179 C 
ATOM      6  O   UNL d   1      -2.292   0.490   0.243  0.00  0.00    -0.272 OA
ENDROOT
BRANCH   1   7
ATOM      7  C   UNL d   1      -1.530  -2.297   0.375  0.00  0.00     0.038 A 
ATOM      8  C   UNL d   1      -1.320  -3.520  -0.280  0.00  0.00     0.031 A 
ATOM      9  C   UNL d   1      -2.155  -4.616  -0.041  0.00  0.00     0.026 A 
ATOM     10  C   UNL d   1      -3.203  -4.504   0.867  0.00  0.00     0.034 A 
ATOM     11  C   UNL d   1      -3.430  -3.301   1.526  0.00  0.00     0.026 A 
ATOM     12 CL   UNL d   1      -4.218  -5.857   1.176  0.00  0.00    -0.084 Cl
ATOM     13  C   UNL d   1      -2.603  -2.201   1.272  0.00  0.00     0.031 A 
ENDBRANCH   1   7
BRANCH   2  14
ATOM     14  C   UNL d   1       1.479  -2.372   0.719  0.00  0.00    -0.010 A 
ATOM     15  C   UNL d   1       2.181  -3.428   0.140  0.00  0.00     0.097 A 
ATOM     16  N   UNL d   1       2.780  -4.422   0.834  0.00  0.00    -0.375 N 
ATOM     17  C   UNL d   1       2.697  -4.359   2.179  0.00  0.00     0.087 A 
ATOM     18  HN  UNL d   1       3.271  -5.182   0.363  1.00  0.00     0.164 HD
ATOM     19  C   UNL d   1       2.058  -3.338   2.861  0.00  0.00     0.018 A 
ATOM     20  C   UNL d   1       1.444  -2.331   2.120  0.00  0.00     0.013 A 
ENDBRANCH   2  14
TORSDOF 2
