REMARK  4 active torsions:
REMARK  status: ('A' for Active; 'I' for Inactive)
REMARK    1  A    between atoms: C_11  and  C_4 
REMARK       I    between atoms: C_10  and  N_7 
REMARK    2  A    between atoms: C_8  and  C_16 
REMARK    3  A    between atoms: O_19  and  C_10 
REMARK    4  A    between atoms: N_12  and  O_19 
ROOT
ATOM      1  N   UNL d   1      -0.390  -0.677   0.158  0.00  0.00    -0.304 N 
ATOM      2  HN  UNL d   1      -1.162  -1.301   0.391  1.00  0.00     0.171 HD
ATOM      3  C   UNL d   1       0.862  -0.977  -0.089  0.00  0.00     0.253 A 
ATOM      4  C   UNL d   1      -0.401   0.700   0.023  0.00  0.00     0.139 A 
ATOM      5  N   UNL d   1       0.787   1.219  -0.330  0.00  0.00    -0.240 N 
ATOM      6  HN  UNL d   1       1.019   2.196  -0.507  1.00  0.00     0.196 HD
ATOM      7  N   UNL d   1       1.409  -2.224  -0.069  0.00  0.00    -0.265 N 
ATOM      8  O   UNL d   1       1.625   0.111  -0.395  0.00  0.00    -0.199 OA
ATOM      9  C   UNL d   1       2.759  -2.422  -0.107  0.00  0.00     0.389 C 
ATOM     10  O   UNL d   1       3.627  -1.566  -0.235  0.00  0.00    -0.236 OA
ATOM     11  H   UNL d   1       0.810  -2.995   0.175  0.00  0.00     0.174 HD
ENDROOT
BRANCH   9  12
ATOM     12  O   UNL d   1       3.045  -3.758   0.048  0.00  0.00    -0.181 OA
BRANCH  12  13
ATOM     13  N   UNL d   1       3.857  -3.886   1.189  0.00  0.00    -0.267 N 
ATOM     14  C   UNL d   1       4.667  -4.886   1.071  0.00  0.00     0.129 C 
ATOM     15  HN  UNL d   1       3.811  -3.272   2.002  1.00  0.00     0.194 HD
BRANCH  14  16
ATOM     16  C   UNL d   1       5.582  -5.249   2.176  0.00  0.00     0.025 A 
ATOM     17  C   UNL d   1       5.192  -5.138   3.522  0.00  0.00     0.047 A 
ATOM     18 CL   UNL d   1       3.589  -4.723   4.030  0.00  0.00    -0.083 Cl
ATOM     19  C   UNL d   1       6.097  -5.438   4.547  0.00  0.00     0.025 A 
ATOM     20  C   UNL d   1       7.388  -5.867   4.247  0.00  0.00     0.003 A 
ATOM     21  C   UNL d   1       7.773  -6.008   2.916  0.00  0.00     0.025 A 
ATOM     22  C   UNL d   1       6.878  -5.704   1.882  0.00  0.00     0.047 A 
ATOM     23 CL   UNL d   1       7.460  -5.891   0.264  0.00  0.00    -0.083 Cl
ENDBRANCH  14  16
ENDBRANCH  12  13
ENDBRANCH   9  12
BRANCH   4  24
ATOM     24  C   UNL d   1      -1.596   1.509   0.248  0.00  0.00     0.010 A 
ATOM     25  C   UNL d   1      -2.756   0.934   0.790  0.00  0.00     0.022 A 
ATOM     26  C   UNL d   1      -3.909   1.704   1.008  0.00  0.00    -0.061 A 
ATOM     27  C   UNL d   1      -5.152   1.089   1.582  0.00  0.00     0.048 C 
ATOM     28  C   UNL d   1      -3.897   3.063   0.674  0.00  0.00     0.007 A 
ATOM     29  C   UNL d   1      -2.750   3.648   0.142  0.00  0.00     0.002 A 
ATOM     30  C   UNL d   1      -1.605   2.877  -0.065  0.00  0.00     0.015 A 
ENDBRANCH   4  24
TORSDOF 4
