REMARK  4 active torsions:
REMARK  status: ('A' for Active; 'I' for Inactive)
REMARK    1  A    between atoms: C_4  and  N_1 
REMARK    2  A    between atoms: C_2  and  C_7 
REMARK       I    between atoms: N_6  and  C_2 
REMARK       I    between atoms: C_3  and  N_5 
REMARK    3  A    between atoms: C_10  and  C_3 
REMARK    4  A    between atoms: N_5  and  N_6 
ROOT
ATOM      1  C   UNL d   1      -0.070  -0.896  -4.689  0.00  0.00     0.270 C 
ATOM      2  N   UNL d   1      -0.611  -0.808  -5.958  0.00  0.00    -0.263 N 
ATOM      3  O   UNL d   1      -0.695  -0.517  -3.699  0.00  0.00    -0.266 OA
ATOM      4  H   UNL d   1      -0.154  -1.075  -6.825  0.00  0.00     0.190 HD
ENDROOT
BRANCH   1   5
ATOM      5  C   UNL d   1       1.312  -1.454  -4.531  0.00  0.00     0.036 A 
ATOM      6  C   UNL d   1       1.803  -1.615  -3.221  0.00  0.00     0.053 A 
ATOM      7  C   UNL d   1       3.101  -2.103  -3.005  0.00  0.00     0.103 A 
ATOM      8  C   UNL d   1       3.926  -2.433  -4.085  0.00  0.00     0.036 A 
ATOM      9  C   UNL d   1       3.442  -2.282  -5.384  0.00  0.00     0.003 A 
ATOM     10  C   UNL d   1       2.143  -1.798  -5.609  0.00  0.00     0.017 A 
BRANCH   7  11
ATOM     11  N   UNL d   1       3.602  -2.268  -1.634  0.00  0.00    -0.116 N 
ATOM     12  O   UNL d   1       2.828  -2.011  -0.699  0.00  0.00    -0.532 OA
ATOM     13  O   UNL d   1       4.770  -2.657  -1.491  0.00  0.00    -0.532 OA
ENDBRANCH   7  11
ENDBRANCH   1   5
BRANCH   2  14
ATOM     14  N   UNL d   1      -1.880  -0.208  -6.103  0.00  0.00    -0.267 N 
ATOM     15  C   UNL d   1      -2.341   0.030  -7.382  0.00  0.00     0.243 C 
ATOM     16  O   UNL d   1      -1.708  -0.380  -8.360  0.00  0.00    -0.271 OA
ATOM     17  H   UNL d   1      -2.298   0.175  -5.256  0.00  0.00     0.190 HD
BRANCH  15  18
ATOM     18  C   UNL d   1      -3.638   0.857  -7.511  0.00  0.00     0.032 C 
ATOM     19  C   UNL d   1      -3.410   2.270  -6.957  0.00  0.00     0.025 C 
ATOM     20  C   UNL d   1      -4.020   0.967  -9.000  0.00  0.00     0.025 C 
ATOM     21  C   UNL d   1      -4.807   0.196  -6.763  0.00  0.00     0.025 C 
ENDBRANCH  15  18
ENDBRANCH   2  14
TORSDOF 4
