REMARK  5 active torsions:
REMARK  status: ('A' for Active; 'I' for Inactive)
REMARK    1  A    between atoms: C4_6  and  C1_2 
REMARK    2  A    between atoms: C3_5  and  C2_3 
REMARK    3  A    between atoms: O2_14  and  C4_6 
REMARK    4  A    between atoms: O4_16  and  C9_11 
REMARK    5  A    between atoms: O3_15  and  C10_12 
ROOT
ATOM      1  N1  <1> d   1      -1.154  -0.116   0.173  0.00  0.00     0.117 N 
ATOM      2  C1  <1> d   1      -0.405   1.177   0.288  0.00  0.00     0.328 C 
ATOM      3  C2  <1> d   1      -0.281  -1.135  -0.430  0.00  0.00     0.316 C 
ATOM      4  S1  <1> d   1       1.382  -0.798   0.184  0.00  0.00    -0.126 SA
ATOM      5  C5  <1> d   1       1.111   0.983   0.253  0.00  0.00     0.123 C 
ATOM      6  H1  <1> d   1      -1.980  -0.002  -0.417  0.00  0.00     0.319 HD
ENDROOT
BRANCH   3   7
ATOM      7  C3  <1> d   1      -0.311  -1.211  -1.950  0.00  0.00    -0.010 A 
ATOM      8  C6  <1> d   1      -0.590  -0.107  -2.772  0.00  0.00     0.047 A 
ATOM      9  C10 <1> d   1      -0.531  -0.200  -4.162  0.00  0.00     0.071 A 
ATOM     10  C8  <1> d   1      -0.246  -1.422  -4.764  0.00  0.00     0.073 A 
ATOM     11  C9  <1> d   1       0.036  -2.539  -3.982  0.00  0.00     0.071 A 
ATOM     12  C7  <1> d   1       0.010  -2.425  -2.585  0.00  0.00     0.047 A 
BRANCH   9  13
ATOM     13  O3  <1> d   1      -0.763   0.848  -5.012  0.00  0.00    -0.356 OA
ATOM     14  C12 <1> d   1      -0.412   2.134  -4.500  0.00  0.00     0.210 C 
ENDBRANCH   9  13
BRANCH  11  15
ATOM     15  O4  <1> d   1       0.363  -3.781  -4.452  0.00  0.00    -0.356 OA
ATOM     16  C11 <1> d   1       0.446  -3.927  -5.866  0.00  0.00     0.210 C 
ENDBRANCH  11  15
ENDBRANCH   3   7
BRANCH   2  17
ATOM     17  C4  <1> d   1      -0.808   1.889   1.579  0.00  0.00     0.175 C 
ATOM     18  O1  <1> d   1      -0.412   2.997   1.910  0.00  0.00    -0.648 OA
BRANCH  17  19
ATOM     19  O2  <1> d   1      -1.687   1.163   2.316  0.00  0.00    -0.775 OA
ATOM     20  H9  <1> d   1      -1.809   0.304   1.844  0.00  0.00     0.167 HD
ENDBRANCH  17  19
ENDBRANCH   2  17
TORSDOF 5
