REMARK  9 active torsions:
REMARK  status: ('A' for Active; 'I' for Inactive)
REMARK       I    between atoms: N_3  and  C_1 
REMARK    1  A    between atoms: O_5  and  C_1 
REMARK    2  A    between atoms: C_2  and  N_3 
REMARK    3  A    between atoms: C_4  and  C_2 
REMARK    4  A    between atoms: C_11  and  C_2 
REMARK       I    between atoms: N_9  and  C_4 
REMARK    5  A    between atoms: C_8  and  O_5 
REMARK    6  A    between atoms: C_17  and  N_9 
REMARK    7  A    between atoms: O_10  and  C_11 
REMARK    8  A    between atoms: C_13  and  O_10 
REMARK    9  A    between atoms: C_12  and  C_13 
ROOT
ATOM      1  C   UNL d   1       1.136  -0.612  -2.315  0.00  0.00     0.202 C 
ENDROOT
BRANCH   1   2
ATOM      2  N   UNL d   1       0.498  -0.325  -1.029  0.00  0.00    -0.322 N 
ATOM      3  C   UNL d   1       0.729   0.810  -0.321  0.00  0.00     0.362 C 
ATOM      4  O   UNL d   1       1.518   1.682  -0.656  0.00  0.00    -0.238 OA
ATOM      5  H   UNL d   1      -0.221  -0.942  -0.675  0.00  0.00     0.165 HD
BRANCH   3   6
ATOM      6  O   UNL d   1       0.000   0.789   0.817  0.00  0.00    -0.294 OA
BRANCH   6   7
ATOM      7  C   UNL d   1       0.132   1.855   1.799  0.00  0.00     0.061 C 
ATOM      8  C   UNL d   1      -0.389   3.187   1.247  0.00  0.00     0.046 C 
ATOM      9  C   UNL d   1      -0.756   1.433   2.981  0.00  0.00     0.046 C 
ATOM     10  C   UNL d   1       1.574   1.973   2.308  0.00  0.00     0.046 C 
ENDBRANCH   6   7
ENDBRANCH   3   6
ENDBRANCH   1   2
BRANCH   1  11
ATOM     11  C   UNL d   1       1.912  -1.931  -2.226  0.00  0.00     0.242 C 
ATOM     12  O   UNL d   1       1.787  -2.846  -3.033  0.00  0.00    -0.271 OA
ATOM     13  N   UNL d   1       2.849  -1.941  -1.210  0.00  0.00    -0.360 N 
ATOM     14  H   UNL d   1       2.852  -1.166  -0.556  0.00  0.00     0.162 HD
BRANCH  13  15
ATOM     15  C   UNL d   1       3.677  -3.093  -0.937  0.00  0.00     0.118 C 
ATOM     16  C   UNL d   1       2.991  -4.031   0.038  0.00  0.00     0.026 C 
ENDBRANCH  13  15
ENDBRANCH   1  11
BRANCH   1  17
ATOM     17  C   UNL d   1       0.128  -0.642  -3.471  0.00  0.00     0.202 C 
BRANCH  17  18
ATOM     18  O   UNL d   1      -0.609   0.580  -3.600  0.00  0.00    -0.384 OA
BRANCH  18  19
ATOM     19  C   UNL d   1       0.194   1.675  -4.035  0.00  0.00     0.206 C 
BRANCH  19  20
ATOM     20  C   UNL d   1      -0.673   2.897  -4.164  0.00  0.00    -0.035 A 
ATOM     21  C   UNL d   1      -0.488   3.992  -3.309  0.00  0.00     0.009 A 
ATOM     22  C   UNL d   1      -1.274   5.135  -3.447  0.00  0.00     0.001 A 
ATOM     23  C   UNL d   1      -2.255   5.192  -4.437  0.00  0.00     0.000 A 
ATOM     24  C   UNL d   1      -2.455   4.103  -5.283  0.00  0.00     0.001 A 
ATOM     25  C   UNL d   1      -1.669   2.959  -5.147  0.00  0.00     0.009 A 
ENDBRANCH  19  20
ENDBRANCH  18  19
ENDBRANCH  17  18
ENDBRANCH   1  17
TORSDOF 9
