REMARK  9 active torsions:
REMARK  status: ('A' for Active; 'I' for Inactive)
REMARK    1  A    between atoms: C_12  and  C_1 
REMARK    2  A    between atoms: C_16  and  N_4 
REMARK    3  A    between atoms: N_8  and  C_13 
REMARK       I    between atoms: C_11  and  N_8 
REMARK    4  A    between atoms: C_9  and  C_14 
REMARK    5  A    between atoms: C_10  and  C_15 
REMARK    6  A    between atoms: C_17  and  C_11 
REMARK    7  A    between atoms: C_13  and  N_24 
REMARK    8  A    between atoms: C_18  and  C_16 
REMARK       I    between atoms: N_25  and  C_18 
REMARK    9  A    between atoms: N_24  and  N_25 
ROOT
ATOM      1  C   UNL d   1      -2.066   0.937   0.301  0.00  0.00     0.144 A 
ATOM      2  N   UNL d   1      -1.004   1.312  -0.430  0.00  0.00    -0.268 N 
ATOM      3  HN  UNL d   1      -0.968   1.703  -1.371  1.00  0.00     0.190 HD
ATOM      4  N   UNL d   1       0.002   1.032   0.422  0.00  0.00    -0.207 N 
ATOM      5  N   UNL d   1      -1.706   0.428   1.526  0.00  0.00    -0.266 N 
ATOM      6  HN  UNL d   1      -2.334   0.056   2.237  1.00  0.00     0.186 HD
ATOM      7  N   UNL d   1      -0.383   0.515   1.606  0.00  0.00    -0.002 NA
ENDROOT
BRANCH   4   8
ATOM      8  C   UNL d   1       1.309   1.589   0.199  0.00  0.00     0.271 C 
BRANCH   8   9
ATOM      9  C   UNL d   1       2.462   0.630   0.297  0.00  0.00     0.257 C 
ATOM     10  N   UNL d   1       2.402  -0.630  -0.237  0.00  0.00    -0.266 N 
ATOM     11  H   UNL d   1       3.221  -1.222  -0.122  0.00  0.00     0.190 HD
ATOM     12  O   UNL d   1       3.543   1.015   0.755  0.00  0.00    -0.270 OA
BRANCH  10  13
ATOM     13  N   UNL d   1       1.264  -1.204  -0.790  0.00  0.00    -0.273 N 
ATOM     14  H   UNL d   1       0.782  -0.700  -1.544  0.00  0.00     0.189 HD
BRANCH  13  15
ATOM     15  C   UNL d   1       0.962  -2.536  -0.615  0.00  0.00     0.193 C 
ATOM     16  S   UNL d   1       1.750  -3.585   0.420  0.00  0.00    -0.039 SA
BRANCH  15  17
ATOM     17  N   UNL d   1      -0.070  -3.020  -1.396  0.00  0.00    -0.302 N 
ATOM     18  C   UNL d   1      -0.725  -2.325  -2.395  0.00  0.00     0.228 C 
ATOM     19  O   UNL d   1      -0.609  -1.116  -2.567  0.00  0.00    -0.273 OA
ATOM     20  H   UNL d   1      -0.238  -4.012  -1.304  0.00  0.00     0.171 HD
BRANCH  18  21
ATOM     21  C   UNL d   1      -1.562  -3.096  -3.341  0.00  0.00     0.078 A 
ATOM     22  C   UNL d   1      -1.914  -4.558  -3.297  0.00  0.00     0.015 A 
ATOM     23  C   UNL d   1      -0.849  -4.083  -4.241  0.00  0.00     0.015 A 
ENDBRANCH  18  21
ENDBRANCH  15  17
ENDBRANCH  13  15
ENDBRANCH  10  13
ENDBRANCH   8   9
ENDBRANCH   4   8
BRANCH   1  24
ATOM     24  C   UNL d   1      -3.442   1.204  -0.097  0.00  0.00     0.012 A 
ATOM     25  C   UNL d   1      -3.725   1.643  -1.401  0.00  0.00     0.031 A 
ATOM     26  C   UNL d   1      -5.014   2.058  -1.765  0.00  0.00     0.049 A 
ATOM     27  C   UNL d   1      -6.035   2.008  -0.803  0.00  0.00     0.032 A 
ATOM     28  C   UNL d   1      -5.784   1.544   0.501  0.00  0.00     0.049 A 
ATOM     29  C   UNL d   1      -4.483   1.135   0.839  0.00  0.00     0.031 A 
BRANCH  26  30
ATOM     30  C   UNL d   1      -5.295   2.599  -3.147  0.00  0.00     0.417 C 
ATOM     31  F   UNL d   1      -4.225   2.542  -3.987  0.00  0.00    -0.166 F 
ATOM     32  F   UNL d   1      -6.299   1.926  -3.774  0.00  0.00    -0.166 F 
ATOM     33  F   UNL d   1      -5.679   3.905  -3.120  0.00  0.00    -0.166 F 
ENDBRANCH  26  30
BRANCH  28  34
ATOM     34  C   UNL d   1      -6.894   1.541   1.526  0.00  0.00     0.417 C 
ATOM     35  F   UNL d   1      -6.521   1.040   2.735  0.00  0.00    -0.166 F 
ATOM     36  F   UNL d   1      -7.371   2.793   1.770  0.00  0.00    -0.166 F 
ATOM     37  F   UNL d   1      -7.965   0.802   1.127  0.00  0.00    -0.166 F 
ENDBRANCH  28  34
ENDBRANCH   1  24
TORSDOF 9
