REMARK  4 active torsions:
REMARK  status: ('A' for Active; 'I' for Inactive)
REMARK    1  A    between atoms: N_3  and  C_1 
REMARK    2  A    between atoms: N_5  and  C_1 
REMARK    3  A    between atoms: C_4  and  N_3 
REMARK    4  A    between atoms: C_8  and  N_5 
ROOT
ATOM      1  N   UNL d   1       0.749  -0.813  -0.947  0.00  0.00    -0.332 N 
ATOM      2  H   UNL d   1       0.305  -0.464  -1.790  0.00  0.00     0.168 HD
ENDROOT
BRANCH   1   3
ATOM      3  C   UNL d   1       1.206   0.158  -0.108  0.00  0.00     0.172 C 
ATOM      4  S   UNL d   1       2.775   0.310   0.457  0.00  0.00    -0.041 SA
BRANCH   3   5
ATOM      5  N   UNL d   1       0.319   1.118   0.275  0.00  0.00    -0.359 N 
ATOM      6  H   UNL d   1       0.764   1.831   0.844  0.00  0.00     0.162 HD
BRANCH   5   7
ATOM      7  C   UNL d   1      -1.159   1.156   0.235  0.00  0.00     0.021 C 
ATOM      8  C   UNL d   1      -1.782  -0.172   0.697  0.00  0.00     0.037 C 
ATOM      9  C   UNL d   1      -1.611   2.249   1.227  0.00  0.00     0.037 C 
ATOM     10  C   UNL d   1      -1.670   1.530  -1.160  0.00  0.00     0.037 C 
ENDBRANCH   5   7
ENDBRANCH   3   5
ENDBRANCH   1   3
BRANCH   1  11
ATOM     11  C   UNL d   1       1.131  -2.178  -0.983  0.00  0.00     0.058 A 
ATOM     12  C   UNL d   1       1.059  -2.901  -2.189  0.00  0.00     0.082 A 
ATOM     13  C   UNL d   1       1.366  -4.270  -2.202  0.00  0.00     0.058 A 
ATOM     14 CL   UNL d   1       0.611  -2.069  -3.648  0.00  0.00    -0.080 Cl
ATOM     15 CL   UNL d   1       1.322  -5.221  -3.644  0.00  0.00    -0.082 Cl
ATOM     16  C   UNL d   1       1.718  -4.924  -1.015  0.00  0.00     0.026 A 
ATOM     17  C   UNL d   1       1.768  -4.214   0.182  0.00  0.00     0.004 A 
ATOM     18  C   UNL d   1       1.476  -2.850   0.198  0.00  0.00     0.031 A 
ENDBRANCH   1  11
TORSDOF 4
