REMARK  3 active torsions:
REMARK  status: ('A' for Active; 'I' for Inactive)
REMARK    1  A    between atoms: C_4  and  N_1 
REMARK    2  A    between atoms: C_8  and  C_2 
REMARK    3  A    between atoms: C_3  and  C_10 
ROOT
ATOM      1  C   UNL d   1       1.759  -0.851   4.988  0.00  0.00     0.055 C 
ATOM      2  C   UNL d   1       0.599  -1.411   4.592  0.00  0.00     0.035 C 
ATOM      3  C   UNL d   1       2.675  -0.253   4.069  0.00  0.00     0.100 C 
ATOM      4  N   UNL d   1       3.420   0.237   3.324  0.00  0.00    -0.191 NA
ENDROOT
BRANCH   1   5
ATOM      5  C   UNL d   1       2.105  -0.803   6.421  0.00  0.00    -0.015 A 
ATOM      6  C   UNL d   1       2.792  -1.858   7.033  0.00  0.00     0.013 A 
ATOM      7  C   UNL d   1       3.221  -1.746   8.360  0.00  0.00     0.007 A 
ATOM      8  C   UNL d   1       2.967  -0.581   9.096  0.00  0.00    -0.062 A 
ATOM      9  C   UNL d   1       2.247   0.457   8.495  0.00  0.00     0.007 A 
ATOM     10  C   UNL d   1       3.482  -0.450  10.500  0.00  0.00     0.048 C 
ATOM     11  C   UNL d   1       1.817   0.347   7.170  0.00  0.00     0.013 A 
ENDBRANCH   1   5
BRANCH   2  12
ATOM     12  C   UNL d   1       0.134  -1.446   3.197  0.00  0.00    -0.032 A 
ATOM     13  C   UNL d   1       0.489  -2.502   2.349  0.00  0.00     0.047 A 
ATOM     14  C   UNL d   1       0.051  -2.495   1.014  0.00  0.00     0.103 A 
ATOM     15  C   UNL d   1      -0.738  -1.447   0.523  0.00  0.00     0.036 A 
ATOM     16  C   UNL d   1      -1.087  -0.398   1.372  0.00  0.00     0.003 A 
ATOM     17  C   UNL d   1      -0.652  -0.397   2.701  0.00  0.00     0.011 A 
BRANCH  14  18
ATOM     18  N   UNL d   1       0.423  -3.599   0.118  0.00  0.00    -0.116 N 
ATOM     19  O   UNL d   1       1.133  -4.503   0.584  0.00  0.00    -0.532 OA
ATOM     20  O   UNL d   1      -0.000  -3.566  -1.045  0.00  0.00    -0.532 OA
ENDBRANCH  14  18
ENDBRANCH   2  12
TORSDOF 3
