REMARK  3 active torsions:
REMARK  status: ('A' for Active; 'I' for Inactive)
REMARK    1  A    between atoms: C_2  and  C_1 
REMARK       I    between atoms: N_6  and  C_1 
REMARK    2  A    between atoms: N_3  and  N_6 
REMARK    3  A    between atoms: C_5  and  C_11 
ROOT
ATOM      1  C   UNL d   1       0.853   0.019  -0.002  0.00  0.00     0.271 C 
ATOM      2  N   UNL d   1       0.132  -0.946   0.687  0.00  0.00    -0.266 N 
ATOM      3  O   UNL d   1       0.374   0.874  -0.741  0.00  0.00    -0.266 OA
ATOM      4  H   UNL d   1       0.589  -1.702   1.178  0.00  0.00     0.190 HD
ENDROOT
BRANCH   2   5
ATOM      5  N   UNL d   1      -1.224  -0.947   0.581  0.00  0.00    -0.308 N 
ATOM      6  C   UNL d   1      -1.861  -1.872   1.226  0.00  0.00     0.120 C 
ATOM      7  HN  UNL d   1      -1.716  -0.252   0.020  1.00  0.00     0.186 HD
BRANCH   6   8
ATOM      8  C   UNL d   1      -3.337  -1.956   1.157  0.00  0.00     0.002 A 
ATOM      9  C   UNL d   1      -4.061  -2.925   1.862  0.00  0.00     0.045 A 
ATOM     10 CL   UNL d   1      -3.313  -4.091   2.894  0.00  0.00    -0.083 Cl
ATOM     11  C   UNL d   1      -5.456  -2.970   1.746  0.00  0.00     0.024 A 
ATOM     12  C   UNL d   1      -6.129  -2.054   0.933  0.00  0.00     0.002 A 
ATOM     13  C   UNL d   1      -5.412  -1.085   0.237  0.00  0.00     0.001 A 
ATOM     14  C   UNL d   1      -4.022  -1.035   0.348  0.00  0.00     0.014 A 
ENDBRANCH   6   8
ENDBRANCH   2   5
BRANCH   1  15
ATOM     15  C   UNL d   1       2.322  -0.030   0.171  0.00  0.00     0.049 A 
ATOM     16  C   UNL d   1       3.128   0.431  -0.863  0.00  0.00     0.104 A 
ATOM     17  N   UNL d   1       4.484   0.439  -0.817  0.00  0.00    -0.374 N 
ATOM     18  C   UNL d   1       5.055  -0.011   0.321  0.00  0.00     0.087 A 
ATOM     19  HN  UNL d   1       5.044   0.768  -1.603  1.00  0.00     0.164 HD
ATOM     20  C   UNL d   1       4.336  -0.471   1.413  0.00  0.00     0.018 A 
ATOM     21  C   UNL d   1       2.944  -0.479   1.338  0.00  0.00     0.020 A 
ENDBRANCH   1  15
TORSDOF 3
