REMARK  3 active torsions:
REMARK  status: ('A' for Active; 'I' for Inactive)
REMARK    1  A    between atoms: O_8  and  C_1 
REMARK    2  A    between atoms: N_7  and  C_2 
REMARK    3  A    between atoms: C_11  and  O_8 
ROOT
ATOM      1  C   UNL d   1       0.531  -1.355   0.064  0.00  0.00     0.200 A 
ATOM      2  C   UNL d   1      -0.846  -1.259   0.181  0.00  0.00     0.179 A 
ATOM      3  N   UNL d   1       0.960  -0.051   0.006  0.00  0.00    -0.273 N 
ATOM      4  N   UNL d   1      -0.042   0.852  -0.051  0.00  0.00    -0.299 N 
ATOM      5  HN  UNL d   1       0.032   1.865  -0.149  1.00  0.00     0.187 HD
ATOM      6  C   UNL d   1      -1.155   0.115   0.051  0.00  0.00     0.059 A 
ATOM      7  C   UNL d   1       2.323   0.425  -0.049  0.00  0.00     0.180 C 
ATOM      8  C   UNL d   1      -2.478   0.789   0.032  0.00  0.00     0.072 C 
ENDROOT
BRANCH   1   9
ATOM      9  O   UNL d   1       1.415  -2.356   0.030  0.00  0.00    -0.290 OA
BRANCH   9  10
ATOM     10  C   UNL d   1       1.156  -3.538  -0.626  0.00  0.00     0.078 A 
ATOM     11  C   UNL d   1       0.327  -3.638  -1.748  0.00  0.00     0.040 A 
ATOM     12  C   UNL d   1       0.113  -4.880  -2.347  0.00  0.00     0.045 A 
ATOM     13  C   UNL d   1       0.769  -6.001  -1.854  0.00  0.00     0.116 A 
ATOM     14  C   UNL d   1       1.636  -5.905  -0.772  0.00  0.00     0.045 A 
ATOM     15  F   UNL d   1       0.574  -7.191  -2.440  0.00  0.00    -0.206 F 
ATOM     16  C   UNL d   1       1.829  -4.668  -0.153  0.00  0.00     0.040 A 
ENDBRANCH   9  10
ENDBRANCH   1   9
BRANCH   2  17
ATOM     17  N   UNL d   1      -1.760  -2.334   0.362  0.00  0.00    -0.109 N 
ATOM     18  O   UNL d   1      -1.553  -3.092   1.316  0.00  0.00    -0.532 OA
ATOM     19  O   UNL d   1      -2.694  -2.408  -0.445  0.00  0.00    -0.532 OA
ENDBRANCH   2  17
TORSDOF 3
