REMARK  7 active torsions:
REMARK  status: ('A' for Active; 'I' for Inactive)
REMARK    1  A    between atoms: C_3  and  N_1 
REMARK    2  A    between atoms: N_4  and  C_2 
REMARK       I    between atoms: C_5  and  N_4 
REMARK    3  A    between atoms: C_11  and  C_5 
REMARK    4  A    between atoms: C_6  and  C_12 
REMARK    5  A    between atoms: O_10  and  C_6 
REMARK    6  A    between atoms: S_9  and  C_11 
REMARK    7  A    between atoms: C_12  and  S_9 
ROOT
ATOM      1  C   UNL d   1       3.481  -0.896   0.676  0.00  0.00     0.061 A 
ATOM      2  C   UNL d   1       2.361  -0.140   1.089  0.00  0.00     0.057 A 
ATOM      3  C   UNL d   1       4.659  -0.934   1.447  0.00  0.00     0.032 A 
ATOM      4  C   UNL d   1       2.509   0.569   2.304  0.00  0.00     0.031 A 
ATOM      5  C   UNL d   1       4.760  -0.216   2.635  0.00  0.00     0.002 A 
ATOM      6  C   UNL d   1       3.680   0.536   3.067  0.00  0.00     0.002 A 
ENDROOT
BRANCH   1   7
ATOM      7  N   UNL d   1       3.559  -1.582  -0.552  0.00  0.00    -0.325 N 
ATOM      8  C   UNL d   1       3.179  -2.908  -0.663  0.00  0.00     0.231 C 
ATOM      9  O   UNL d   1       2.781  -3.622   0.259  0.00  0.00    -0.272 OA
ATOM     10  H   UNL d   1       3.409  -1.007  -1.368  0.00  0.00     0.169 HD
BRANCH   8  11
ATOM     11  C   UNL d   1       3.306  -3.456  -2.079  0.00  0.00     0.177 C 
BRANCH  11  12
ATOM     12  S   UNL d   1       4.605  -4.733  -2.183  0.00  0.00    -0.149 SA
BRANCH  12  13
ATOM     13  C   UNL d   1       3.978  -6.003  -1.030  0.00  0.00     0.184 C 
BRANCH  13  14
ATOM     14  C   UNL d   1       2.567  -6.438  -1.358  0.00  0.00     0.149 C 
ATOM     15  O   UNL d   1       2.288  -7.285  -2.200  0.00  0.00    -0.649 OA
BRANCH  14  16
ATOM     16  O   UNL d   1       1.611  -5.787  -0.655  0.00  0.00    -0.776 OA
ATOM     17  H   UNL d   1       1.964  -5.099  -0.037  0.00  0.00     0.167 HD
ENDBRANCH  14  16
ENDBRANCH  13  14
ENDBRANCH  12  13
ENDBRANCH  11  12
ENDBRANCH   8  11
ENDBRANCH   1   7
BRANCH   2  18
ATOM     18  N   UNL d   1       1.139  -0.015   0.427  0.00  0.00    -0.379 N 
ATOM     19  C   UNL d   1       0.973  -0.157  -1.014  0.00  0.00     0.123 C 
ATOM     20  C   UNL d   1      -0.179   0.736  -1.481  0.00  0.00     0.020 C 
ATOM     21  C   UNL d   1      -1.463   0.489  -0.693  0.00  0.00     0.003 C 
ATOM     22  C   UNL d   1      -1.204   0.554   0.811  0.00  0.00     0.020 C 
ATOM     23  C   UNL d   1      -0.061  -0.380   1.207  0.00  0.00     0.123 C 
ENDBRANCH   2  18
TORSDOF 7
