REMARK  5 active torsions:
REMARK  status: ('A' for Active; 'I' for Inactive)
REMARK    1  A    between atoms: C_6  and  C_1 
REMARK    2  A    between atoms: C_3  and  C_2 
REMARK       I    between atoms: N_7  and  C_3 
REMARK    3  A    between atoms: C_8  and  N_7 
REMARK    4  A    between atoms: N_11  and  C_8 
REMARK    5  A    between atoms: C_18  and  N_11 
ROOT
ATOM      1  C   UNL d   1      -1.302  -0.449   0.377  0.00  0.00     0.086 A 
ATOM      2  C   UNL d   1      -0.042  -1.159   0.335  0.00  0.00     0.093 A 
ATOM      3  N   UNL d   1      -1.038   0.833   0.050  0.00  0.00    -0.259 N 
ATOM      4  HN  UNL d   1      -1.734   1.573  -0.039  1.00  0.00     0.195 HD
ATOM      5  O   UNL d   1       0.296   0.984  -0.143  0.00  0.00    -0.241 OA
ATOM      6  C   UNL d   1       0.908  -0.193   0.064  0.00  0.00     0.090 A 
ATOM      7  C   UNL d   1       2.381  -0.174  -0.024  0.00  0.00     0.080 C 
ENDROOT
BRANCH   2   8
ATOM      8  C   UNL d   1       0.384  -2.530   0.530  0.00  0.00     0.262 C 
ATOM      9  N   UNL d   1       0.094  -3.322  -0.578  0.00  0.00    -0.299 N 
ATOM     10  H   UNL d   1      -0.357  -2.826  -1.314  0.00  0.00     0.171 HD
ATOM     11  O   UNL d   1       1.063  -2.840   1.494  0.00  0.00    -0.267 OA
BRANCH   9  12
ATOM     12  C   UNL d   1       0.361  -4.644  -0.827  0.00  0.00     0.179 C 
ATOM     13  S   UNL d   1       0.958  -5.760   0.271  0.00  0.00    -0.040 SA
BRANCH  12  14
ATOM     14  N   UNL d   1       0.226  -5.104  -2.111  0.00  0.00    -0.333 N 
ATOM     15  H   UNL d   1       0.614  -6.043  -2.180  0.00  0.00     0.168 HD
BRANCH  14  16
ATOM     16  C   UNL d   1      -0.106  -4.521  -3.353  0.00  0.00     0.034 A 
ATOM     17  C   UNL d   1       0.387  -5.191  -4.487  0.00  0.00     0.029 A 
ATOM     18  C   UNL d   1       0.190  -4.679  -5.772  0.00  0.00     0.002 A 
ATOM     19  C   UNL d   1      -0.508  -3.492  -5.947  0.00  0.00     0.000 A 
ATOM     20  C   UNL d   1      -1.048  -2.845  -4.839  0.00  0.00     0.002 A 
ATOM     21  C   UNL d   1      -0.872  -3.369  -3.553  0.00  0.00     0.029 A 
ENDBRANCH  14  16
ENDBRANCH  12  14
ENDBRANCH   9  12
ENDBRANCH   2   8
BRANCH   1  22
ATOM     22  C   UNL d   1      -2.716  -0.774   0.781  0.00  0.00     0.037 A 
ATOM     23  C   UNL d   1      -3.771   0.172   0.568  0.00  0.00     0.048 A 
ATOM     24 CL   UNL d   1      -3.704   1.533  -0.521  0.00  0.00    -0.083 Cl
ATOM     25  C   UNL d   1      -5.030   0.052   1.190  0.00  0.00     0.025 A 
ATOM     26  C   UNL d   1      -5.327  -1.040   1.980  0.00  0.00     0.003 A 
ATOM     27  C   UNL d   1      -4.377  -2.038   2.105  0.00  0.00     0.025 A 
ATOM     28  C   UNL d   1      -3.097  -1.916   1.521  0.00  0.00     0.048 A 
ATOM     29 CL   UNL d   1      -2.127  -3.307   1.810  0.00  0.00    -0.083 Cl
ENDBRANCH   1  22
TORSDOF 5
