REMARK  6 active torsions:
REMARK  status: ('A' for Active; 'I' for Inactive)
REMARK    1  A    between atoms: C_12  and  C_5 
REMARK    2  A    between atoms: N_16  and  C_10 
REMARK       I    between atoms: N_17  and  C_12 
REMARK    3  A    between atoms: C_23  and  N_17 
REMARK    4  A    between atoms: C_21  and  C_23 
REMARK    5  A    between atoms: C_24  and  C_21 
REMARK    6  A    between atoms: O_22  and  C_24 
ROOT
ATOM      1  C   UNL d   1       1.579  -0.928   0.062  0.00  0.00     0.161 A 
ATOM      2  N   UNL d   1       0.885   0.261   0.029  0.00  0.00    -0.221 N 
ATOM      3  N   UNL d   1       0.966  -2.149   0.110  0.00  0.00    -0.329 N 
ATOM      4  HN  UNL d   1       1.508  -3.013   0.141  1.00  0.00     0.168 HD
ATOM      5  C   UNL d   1       2.904  -0.520   0.024  0.00  0.00     0.160 A 
ATOM      6  N   UNL d   1       1.706   1.323  -0.013  0.00  0.00    -0.013 NA
ATOM      7  N   UNL d   1       2.950   0.859  -0.016  0.00  0.00    -0.275 N 
ATOM      8  HN  UNL d   1       3.798   1.426  -0.044  1.00  0.00     0.184 HD
ATOM      9  C   UNL d   1      -1.175  -0.916   0.072  0.00  0.00     0.032 A 
ATOM     10  C   UNL d   1      -0.343  -2.167   0.116  0.00  0.00     0.092 A 
ATOM     11  C   UNL d   1      -0.511   0.318   0.029  0.00  0.00     0.070 A 
ATOM     12  C   UNL d   1      -1.208   1.527  -0.012  0.00  0.00     0.034 A 
ATOM     13  C   UNL d   1      -2.571  -0.938   0.084  0.00  0.00     0.041 A 
ATOM     14  C   UNL d   1      -3.274   0.268   0.037  0.00  0.00     0.035 A 
ATOM     15  C   UNL d   1      -2.603   1.494  -0.011  0.00  0.00     0.026 A 
ATOM     16 CL   UNL d   1      -4.995   0.242   0.035  0.00  0.00    -0.084 Cl
ENDROOT
BRANCH   5  17
ATOM     17  C   UNL d   1       4.095  -1.361   0.010  0.00  0.00     0.273 C 
ATOM     18  O   UNL d   1       5.232  -0.900   0.003  0.00  0.00    -0.266 OA
ATOM     19  N   UNL d   1       3.835  -2.719  -0.004  0.00  0.00    -0.355 N 
ATOM     20  H   UNL d   1       2.863  -3.013   0.055  0.00  0.00     0.162 HD
BRANCH  19  21
ATOM     21  C   UNL d   1       4.878  -3.720  -0.023  0.00  0.00     0.125 C 
BRANCH  21  22
ATOM     22  C   UNL d   1       5.289  -4.130   1.388  0.00  0.00     0.046 C 
BRANCH  22  23
ATOM     23  C   UNL d   1       6.329  -5.244   1.369  0.00  0.00     0.168 C 
BRANCH  23  24
ATOM     24  O   UNL d   1       7.485  -4.793   0.670  0.00  0.00    -0.396 OA
ATOM     25  C   UNL d   1       8.501  -5.783   0.617  0.00  0.00     0.201 C 
ENDBRANCH  23  24
ENDBRANCH  22  23
ENDBRANCH  21  22
ENDBRANCH  19  21
ENDBRANCH   5  17
BRANCH  10  26
ATOM     26  N   UNL d   1      -0.940  -3.397   0.162  0.00  0.00    -0.288 NA
ATOM     27  H   UNL d   1      -1.803  -3.526  -0.354  0.00  0.00     0.125 HD
ATOM     28  H   UNL d   1      -0.285  -4.155  -0.000  0.00  0.00     0.125 HD
ENDBRANCH  10  26
TORSDOF 6
