REMARK  8 active torsions:
REMARK  status: ('A' for Active; 'I' for Inactive)
REMARK    1  A    between atoms: O_14  and  C_3 
REMARK    2  A    between atoms: S_10  and  C_4 
REMARK    3  A    between atoms: C_17  and  C_5 
REMARK    4  A    between atoms: C_18  and  C_8 
REMARK    5  A    between atoms: C_9  and  C_16 
REMARK    6  A    between atoms: C_16  and  S_10 
REMARK    7  A    between atoms: C_13  and  C_17 
REMARK    8  A    between atoms: C_19  and  C_18 
ROOT
ATOM      1  N   UNL d   1      -0.203  -1.327  -0.031  0.00  0.00    -0.317 N 
ATOM      2  HN  UNL d   1      -0.690  -2.222  -0.077  1.00  0.00     0.170 HD
ATOM      3  C   UNL d   1      -0.855  -0.161   0.018  0.00  0.00     0.150 A 
ATOM      4  C   UNL d   1       1.131  -1.238  -0.016  0.00  0.00     0.146 A 
ATOM      5  C   UNL d   1      -0.283   1.095   0.073  0.00  0.00     0.019 A 
ATOM      6  N   UNL d   1       1.816  -0.083   0.022  0.00  0.00    -0.340 N 
ATOM      7  HN  UNL d   1       2.836  -0.076   0.031  1.00  0.00     0.168 HD
ATOM      8  C   UNL d   1       1.106   1.076   0.049  0.00  0.00     0.022 A 
ENDROOT
BRANCH   4   9
ATOM      9  S   UNL d   1       2.020  -2.771  -0.141  0.00  0.00    -0.093 SA
BRANCH   9  10
ATOM     10  C   UNL d   1       3.440  -2.405   0.924  0.00  0.00     0.087 C 
BRANCH  10  11
ATOM     11  C   UNL d   1       4.215  -3.670   1.170  0.00  0.00    -0.005 A 
ATOM     12  C   UNL d   1       5.556  -3.586   1.859  0.00  0.00     0.006 A 
ATOM     13  C   UNL d   1       5.484  -3.987   0.413  0.00  0.00     0.006 A 
ENDBRANCH  10  11
ENDBRANCH   9  10
ENDBRANCH   4   9
BRANCH   3  14
ATOM     14  O   UNL d   1      -2.204  -0.317   0.004  0.00  0.00    -0.346 OA
ATOM     15  H   UNL d   1      -2.270  -1.286  -0.079  0.00  0.00     0.219 HD
ENDBRANCH   3  14
BRANCH   8  16
ATOM     16  C   UNL d   1       1.942   2.335   0.007  0.00  0.00     0.057 C 
BRANCH  16  17
ATOM     17  C   UNL d   1       2.277   2.948   1.370  0.00  0.00     0.002 C 
ATOM     18  C   UNL d   1       3.143   2.061   2.252  0.00  0.00     0.005 C 
ENDBRANCH  16  17
ENDBRANCH   8  16
BRANCH   5  19
ATOM     19  C   UNL d   1      -1.131   2.334   0.146  0.00  0.00     0.071 C 
BRANCH  19  20
ATOM     20  C   UNL d   1      -1.542   2.994  -1.144  0.00  0.00    -0.032 C 
ATOM     21  C   UNL d   1      -1.273   2.619  -2.400  0.00  0.00     0.007 C 
ENDBRANCH  19  20
ENDBRANCH   5  19
TORSDOF 8
