REMARK  2 active torsions:
REMARK  status: ('A' for Active; 'I' for Inactive)
REMARK    1  A    between atoms: C_8  and  N_1 
REMARK    2  A    between atoms: C_13  and  C_14 
ROOT
ATOM      1  N   UNL d   1       3.240   0.054  -0.038  0.00  0.00    -0.244 N 
ATOM      2  C   UNL d   1       2.420  -0.895  -0.613  0.00  0.00     0.266 A 
ATOM      3  C   UNL d   1       2.490   1.017   0.603  0.00  0.00     0.266 A 
ATOM      4  C   UNL d   1       1.045  -0.505  -0.316  0.00  0.00     0.050 A 
ATOM      5  C   UNL d   1       1.089   0.667   0.404  0.00  0.00     0.050 A 
ATOM      6  C   UNL d   1      -0.150  -1.111  -0.653  0.00  0.00     0.043 A 
ATOM      7  C   UNL d   1      -0.058   1.329   0.803  0.00  0.00     0.043 A 
ATOM      8  C   UNL d   1      -1.332  -0.471  -0.255  0.00  0.00     0.056 A 
ATOM      9  C   UNL d   1      -1.285   0.750   0.460  0.00  0.00     0.056 A 
ATOM     10  O   UNL d   1       2.663  -1.914  -1.235  0.00  0.00    -0.267 OA
ATOM     11  O   UNL d   1       2.802   2.025   1.213  0.00  0.00    -0.267 OA
ATOM     12 CL   UNL d   1      -2.826  -1.227  -0.679  0.00  0.00    -0.083 Cl
ATOM     13 CL   UNL d   1      -2.719   1.591   0.936  0.00  0.00    -0.083 Cl
ENDROOT
BRANCH   1  14
ATOM     14  C   UNL d   1       4.662   0.056  -0.112  0.00  0.00     0.046 A 
ATOM     15  C   UNL d   1       5.343  -0.644  -1.112  0.00  0.00     0.031 A 
ATOM     16  C   UNL d   1       6.743  -0.615  -1.195  0.00  0.00     0.010 A 
ATOM     17  C   UNL d   1       7.523   0.090  -0.264  0.00  0.00    -0.051 A 
ATOM     18  C   UNL d   1       6.835   0.781   0.741  0.00  0.00     0.010 A 
ATOM     19  C   UNL d   1       5.434   0.771   0.810  0.00  0.00     0.031 A 
BRANCH  17  20
ATOM     20  C   UNL d   1       9.058   0.080  -0.364  0.00  0.00    -0.024 C 
ATOM     21  C   UNL d   1       9.760   0.843   0.782  0.00  0.00     0.019 C 
ATOM     22  C   UNL d   1       9.572  -1.376  -0.322  0.00  0.00     0.019 C 
ATOM     23  C   UNL d   1       9.498   0.736  -1.689  0.00  0.00     0.019 C 
ENDBRANCH  17  20
ENDBRANCH   1  14
TORSDOF 2
