REMARK  5 active torsions:
REMARK  status: ('A' for Active; 'I' for Inactive)
REMARK    1  A    between atoms: N_7  and  C_1 
REMARK    2  A    between atoms: N_4  and  C_2 
REMARK    3  A    between atoms: N_5  and  C_3 
REMARK    4  A    between atoms: C_6  and  C_8 
REMARK    5  A    between atoms: N_11  and  N_7 
ROOT
ATOM      1  C   UNL d   1       2.608  -1.168   0.081  0.00  0.00     0.114 A 
ATOM      2  C   UNL d   1       2.118  -1.792  -1.076  0.00  0.00     0.134 A 
ATOM      3  C   UNL d   1       1.653  -0.406   0.803  0.00  0.00     0.134 A 
ATOM      4  C   UNL d   1      -0.150  -0.945  -0.745  0.00  0.00     0.052 A 
ATOM      5  C   UNL d   1       0.307  -0.289   0.402  0.00  0.00     0.054 A 
ATOM      6  C   UNL d   1       0.772  -1.685  -1.497  0.00  0.00     0.054 A 
ENDROOT
BRANCH   1   7
ATOM      7  N   UNL d   1       3.870  -1.428   0.661  0.00  0.00    -0.296 N 
ATOM      8  H   UNL d   1       4.129  -0.703   1.353  0.00  0.00     0.187 HD
BRANCH   7   9
ATOM      9  N   UNL d   1       4.948  -1.805  -0.069  0.00  0.00    -0.303 N 
ATOM     10  C   UNL d   1       5.743  -2.590   0.612  0.00  0.00     0.045 C 
ATOM     11  C   UNL d   1       7.189  -2.642   0.307  0.00  0.00    -0.004 A 
ATOM     12  C   UNL d   1       5.333  -3.372   1.844  0.00  0.00     0.133 C 
ATOM     13  C   UNL d   1       8.099  -2.570   1.383  0.00  0.00    -0.037 A 
ATOM     14  C   UNL d   1       7.631  -2.648  -1.019  0.00  0.00     0.014 A 
ATOM     15  C   UNL d   1       9.471  -2.505   1.082  0.00  0.00     0.009 A 
ATOM     16  C   UNL d   1       7.717  -2.551   2.849  0.00  0.00     0.113 C 
ATOM     17  C   UNL d   1       9.915  -2.517  -0.240  0.00  0.00     0.001 A 
ATOM     18  C   UNL d   1       8.999  -2.597  -1.287  0.00  0.00     0.001 A 
ATOM     19  S   UNL d   1       5.962  -2.470   3.272  0.00  0.00    -0.158 SA
ATOM     20  HN  UNL d   1       5.119  -1.513  -1.032  1.00  0.00     0.186 HD
ENDBRANCH   7   9
ENDBRANCH   1   7
BRANCH   2  21
ATOM     21  N   UNL d   1       2.964  -2.653  -1.877  0.00  0.00    -0.113 N 
ATOM     22  O   UNL d   1       3.388  -2.182  -2.942  0.00  0.00    -0.532 OA
ATOM     23  O   UNL d   1       3.079  -3.830  -1.506  0.00  0.00    -0.532 OA
ENDBRANCH   2  21
BRANCH   3  24
ATOM     24  N   UNL d   1       2.036   0.291   2.037  0.00  0.00    -0.113 N 
ATOM     25  O   UNL d   1       3.207   0.685   2.134  0.00  0.00    -0.532 OA
ATOM     26  O   UNL d   1       1.162   0.446   2.901  0.00  0.00    -0.532 OA
ENDBRANCH   3  24
BRANCH   4  27
ATOM     27  C   UNL d   1      -1.610  -0.896  -1.137  0.00  0.00     0.417 C 
ATOM     28  F   UNL d   1      -2.363  -0.129  -0.303  0.00  0.00    -0.166 F 
ATOM     29  F   UNL d   1      -1.795  -0.395  -2.385  0.00  0.00    -0.166 F 
ATOM     30  F   UNL d   1      -2.182  -2.130  -1.130  0.00  0.00    -0.166 F 
ENDBRANCH   4  27
TORSDOF 5
