REMARK  2 active torsions:
REMARK  status: ('A' for Active; 'I' for Inactive)
REMARK    1  A    between atoms: C_5  and  C_1 
REMARK    2  A    between atoms: C_6  and  C_2 
REMARK       I    between atoms: N_9  and  C_5 
ROOT
ATOM      1  C   UNL d   1      -0.087  -1.165  -0.006  0.00  0.00     0.093 C 
ATOM      2  C   UNL d   1      -1.405  -0.596  -0.011  0.00  0.00     0.088 C 
ATOM      3  N   UNL d   1      -1.314   0.738  -0.177  0.00  0.00    -0.259 N 
ATOM      4  HN  UNL d   1      -2.087   1.383  -0.340  1.00  0.00     0.195 HD
ATOM      5  O   UNL d   1       0.012   1.064  -0.086  0.00  0.00    -0.241 OA
ATOM      6  C   UNL d   1       0.747  -0.061   0.063  0.00  0.00     0.090 C 
ATOM      7  C   UNL d   1       2.193   0.146   0.262  0.00  0.00     0.080 C 
ENDROOT
BRANCH   1   8
ATOM      8  C   UNL d   1       0.333  -2.550   0.069  0.00  0.00     0.258 C 
ATOM      9  N   UNL d   1       1.341  -2.969  -0.810  0.00  0.00    -0.344 N 
ATOM     10  C   UNL d   1       1.828  -4.349  -0.734  0.00  0.00     0.152 C 
ATOM     11  C   UNL d   1       1.698  -2.311  -2.076  0.00  0.00     0.152 C 
ATOM     12  C   UNL d   1       3.326  -4.418  -1.063  0.00  0.00     0.187 C 
ATOM     13  O   UNL d   1       3.629  -3.780  -2.316  0.00  0.00    -0.388 OA
ATOM     14  C   UNL d   1       3.209  -2.408  -2.303  0.00  0.00     0.187 C 
ATOM     15  O   UNL d   1      -0.161  -3.304   0.900  0.00  0.00    -0.267 OA
ENDBRANCH   1   8
BRANCH   2  16
ATOM     16  C   UNL d   1      -2.728  -1.223   0.082  0.00  0.00     0.054 A 
ATOM     17  C   UNL d   1      -2.997  -2.415  -0.605  0.00  0.00     0.130 A 
ATOM     18  F   UNL d   1      -2.053  -3.003  -1.354  0.00  0.00    -0.205 F 
ATOM     19  C   UNL d   1      -4.259  -3.019  -0.572  0.00  0.00     0.043 A 
ATOM     20  C   UNL d   1      -5.300  -2.425   0.131  0.00  0.00     0.005 A 
ATOM     21  C   UNL d   1      -5.066  -1.240   0.823  0.00  0.00     0.025 A 
ATOM     22  C   UNL d   1      -3.789  -0.651   0.816  0.00  0.00     0.049 A 
ATOM     23 CL   UNL d   1      -3.626   0.773   1.794  0.00  0.00    -0.083 Cl
ENDBRANCH   2  16
TORSDOF 2
