REMARK  2 active torsions:
REMARK  status: ('A' for Active; 'I' for Inactive)
REMARK    1  A    between atoms: C_3  and  N_1 
REMARK    2  A    between atoms: C_5  and  C_3 
ROOT
ATOM      1  N   UNL d   1      -2.234  -2.050  -3.074  0.00  0.00    -0.195 NA
ATOM      2  C   UNL d   1      -1.454   0.163  -1.813  0.00  0.00     0.361 C 
ATOM      3  C   UNL d   1      -1.908  -1.080  -2.526  0.00  0.00     0.100 C 
ENDROOT
BRANCH   2   4
ATOM      4  N   UNL d   1      -1.438  -0.007  -0.320  0.00  0.00     0.115 N 
ATOM      5  C   UNL d   1      -0.819   1.128   0.412  0.00  0.00     0.300 C 
ATOM      6  C   UNL d   1       0.702   1.257   0.193  0.00  0.00     0.198 C 
ATOM      7  O   UNL d   1       1.385   0.056   0.567  0.00  0.00    -0.388 OA
ATOM      8  C   UNL d   1       0.855  -1.087  -0.114  0.00  0.00     0.198 C 
ATOM      9  C   UNL d   1      -0.666  -1.213   0.102  0.00  0.00     0.300 C 
ENDBRANCH   2   4
BRANCH   2  10
ATOM     10  C   UNL d   1      -2.267   1.385  -2.290  0.00  0.00    -0.011 A 
ATOM     11  C   UNL d   1      -1.665   2.660  -2.321  0.00  0.00     0.012 A 
ATOM     12  C   UNL d   1      -2.361   3.784  -2.774  0.00  0.00     0.024 A 
ATOM     13  C   UNL d   1      -3.660   3.647  -3.250  0.00  0.00     0.034 A 
ATOM     14  C   UNL d   1      -4.276   2.400  -3.247  0.00  0.00     0.024 A 
ATOM     15 CL   UNL d   1      -4.497   5.022  -3.854  0.00  0.00    -0.084 Cl
ATOM     16  C   UNL d   1      -3.595   1.282  -2.750  0.00  0.00     0.012 A 
ENDBRANCH   2  10
TORSDOF 2
