REMARK  3 active torsions:
REMARK  status: ('A' for Active; 'I' for Inactive)
REMARK    1  A    between atoms: C_4  and  C_1 
REMARK    2  A    between atoms: C_14  and  C_5 
REMARK    3  A    between atoms: C_7  and  C_10 
ROOT
ATOM      1  C   UNL d   1       0.185  -1.146  -0.005  0.00  0.00     0.088 A 
ATOM      2  N   UNL d   1       1.373  -0.589   0.147  0.00  0.00    -0.349 N 
ATOM      3  HN  UNL d   1       2.237  -1.105   0.315  1.00  0.00     0.166 HD
ATOM      4  C   UNL d   1       1.290   0.791   0.049  0.00  0.00     0.050 A 
ATOM      5  S   UNL d   1      -1.084  -0.015  -0.324  0.00  0.00    -0.081 SA
ATOM      6  C   UNL d   1       0.014   1.282  -0.124  0.00  0.00     0.082 A 
ENDROOT
BRANCH   1   7
ATOM      7  C   UNL d   1      -0.067  -2.602  -0.028  0.00  0.00     0.041 A 
ATOM      8  C   UNL d   1      -1.117  -3.215   0.690  0.00  0.00     0.049 A 
ATOM      9  C   UNL d   1      -1.348  -4.600   0.615  0.00  0.00     0.041 A 
ATOM     10 CL   UNL d   1      -2.170  -2.357   1.769  0.00  0.00    -0.083 Cl
ATOM     11  C   UNL d   1      -0.518  -5.430  -0.142  0.00  0.00     0.051 A 
ATOM     12  C   UNL d   1       0.552  -4.845  -0.826  0.00  0.00     0.041 A 
ATOM     13  C   UNL d   1       0.771  -3.458  -0.779  0.00  0.00     0.049 A 
ATOM     14 CL   UNL d   1       2.103  -2.885  -1.733  0.00  0.00    -0.083 Cl
BRANCH  11  15
ATOM     15  C   UNL d   1      -0.750  -6.919  -0.219  0.00  0.00     0.417 C 
ATOM     16  F   UNL d   1      -1.857  -7.330   0.458  0.00  0.00    -0.166 F 
ATOM     17  F   UNL d   1      -0.910  -7.351  -1.499  0.00  0.00    -0.166 F 
ATOM     18  F   UNL d   1       0.290  -7.631   0.293  0.00  0.00    -0.166 F 
ENDBRANCH  11  15
ENDBRANCH   1   7
BRANCH   4  19
ATOM     19  C   UNL d   1       2.479   1.631   0.051  0.00  0.00    -0.006 A 
ATOM     20  C   UNL d   1       3.623   1.201  -0.634  0.00  0.00     0.056 A 
ATOM     21  C   UNL d   1       4.743   2.026  -0.697  0.00  0.00     0.117 A 
ATOM     22  F   UNL d   1       5.822   1.620  -1.379  0.00  0.00    -0.206 F 
ATOM     23  C   UNL d   1       4.756   3.270  -0.084  0.00  0.00     0.042 A 
ATOM     24  C   UNL d   1       3.631   3.701   0.615  0.00  0.00     0.004 A 
ATOM     25  C   UNL d   1       2.497   2.886   0.681  0.00  0.00     0.014 A 
ENDBRANCH   4  19
TORSDOF 3
