REMARK  5 active torsions:
REMARK  status: ('A' for Active; 'I' for Inactive)
REMARK    1  A    between atoms: C_3  and  N_1 
REMARK    2  A    between atoms: C_2  and  C_4 
REMARK       I    between atoms: N_12  and  C_2 
REMARK    3  A    between atoms: C_5  and  C_3 
REMARK    4  A    between atoms: C_7  and  C_5 
REMARK    5  A    between atoms: O_13  and  C_5 
ROOT
ATOM      1  N   UNL d   1       1.242   0.132   0.371  0.00  0.00     0.091 N 
ATOM      2  C   UNL d   1      -1.677   0.259  -0.166  0.00  0.00     0.081 C 
ATOM      3  C   UNL d   1      -0.847   1.492   0.195  0.00  0.00     0.044 C 
ATOM      4  C   UNL d   1      -1.022  -0.970   0.468  0.00  0.00     0.044 C 
ATOM      5  C   UNL d   1       0.618   1.329  -0.214  0.00  0.00     0.273 C 
ATOM      6  C   UNL d   1       0.457  -1.088   0.085  0.00  0.00     0.273 C 
ENDROOT
BRANCH   1   7
ATOM      7  C   UNL d   1       2.608  -0.064  -0.183  0.00  0.00     0.308 C 
BRANCH   7   8
ATOM      8  C   UNL d   1       3.670   1.052   0.028  0.00  0.00     0.179 C 
BRANCH   8   9
ATOM      9  C   UNL d   1       4.171   1.337   1.430  0.00  0.00    -0.028 A 
ATOM     10  C   UNL d   1       4.139   0.383   2.455  0.00  0.00     0.010 A 
ATOM     11  C   UNL d   1       4.852   0.589   3.638  0.00  0.00     0.001 A 
ATOM     12  C   UNL d   1       5.598   1.752   3.817  0.00  0.00     0.000 A 
ATOM     13  C   UNL d   1       5.586   2.740   2.838  0.00  0.00     0.001 A 
ATOM     14  C   UNL d   1       4.869   2.539   1.657  0.00  0.00     0.010 A 
ENDBRANCH   8   9
BRANCH   8  15
ATOM     15  O   UNL d   1       4.830   0.659  -0.738  0.00  0.00    -0.389 OA
ATOM     16  H   UNL d   1       5.486   0.314  -0.105  0.00  0.00     0.210 HD
ENDBRANCH   8  15
ENDBRANCH   7   8
ENDBRANCH   1   7
BRANCH   2  17
ATOM     17  C   UNL d   1      -1.860   0.089  -1.673  0.00  0.00     0.219 C 
ATOM     18  O   UNL d   1      -1.570  -0.927  -2.301  0.00  0.00    -0.273 OA
ATOM     19  N   UNL d   1      -2.423   1.145  -2.324  0.00  0.00    -0.370 N 
ATOM     20  H   UNL d   1      -2.922   1.874  -1.834  0.00  0.00     0.159 HD
ATOM     21  H   UNL d   1      -2.631   1.009  -3.306  0.00  0.00     0.159 HD
ENDBRANCH   2  17
TORSDOF 5
