REMARK  3 active torsions:
REMARK  status: ('A' for Active; 'I' for Inactive)
REMARK       I    between atoms: C_5  and  N_1 
REMARK    1  A    between atoms: C_10  and  C_2 
REMARK    2  A    between atoms: C_7  and  C_5 
REMARK    3  A    between atoms: C_13  and  C_10 
ROOT
ATOM      1  N   UNL d   1      -0.223  -1.201  -0.068  0.00  0.00    -0.205 N 
ATOM      2  C   UNL d   1       1.020   0.755  -0.058  0.00  0.00     0.034 A 
ATOM      3  C   UNL d   1       1.093  -0.728   0.078  0.00  0.00     0.273 A 
ATOM      4  N   UNL d   1      -1.075  -0.092  -0.222  0.00  0.00    -0.197 NA
ATOM      5  C   UNL d   1      -0.802  -2.469   0.035  0.00  0.00     0.245 C 
ATOM      6  C   UNL d   1      -0.290   1.042  -0.137  0.00  0.00     0.014 A 
ATOM      7  O   UNL d   1       2.115  -1.341   0.335  0.00  0.00    -0.266 OA
ATOM      8  O   UNL d   1      -2.002  -2.639   0.252  0.00  0.00    -0.271 OA
ATOM      9  C   UNL d   1      -0.903   2.401  -0.145  0.00  0.00     0.064 C 
ATOM     10  H   UNL d   1      -1.909  -0.119   0.371  0.00  0.00     0.153 HD
ENDROOT
BRANCH   2  11
ATOM     11  C   UNL d   1       2.218   1.627   0.045  0.00  0.00     0.084 C 
BRANCH  11  12
ATOM     12  C   UNL d   1       2.966   1.782  -1.263  0.00  0.00    -0.053 A 
ATOM     13  C   UNL d   1       2.584   2.766  -2.190  0.00  0.00     0.010 A 
ATOM     14  C   UNL d   1       3.301   2.937  -3.377  0.00  0.00     0.043 A 
ATOM     15  C   UNL d   1       4.393   2.122  -3.641  0.00  0.00     0.116 A 
ATOM     16  C   UNL d   1       4.773   1.126  -2.750  0.00  0.00     0.043 A 
ATOM     17  F   UNL d   1       5.094   2.301  -4.770  0.00  0.00    -0.206 F 
ATOM     18  C   UNL d   1       4.056   0.951  -1.564  0.00  0.00     0.010 A 
ENDBRANCH  11  12
ENDBRANCH   2  11
BRANCH   5  19
ATOM     19  C   UNL d   1       0.110  -3.643  -0.140  0.00  0.00     0.080 A 
ATOM     20  C   UNL d   1      -0.398  -4.859  -0.886  0.00  0.00     0.015 A 
ATOM     21  C   UNL d   1      -0.135  -4.943   0.589  0.00  0.00     0.015 A 
ENDBRANCH   5  19
TORSDOF 3
