REMARK  1 active torsions:
REMARK  status: ('A' for Active; 'I' for Inactive)
REMARK    1  A    between atoms: C_8  and  C_1 
ROOT
ATOM      1  C   UNL d   1       2.304   0.765  -0.064  0.00  0.00     0.165 A 
ATOM      2  N   UNL d   1       1.203   1.442  -0.039  0.00  0.00    -0.335 N 
ATOM      3  HN  UNL d   1       1.202   2.462  -0.047  1.00  0.00     0.168 HD
ATOM      4  O   UNL d   1       2.427  -0.577   0.005  0.00  0.00    -0.256 OA
ATOM      5  C   UNL d   1       1.321  -1.352   0.064  0.00  0.00     0.302 A 
ATOM      6  C   UNL d   1       0.021  -0.674   0.043  0.00  0.00     0.067 A 
ATOM      7  C   UNL d   1       0.016   0.711  -0.002  0.00  0.00     0.050 A 
ATOM      8  C   UNL d   1      -1.174  -1.407   0.059  0.00  0.00     0.026 A 
ATOM      9  O   UNL d   1       1.389  -2.573   0.133  0.00  0.00    -0.259 OA
ATOM     10  C   UNL d   1      -1.210   1.378  -0.031  0.00  0.00     0.031 A 
ATOM     11  C   UNL d   1      -2.402  -0.740   0.031  0.00  0.00    -0.061 A 
ATOM     12  C   UNL d   1      -2.411   0.659  -0.019  0.00  0.00     0.009 A 
ATOM     13  C   UNL d   1      -3.692  -1.506   0.021  0.00  0.00     0.048 C 
ENDROOT
BRANCH   1  14
ATOM     14  C   UNL d   1       3.636   1.396  -0.118  0.00  0.00     0.054 A 
ATOM     15  C   UNL d   1       4.702   0.786  -0.783  0.00  0.00     0.130 A 
ATOM     16  F   UNL d   1       4.545  -0.381  -1.424  0.00  0.00    -0.205 F 
ATOM     17  C   UNL d   1       5.956   1.393  -0.828  0.00  0.00     0.043 A 
ATOM     18  C   UNL d   1       6.151   2.626  -0.209  0.00  0.00     0.003 A 
ATOM     19  C   UNL d   1       5.089   3.254   0.446  0.00  0.00     0.001 A 
ATOM     20  C   UNL d   1       3.831   2.644   0.488  0.00  0.00     0.019 A 
ENDBRANCH   1  14
TORSDOF 1
