REMARK  7 active torsions:
REMARK  status: ('A' for Active; 'I' for Inactive)
REMARK    1  A    between atoms: C_2  and  C_1 
REMARK    2  A    between atoms: N_3  and  C_1 
REMARK    3  A    between atoms: C_4  and  C_1 
REMARK    4  A    between atoms: N_5  and  C_1 
REMARK       I    between atoms: C_6  and  N_3 
REMARK    5  A    between atoms: O_18  and  C_4 
REMARK    6  A    between atoms: C_9  and  N_5 
REMARK    7  A    between atoms: C_22  and  O_18 
ROOT
ATOM      1  C   UNL d   1       0.937   0.143  -0.132  0.00  0.00     0.296 C 
ENDROOT
BRANCH   1   2
ATOM      2  C   UNL d   1       0.204   1.527  -0.276  0.00  0.00     0.442 C 
ATOM      3  F   UNL d   1      -0.360   1.679  -1.506  0.00  0.00    -0.166 F 
ATOM      4  F   UNL d   1      -0.776   1.733   0.634  0.00  0.00    -0.166 F 
ATOM      5  F   UNL d   1       1.068   2.571  -0.145  0.00  0.00    -0.166 F 
ENDBRANCH   1   2
BRANCH   1   6
ATOM      6  N   UNL d   1       0.622  -0.879  -1.128  0.00  0.00    -0.319 N 
ATOM      7  C   UNL d   1      -0.673  -1.234  -1.387  0.00  0.00     0.216 C 
ATOM      8  O   UNL d   1      -1.624  -0.671  -0.858  0.00  0.00    -0.274 OA
ATOM      9  C   UNL d   1      -0.835  -2.367  -2.361  0.00  0.00     0.117 C 
ATOM     10  H   UNL d   1       1.399  -1.388  -1.518  0.00  0.00     0.165 HD
ENDBRANCH   1   6
BRANCH   1  11
ATOM     11  C   UNL d   1       0.556  -0.406   1.280  0.00  0.00     0.318 C 
ATOM     12  O   UNL d   1       0.127  -1.541   1.502  0.00  0.00    -0.260 OA
BRANCH  11  13
ATOM     13  O   UNL d   1       0.909   0.466   2.275  0.00  0.00    -0.318 OA
BRANCH  13  14
ATOM     14  C   UNL d   1       0.515   0.077   3.599  0.00  0.00     0.174 C 
ATOM     15  C   UNL d   1       1.495  -0.918   4.193  0.00  0.00     0.034 C 
ENDBRANCH  13  14
ENDBRANCH  11  13
ENDBRANCH   1  11
BRANCH   1  16
ATOM     16  N   UNL d   1       2.432   0.182  -0.197  0.00  0.00    -0.348 N 
ATOM     17  H   UNL d   1       2.888  -0.345   0.543  0.00  0.00     0.163 HD
BRANCH  16  18
ATOM     18  C   UNL d   1       3.248   0.653  -1.204  0.00  0.00     0.032 A 
ATOM     19  C   UNL d   1       4.638   0.644  -0.991  0.00  0.00     0.056 A 
ATOM     20  C   UNL d   1       5.528   1.115  -1.961  0.00  0.00     0.074 A 
ATOM     21 CL   UNL d   1       7.221   1.064  -1.654  0.00  0.00    -0.081 Cl
ATOM     22  C   UNL d   1       5.038   1.617  -3.159  0.00  0.00     0.138 A 
ATOM     23  C   UNL d   1       3.669   1.664  -3.385  0.00  0.00     0.046 A 
ATOM     24  F   UNL d   1       5.868   2.064  -4.111  0.00  0.00    -0.204 F 
ATOM     25  C   UNL d   1       2.782   1.192  -2.409  0.00  0.00     0.032 A 
ENDBRANCH  16  18
ENDBRANCH   1  16
TORSDOF 7
