REMARK  1 active torsions:
REMARK  status: ('A' for Active; 'I' for Inactive)
REMARK    1  A    between atoms: C_7  and  C_3 
ROOT
ATOM      1  C   UNL d   1       1.283   0.313  -0.025  0.00  0.00     0.058 C 
ATOM      2  C   UNL d   1      -1.283   0.326  -0.037  0.00  0.00     0.058 C 
ATOM      3  C   UNL d   1       0.006   1.142  -0.204  0.00  0.00     0.111 C 
ATOM      4  N   UNL d   1      -0.009  -1.677   0.030  0.00  0.00    -0.361 N 
ATOM      5  C   UNL d   1      -1.231  -1.024   0.040  0.00  0.00     0.023 C 
ATOM      6  C   UNL d   1       1.218  -1.037   0.057  0.00  0.00     0.023 C 
ATOM      7  C   UNL d   1      -2.524   1.034   0.010  0.00  0.00     0.098 C 
ATOM      8  C   UNL d   1       2.530   1.005   0.039  0.00  0.00     0.098 C 
ATOM      9  N   UNL d   1       3.546   1.563   0.089  0.00  0.00    -0.192 NA
ATOM     10  N   UNL d   1      -3.533   1.604   0.046  0.00  0.00    -0.192 NA
ATOM     11  C   UNL d   1      -2.467  -1.887   0.106  0.00  0.00     0.069 C 
ATOM     12  C   UNL d   1       2.445  -1.910   0.156  0.00  0.00     0.069 C 
ATOM     13  H   UNL d   1      -0.015  -2.690   0.128  0.00  0.00     0.165 HD
ENDROOT
BRANCH   3  14
ATOM     14  C   UNL d   1       0.017   1.840  -1.573  0.00  0.00    -0.022 A 
ATOM     15  C   UNL d   1       0.110   3.236  -1.722  0.00  0.00     0.043 A 
ATOM     16  C   UNL d   1       0.115   3.819  -2.994  0.00  0.00     0.048 A 
ATOM     17 CL   UNL d   1       0.225   4.301  -0.368  0.00  0.00    -0.084 Cl
ATOM     18  C   UNL d   1       0.028   3.017  -4.128  0.00  0.00     0.035 A 
ATOM     19  C   UNL d   1      -0.059   1.635  -4.009  0.00  0.00     0.024 A 
ATOM     20 CL   UNL d   1       0.030   3.737  -5.690  0.00  0.00    -0.084 Cl
ATOM     21  C   UNL d   1      -0.061   1.051  -2.743  0.00  0.00     0.011 A 
ENDBRANCH   3  14
TORSDOF 1
