REMARK  2 active torsions:
REMARK  status: ('A' for Active; 'I' for Inactive)
REMARK    1  A    between atoms: N_6  and  C_1 
REMARK       I    between atoms: C_7  and  N_6 
REMARK    2  A    between atoms: C_9  and  C_7 
ROOT
ATOM      1  C   UNL d   1       0.628  -1.082   0.025  0.00  0.00     0.126 A 
ATOM      2  N   UNL d   1      -0.381  -0.776   0.914  0.00  0.00    -0.281 N 
ATOM      3  N   UNL d   1      -0.923   0.446   0.689  0.00  0.00    -0.302 N 
ATOM      4  HN  UNL d   1      -1.688   0.892   1.196  1.00  0.00     0.186 HD
ATOM      5  C   UNL d   1       0.769   0.038  -0.768  0.00  0.00     0.076 A 
ATOM      6  C   UNL d   1      -0.232   0.936  -0.342  0.00  0.00     0.025 A 
ATOM      7  C   UNL d   1      -0.768  -1.441   2.135  0.00  0.00     0.179 C 
ATOM      8  C   UNL d   1      -0.556   2.276  -0.885  0.00  0.00     0.070 C 
ENDROOT
BRANCH   1   9
ATOM      9  N   UNL d   1       1.397  -2.235  -0.041  0.00  0.00    -0.311 N 
ATOM     10  C   UNL d   1       0.858  -3.503   0.137  0.00  0.00     0.231 C 
ATOM     11  O   UNL d   1      -0.323  -3.716   0.390  0.00  0.00    -0.272 OA
ATOM     12  H   UNL d   1       2.235  -2.165  -0.602  0.00  0.00     0.170 HD
BRANCH  10  13
ATOM     13  C   UNL d   1       1.886  -4.660   0.041  0.00  0.00     0.030 C 
ATOM     14  C   UNL d   1       2.775  -4.635   1.292  0.00  0.00     0.025 C 
ATOM     15  C   UNL d   1       1.126  -6.000  -0.005  0.00  0.00     0.025 C 
ATOM     16  C   UNL d   1       2.762  -4.571  -1.219  0.00  0.00     0.025 C 
ENDBRANCH  10  13
ENDBRANCH   1   9
TORSDOF 2
