REMARK  5 active torsions:
REMARK  status: ('A' for Active; 'I' for Inactive)
REMARK    1  A    between atoms: N_3  and  C_1 
REMARK    2  A    between atoms: C_2  and  C_14 
REMARK       I    between atoms: C_6  and  N_3 
REMARK    3  A    between atoms: C_17  and  C_6 
REMARK    4  A    between atoms: S_13  and  C_17 
REMARK    5  A    between atoms: C_14  and  S_13 
ROOT
ATOM      1  N   UNL d   1       2.756  -0.818   0.060  0.00  0.00    -0.326 N 
ATOM      2  C   UNL d   1       3.904  -0.065   0.260  0.00  0.00     0.231 C 
ATOM      3  O   UNL d   1       3.928   1.120   0.586  0.00  0.00    -0.272 OA
ATOM      4  H   UNL d   1       2.848  -1.813   0.214  0.00  0.00     0.169 HD
ENDROOT
BRANCH   2   5
ATOM      5  C   UNL d   1       5.197  -0.862   0.130  0.00  0.00     0.177 C 
BRANCH   5   6
ATOM      6  S   UNL d   1       5.456  -1.393  -1.594  0.00  0.00    -0.155 SA
BRANCH   6   7
ATOM      7  C   UNL d   1       7.157  -2.027  -1.433  0.00  0.00     0.117 C 
BRANCH   7   8
ATOM      8  C   UNL d   1       7.674  -2.586  -2.732  0.00  0.00     0.011 A 
ATOM      9  C   UNL d   1       7.390  -3.920  -3.056  0.00  0.00     0.125 A 
ATOM     10  F   UNL d   1       6.684  -4.676  -2.202  0.00  0.00    -0.205 F 
ATOM     11  C   UNL d   1       7.829  -4.503  -4.243  0.00  0.00     0.043 A 
ATOM     12  C   UNL d   1       8.572  -3.751  -5.147  0.00  0.00     0.005 A 
ATOM     13  C   UNL d   1       8.868  -2.419  -4.852  0.00  0.00     0.024 A 
ATOM     14  C   UNL d   1       8.419  -1.838  -3.658  0.00  0.00     0.044 A 
ATOM     15 CL   UNL d   1       8.834  -0.186  -3.376  0.00  0.00    -0.084 Cl
ENDBRANCH   7   8
ENDBRANCH   6   7
ENDBRANCH   5   6
ENDBRANCH   2   5
BRANCH   1  16
ATOM     16  C   UNL d   1       1.443  -0.294   0.042  0.00  0.00     0.046 A 
ATOM     17  C   UNL d   1       1.089   0.846  -0.709  0.00  0.00    -0.034 A 
ATOM     18  C   UNL d   1      -0.250   1.288  -0.702  0.00  0.00     0.015 A 
ATOM     19  C   UNL d   1       2.022   1.610  -1.611  0.00  0.00     0.050 C 
ATOM     20  C   UNL d   1      -1.247   0.599  -0.009  0.00  0.00    -0.061 A 
ATOM     21  C   UNL d   1      -0.896  -0.547   0.705  0.00  0.00     0.015 A 
ATOM     22  C   UNL d   1      -2.664   1.088  -0.050  0.00  0.00     0.048 C 
ATOM     23  C   UNL d   1       0.436  -0.999   0.749  0.00  0.00    -0.034 A 
ATOM     24  C   UNL d   1       0.727  -2.223   1.576  0.00  0.00     0.050 C 
ENDBRANCH   1  16
TORSDOF 5
