REMARK  2 active torsions:
REMARK  status: ('A' for Active; 'I' for Inactive)
REMARK       I    between atoms: N_2  and  C_1 
REMARK    1  A    between atoms: C_9  and  N_2 
REMARK    2  A    between atoms: C_3  and  C_4 
ROOT
ATOM      1  C   UNL d   1       2.313  -0.774  -5.061  0.00  0.00     0.009 A 
ATOM      2  C   UNL d   1       2.744  -1.403  -3.890  0.00  0.00     0.017 A 
ATOM      3  C   UNL d   1       1.219   0.091  -5.011  0.00  0.00     0.017 A 
ATOM      4  C   UNL d   1       1.005  -0.261  -2.618  0.00  0.00     0.034 A 
ATOM      5  C   UNL d   1       0.574   0.350  -3.797  0.00  0.00     0.030 A 
ATOM      6  C   UNL d   1       2.099  -1.136  -2.673  0.00  0.00     0.030 A 
ENDROOT
BRANCH   4   7
ATOM      7  N   UNL d   1       0.413  -0.017  -1.361  0.00  0.00    -0.328 N 
ATOM      8  C   UNL d   1      -0.780   0.648  -1.132  0.00  0.00     0.218 C 
ATOM      9  O   UNL d   1      -1.588   1.011  -1.980  0.00  0.00    -0.274 OA
ATOM     10  C   UNL d   1      -1.059   0.892   0.330  0.00  0.00     0.117 C 
ATOM     11  H   UNL d   1       0.876  -0.423  -0.558  0.00  0.00     0.169 HD
ENDBRANCH   4   7
BRANCH   1  12
ATOM     12  C   UNL d   1       2.967  -0.989  -6.381  0.00  0.00     0.155 C 
ATOM     13  O   UNL d   1       2.306  -0.862  -7.408  0.00  0.00    -0.293 OA
ATOM     14  C   UNL d   1       4.439  -1.302  -6.446  0.00  0.00     0.096 C 
ENDBRANCH   1  12
TORSDOF 2
