REMARK  1 active torsions:
REMARK  status: ('A' for Active; 'I' for Inactive)
REMARK    1  A    between atoms: C_10  and  N_8 
ROOT
ATOM      1  C   UNL d   1       0.016   0.612   0.027  0.00  0.00     0.077 A 
ATOM      2  C   UNL d   1       0.056  -0.729   0.020  0.00  0.00     0.101 A 
ATOM      3  N   UNL d   1       1.272  -1.379  -0.094  0.00  0.00    -0.293 N 
ATOM      4  N   UNL d   1       2.438   0.675  -0.041  0.00  0.00    -0.270 N 
ATOM      5  C   UNL d   1       2.495  -0.707  -0.120  0.00  0.00     0.332 A 
ATOM      6  C   UNL d   1       1.267   1.396   0.015  0.00  0.00     0.262 A 
ATOM      7  N   UNL d   1      -1.144  -1.423   0.136  0.00  0.00    -0.252 NA
ATOM      8  N   UNL d   1      -2.481   0.623  -0.296  0.00  0.00     0.110 N 
ATOM      9  C   UNL d   1      -1.272   1.401   0.059  0.00  0.00     0.322 C 
ATOM     10  C   UNL d   1      -2.379  -0.682   0.351  0.00  0.00     0.369 C 
ATOM     11  O   UNL d   1       3.569  -1.309  -0.198  0.00  0.00    -0.246 OA
ATOM     12  O   UNL d   1       1.214   2.625   0.077  0.00  0.00    -0.267 OA
ATOM     13  C   UNL d   1       1.360  -2.832  -0.114  0.00  0.00     0.162 C 
ATOM     14  C   UNL d   1       3.703   1.385   0.003  0.00  0.00     0.164 C 
ATOM     15  H   UNL d   1      -1.240  -2.110  -0.605  0.00  0.00     0.130 HD
ENDROOT
BRANCH   8  16
ATOM     16  C   UNL d   1      -3.721   1.353   0.036  0.00  0.00     0.225 A 
ATOM     17  C   UNL d   1      -5.069   0.754  -0.267  0.00  0.00     0.038 A 
ATOM     18  C   UNL d   1      -4.568   1.907  -1.081  0.00  0.00     0.038 A 
ENDBRANCH   8  16
TORSDOF 1
