REMARK  8 active torsions:
REMARK  status: ('A' for Active; 'I' for Inactive)
REMARK    1  A    between atoms: O_5  and  C_1 
REMARK    2  A    between atoms: C_11  and  C_4 
REMARK    3  A    between atoms: C_7  and  O_5 
REMARK    4  A    between atoms: C_14  and  C_6 
REMARK    5  A    between atoms: N_13  and  C_7 
REMARK    6  A    between atoms: C_15  and  C_11 
REMARK    7  A    between atoms: C_24  and  N_13 
REMARK    8  A    between atoms: C_25  and  N_13 
ROOT
ATOM      1  C   UNL d   1       0.834  -1.253  -0.056  0.00  0.00     0.161 A 
ATOM      2  N   UNL d   1       1.721  -0.238   0.051  0.00  0.00    -0.322 N 
ATOM      3  HN  UNL d   1       2.728  -0.382  -0.020  1.00  0.00     0.169 HD
ATOM      4  C   UNL d   1      -0.554  -1.128  -0.019  0.00  0.00     0.019 A 
ATOM      5  C   UNL d   1       1.183   0.973   0.259  0.00  0.00     0.117 A 
ATOM      6  N   UNL d   1      -0.140   1.207   0.327  0.00  0.00    -0.345 N 
ATOM      7  HN  UNL d   1      -0.492   2.150   0.495  1.00  0.00     0.167 HD
ATOM      8  C   UNL d   1      -0.992   0.175   0.171  0.00  0.00     0.018 A 
ATOM      9  C   UNL d   1      -2.437   0.579   0.137  0.00  0.00     0.069 C 
ENDROOT
BRANCH   1  10
ATOM     10  O   UNL d   1       1.367  -2.505  -0.507  0.00  0.00    -0.266 OA
BRANCH  10  11
ATOM     11  C   UNL d   1       2.162  -3.416   0.203  0.00  0.00     0.218 C 
ATOM     12  S   UNL d   1       2.562  -3.193   1.810  0.00  0.00    -0.033 SA
BRANCH  11  13
ATOM     13  N   UNL d   1       2.511  -4.520  -0.577  0.00  0.00    -0.353 N 
BRANCH  13  14
ATOM     14  C   UNL d   1       2.546  -5.889  -0.036  0.00  0.00     0.121 C 
ATOM     15  C   UNL d   1       1.629  -6.840  -0.801  0.00  0.00     0.026 C 
ENDBRANCH  13  14
BRANCH  13  16
ATOM     16  C   UNL d   1       2.886  -4.306  -1.979  0.00  0.00     0.121 C 
ATOM     17  C   UNL d   1       4.266  -4.865  -2.312  0.00  0.00     0.026 C 
ENDBRANCH  13  16
ENDBRANCH  11  13
ENDBRANCH  10  11
ENDBRANCH   1  10
BRANCH   4  18
ATOM     18  C   UNL d   1      -1.497  -2.270  -0.294  0.00  0.00     0.078 C 
BRANCH  18  19
ATOM     19  C   UNL d   1      -1.708  -3.344   0.754  0.00  0.00    -0.089 C 
ATOM     20  C   UNL d   1      -1.127  -3.413   1.962  0.00  0.00     0.014 C 
ATOM     21  C   UNL d   1      -2.702  -4.412   0.367  0.00  0.00     0.043 C 
ENDBRANCH  18  19
ENDBRANCH   4  18
BRANCH   5  22
ATOM     22  C   UNL d   1       2.051   2.170   0.337  0.00  0.00     0.008 A 
ATOM     23  C   UNL d   1       3.447   2.107   0.189  0.00  0.00     0.017 A 
ATOM     24  C   UNL d   1       4.238   3.262   0.246  0.00  0.00     0.025 A 
ATOM     25  C   UNL d   1       3.647   4.509   0.460  0.00  0.00     0.034 A 
ATOM     26  C   UNL d   1       2.271   4.608   0.608  0.00  0.00     0.025 A 
ATOM     27 CL   UNL d   1       4.617   5.926   0.537  0.00  0.00    -0.084 Cl
ATOM     28  C   UNL d   1       1.487   3.452   0.546  0.00  0.00     0.017 A 
ENDBRANCH   5  22
TORSDOF 8
