REMARK  2 active torsions:
REMARK  status: ('A' for Active; 'I' for Inactive)
REMARK       I    between atoms: N_4  and  C_1 
REMARK       I    between atoms: N_5  and  C_1 
REMARK    1  A    between atoms: C_12  and  N_4 
REMARK    2  A    between atoms: C_11  and  N_5 
ROOT
ATOM      1  N   UNL d   1       1.708  -7.528  -1.362  0.00  0.00    -0.191 NA
ATOM      2  C   UNL d   1       1.459  -6.410  -1.175  0.00  0.00     0.099 C 
ATOM      3  C   UNL d   1       1.157  -5.030  -0.932  0.00  0.00     0.044 A 
ATOM      4  C   UNL d   1       0.572  -2.320  -0.432  0.00  0.00     0.036 A 
ATOM      5  C   UNL d   1      -0.129  -4.531  -1.161  0.00  0.00     0.025 A 
ATOM      6  C   UNL d   1       2.147  -4.176  -0.449  0.00  0.00     0.025 A 
ATOM      7  C   UNL d   1       1.852  -2.834  -0.196  0.00  0.00     0.031 A 
ATOM      8  C   UNL d   1      -0.422  -3.184  -0.906  0.00  0.00     0.031 A 
ENDROOT
BRANCH   4   9
ATOM      9  N   UNL d   1       0.229  -0.972  -0.177  0.00  0.00    -0.309 N 
ATOM     10  C   UNL d   1       1.144   0.060  -0.032  0.00  0.00     0.325 C 
ATOM     11  N   UNL d   1       0.546   1.207   0.467  0.00  0.00    -0.309 N 
ATOM     12  O   UNL d   1       2.335  -0.043  -0.296  0.00  0.00    -0.247 OA
ATOM     13  H   UNL d   1      -0.355   1.084   0.903  0.00  0.00     0.170 HD
ATOM     14  H   UNL d   1      -0.729  -0.701  -0.340  0.00  0.00     0.170 HD
BRANCH  11  15
ATOM     15  C   UNL d   1       1.206   2.436   0.708  0.00  0.00     0.036 A 
ATOM     16  C   UNL d   1       2.468   2.743   0.187  0.00  0.00     0.031 A 
ATOM     17  C   UNL d   1       3.101   3.951   0.494  0.00  0.00     0.025 A 
ATOM     18  C   UNL d   1       2.469   4.881   1.317  0.00  0.00     0.044 A 
ATOM     19  C   UNL d   1       3.126   6.113   1.639  0.00  0.00     0.099 C 
ATOM     20  C   UNL d   1       1.195   4.600   1.820  0.00  0.00     0.025 A 
ATOM     21  N   UNL d   1       3.663   7.109   1.897  0.00  0.00    -0.191 NA
ATOM     22  C   UNL d   1       0.566   3.385   1.512  0.00  0.00     0.031 A 
ENDBRANCH  11  15
ENDBRANCH   4   9
TORSDOF 2
