REMARK  7 active torsions:
REMARK  status: ('A' for Active; 'I' for Inactive)
REMARK    1  A    between atoms: C_2  and  C_1 
REMARK    2  A    between atoms: N_3  and  C_1 
REMARK    3  A    between atoms: C_4  and  C_1 
REMARK    4  A    between atoms: N_5  and  C_1 
REMARK       I    between atoms: C_6  and  N_3 
REMARK    5  A    between atoms: O_12  and  C_4 
REMARK    6  A    between atoms: C_13  and  N_5 
REMARK    7  A    between atoms: C_15  and  O_12 
ROOT
ATOM      1  C   UNL d   1       0.667  -0.052   0.039  0.00  0.00     0.416 C 
ENDROOT
BRANCH   1   2
ATOM      2  C   UNL d   1       0.258  -0.233  -1.470  0.00  0.00     0.453 C 
ATOM      3  F   UNL d   1      -1.068  -0.439  -1.649  0.00  0.00    -0.166 F 
ATOM      4  F   UNL d   1       0.613   0.791  -2.277  0.00  0.00    -0.166 F 
ATOM      5  F   UNL d   1       0.863  -1.343  -1.982  0.00  0.00    -0.166 F 
ENDBRANCH   1   2
BRANCH   1   6
ATOM      6  N   UNL d   1      -0.024  -1.012   0.930  0.00  0.00    -0.311 N 
ATOM      7  C   UNL d   1      -1.379  -0.944   1.146  0.00  0.00     0.216 C 
ATOM      8  O   UNL d   1      -2.077  -0.020   0.757  0.00  0.00    -0.274 OA
ATOM      9  C   UNL d   1      -1.916  -2.099   1.945  0.00  0.00     0.117 C 
ATOM     10  H   UNL d   1       0.416  -1.919   0.983  0.00  0.00     0.165 HD
ENDBRANCH   1   6
BRANCH   1  11
ATOM     11  C   UNL d   1       0.376   1.385   0.573  0.00  0.00     0.329 C 
ATOM     12  O   UNL d   1       0.607   1.728   1.734  0.00  0.00    -0.260 OA
BRANCH  11  13
ATOM     13  O   UNL d   1      -0.111   2.221  -0.377  0.00  0.00    -0.318 OA
BRANCH  13  14
ATOM     14  C   UNL d   1      -0.364   3.575   0.025  0.00  0.00     0.174 C 
ATOM     15  C   UNL d   1       0.914   4.385  -0.079  0.00  0.00     0.034 C 
ENDBRANCH  13  14
ENDBRANCH  11  13
ENDBRANCH   1  11
BRANCH   1  16
ATOM     16  N   UNL d   1       2.057  -0.460   0.437  0.00  0.00     0.137 N 
ATOM     17  H   UNL d   1       1.998  -0.512   1.460  0.00  0.00     0.320 HD
BRANCH  16  18
ATOM     18  C   UNL d   1       3.182   0.448   0.157  0.00  0.00     0.224 C 
ATOM     19  C   UNL d   1       3.536   0.681  -1.318  0.00  0.00     0.036 C 
ATOM     20  C   UNL d   1       4.035  -0.573  -2.034  0.00  0.00     0.002 C 
ATOM     21  C   UNL d   1       5.185  -1.248  -1.291  0.00  0.00     0.000 C 
ATOM     22  C   UNL d   1       4.873  -1.465   0.186  0.00  0.00     0.002 C 
ATOM     23  C   UNL d   1       4.419  -0.164   0.853  0.00  0.00     0.036 C 
ENDBRANCH  16  18
ENDBRANCH   1  16
TORSDOF 7
