REMARK  3 active torsions:
REMARK  status: ('A' for Active; 'I' for Inactive)
REMARK    1  A    between atoms: C_10  and  C_5 
REMARK    2  A    between atoms: C_9  and  N_6 
REMARK    3  A    between atoms: C_8  and  C_9 
ROOT
ATOM      1  N   UNL d   1      -0.282  -1.171  -0.140  0.00  0.00    -0.268 N 
ATOM      2  HN  UNL d   1      -0.509  -2.144  -0.346  1.00  0.00     0.190 HD
ATOM      3  N   UNL d   1       0.808   0.774   0.247  0.00  0.00    -0.266 N 
ATOM      4  HN  UNL d   1       1.577   1.428   0.390  1.00  0.00     0.186 HD
ATOM      5  C   UNL d   1       0.915  -0.582   0.030  0.00  0.00     0.144 A 
ATOM      6  N   UNL d   1      -1.099  -0.113   0.037  0.00  0.00    -0.212 N 
ATOM      7  N   UNL d   1      -0.484   1.067   0.237  0.00  0.00    -0.002 NA
ENDROOT
BRANCH   6   8
ATOM      8  C   UNL d   1      -2.542  -0.210  -0.065  0.00  0.00     0.208 C 
BRANCH   8   9
ATOM      9  C   UNL d   1      -3.176  -0.496   1.268  0.00  0.00     0.001 A 
ATOM     10  C   UNL d   1      -3.431  -1.814   1.655  0.00  0.00     0.124 A 
ATOM     11  F   UNL d   1      -3.123  -2.822   0.827  0.00  0.00    -0.205 F 
ATOM     12  C   UNL d   1      -4.016  -2.110   2.883  0.00  0.00     0.043 A 
ATOM     13  C   UNL d   1      -4.354  -1.076   3.753  0.00  0.00     0.003 A 
ATOM     14  C   UNL d   1      -4.096   0.247   3.392  0.00  0.00     0.001 A 
ATOM     15  C   UNL d   1      -3.506   0.537   2.158  0.00  0.00     0.012 A 
ENDBRANCH   8   9
ENDBRANCH   6   8
BRANCH   5  16
ATOM     16  C   UNL d   1       2.195  -1.279   0.004  0.00  0.00     0.010 A 
ATOM     17  C   UNL d   1       3.385  -0.586   0.278  0.00  0.00     0.017 A 
ATOM     18  C   UNL d   1       4.615  -1.252   0.280  0.00  0.00     0.025 A 
ATOM     19  C   UNL d   1       4.664  -2.617   0.003  0.00  0.00     0.034 A 
ATOM     20  C   UNL d   1       3.495  -3.320  -0.279  0.00  0.00     0.025 A 
ATOM     21 CL   UNL d   1       6.175  -3.437   0.015  0.00  0.00    -0.084 Cl
ATOM     22  C   UNL d   1       2.265  -2.652  -0.278  0.00  0.00     0.017 A 
ENDBRANCH   5  16
TORSDOF 3
