REMARK  3 active torsions:
REMARK  status: ('A' for Active; 'I' for Inactive)
REMARK    1  A    between atoms: C_7  and  C_1 
REMARK    2  A    between atoms: C_11  and  N_4 
REMARK    3  A    between atoms: N_6  and  C_7 
ROOT
ATOM      1  N   UNL d   1       0.977  -1.748   1.353  0.00  0.00    -0.378 N 
ATOM      2  N   UNL d   1      -1.536  -3.111   0.502  0.00  0.00     0.095 N 
ATOM      3  C   UNL d   1      -0.332  -1.401   1.951  0.00  0.00     0.153 C 
ATOM      4  C   UNL d   1       0.911  -2.471   0.060  0.00  0.00     0.153 C 
ATOM      5  C   UNL d   1      -0.202  -3.551   0.033  0.00  0.00     0.292 C 
ATOM      6  C   UNL d   1      -1.343  -2.561   1.862  0.00  0.00     0.292 C 
ENDROOT
BRANCH   2   7
ATOM      7  C   UNL d   1      -2.110  -2.133  -0.443  0.00  0.00     0.313 C 
BRANCH   7   8
ATOM      8  C   UNL d   1      -3.486  -1.703  -0.030  0.00  0.00    -0.002 A 
ATOM      9  C   UNL d   1      -4.576  -2.525   0.195  0.00  0.00     0.098 A 
ATOM     10  N   UNL d   1      -5.643  -1.746   0.543  0.00  0.00    -0.365 N 
ATOM     11  C   UNL d   1      -5.287  -0.418   0.538  0.00  0.00     0.043 A 
ATOM     12  H   UNL d   1      -6.566  -2.090   0.768  0.00  0.00     0.165 HD
ATOM     13  C   UNL d   1      -3.938  -0.356   0.181  0.00  0.00    -0.000 A 
ATOM     14  C   UNL d   1      -6.052   0.721   0.817  0.00  0.00     0.030 A 
ATOM     15  C   UNL d   1      -3.328   0.914   0.098  0.00  0.00     0.014 A 
ATOM     16  C   UNL d   1      -4.080   2.064   0.373  0.00  0.00     0.001 A 
ATOM     17  C   UNL d   1      -5.423   1.965   0.727  0.00  0.00     0.002 A 
ENDBRANCH   7   8
ENDBRANCH   2   7
BRANCH   1  18
ATOM     18  C   UNL d   1       2.004  -0.787   1.458  0.00  0.00     0.030 A 
ATOM     19  C   UNL d   1       3.315  -1.085   1.045  0.00  0.00     0.029 A 
ATOM     20  C   UNL d   1       4.362  -0.161   1.168  0.00  0.00     0.002 A 
ATOM     21  C   UNL d   1       4.127   1.092   1.718  0.00  0.00     0.000 A 
ATOM     22  C   UNL d   1       2.847   1.418   2.146  0.00  0.00     0.002 A 
ATOM     23  C   UNL d   1       1.807   0.488   2.021  0.00  0.00     0.029 A 
ENDBRANCH   1  18
TORSDOF 3
