REMARK  6 active torsions:
REMARK  status: ('A' for Active; 'I' for Inactive)
REMARK    1  A    between atoms: N_2  and  C_1 
REMARK    2  A    between atoms: C_3  and  C_6 
REMARK    3  A    between atoms: N_7  and  C_4 
REMARK    4  A    between atoms: C_11  and  N_7 
REMARK    5  A    between atoms: C_17  and  C_11 
REMARK    6  A    between atoms: O_16  and  C_17 
ROOT
ATOM      1  C   UNL d   1       1.330   0.137  -0.724  0.00  0.00     0.130 A 
ATOM      2  C   UNL d   1       0.830  -1.038  -0.141  0.00  0.00     0.062 A 
ATOM      3  C   UNL d   1       0.828   1.420  -0.417  0.00  0.00     0.054 A 
ATOM      4  C   UNL d   1      -0.223   1.567   0.495  0.00  0.00     0.050 A 
ATOM      5  C   UNL d   1      -0.217  -0.853   0.785  0.00  0.00     0.032 A 
ATOM      6  C   UNL d   1      -0.739   0.414   1.095  0.00  0.00     0.018 A 
ENDROOT
BRANCH   2   7
ATOM      7  N   UNL d   1       1.248  -2.342  -0.350  0.00  0.00    -0.377 N 
ATOM      8  H   UNL d   1       0.515  -3.030  -0.179  0.00  0.00     0.160 HD
BRANCH   7   9
ATOM      9  C   UNL d   1       2.604  -2.935  -0.225  0.00  0.00     0.044 C 
ATOM     10  C   UNL d   1       2.442  -4.283   0.522  0.00  0.00     0.040 C 
ATOM     11  C   UNL d   1       3.119  -3.268  -1.635  0.00  0.00     0.040 C 
BRANCH   9  12
ATOM     12  C   UNL d   1       3.615  -2.078   0.577  0.00  0.00     0.194 C 
BRANCH  12  13
ATOM     13  O   UNL d   1       4.916  -2.667   0.584  0.00  0.00    -0.398 OA
ATOM     14  H   UNL d   1       5.550  -1.952   0.772  0.00  0.00     0.209 HD
ENDBRANCH  12  13
ENDBRANCH   9  12
ENDBRANCH   7   9
ENDBRANCH   2   7
BRANCH   1  15
ATOM     15  N   UNL d   1       2.303   0.111  -1.796  0.00  0.00    -0.113 N 
ATOM     16  O   UNL d   1       1.928  -0.330  -2.892  0.00  0.00    -0.532 OA
ATOM     17  O   UNL d   1       3.404   0.628  -1.565  0.00  0.00    -0.532 OA
ENDBRANCH   1  15
BRANCH   4  18
ATOM     18  C   UNL d   1      -0.801   2.926   0.811  0.00  0.00     0.417 C 
ATOM     19  F   UNL d   1      -0.202   3.939   0.127  0.00  0.00    -0.166 F 
ATOM     20  F   UNL d   1      -2.127   3.006   0.516  0.00  0.00    -0.166 F 
ATOM     21  F   UNL d   1      -0.688   3.244   2.129  0.00  0.00    -0.166 F 
ENDBRANCH   4  18
TORSDOF 6
