REMARK  3 active torsions:
REMARK  status: ('A' for Active; 'I' for Inactive)
REMARK    1  A    between atoms: N_3  and  C_1 
REMARK    2  A    between atoms: C_4  and  C_1 
REMARK    3  A    between atoms: C_5  and  C_4 
ROOT
ATOM      1  C   UNL d   1       2.984   0.871  -1.346  0.00  0.00    -0.052 A 
ATOM      2  C   UNL d   1       3.992   2.331  -3.510  0.00  0.00     0.034 A 
ATOM      3 CL   UNL d   1       4.581   3.234  -4.851  0.00  0.00    -0.084 Cl
ATOM      4  C   UNL d   1       3.200   2.253  -1.232  0.00  0.00     0.009 A 
ATOM      5  C   UNL d   1       3.297   0.227  -2.553  0.00  0.00     0.009 A 
ATOM      6  C   UNL d   1       3.702   2.980  -2.312  0.00  0.00     0.024 A 
ATOM      7  C   UNL d   1       3.799   0.956  -3.633  0.00  0.00     0.024 A 
ENDROOT
BRANCH   1   8
ATOM      8  C   UNL d   1       2.369   0.095  -0.198  0.00  0.00     0.108 C 
BRANCH   8   9
ATOM      9  C   UNL d   1       0.835  -0.067  -0.158  0.00  0.00     0.079 C 
ATOM     10  S   UNL d   1      -0.147   0.658  -1.331  0.00  0.00    -0.065 SA
BRANCH   9  11
ATOM     11  N   UNL d   1       0.323  -0.844   0.905  0.00  0.00    -0.384 N 
ATOM     12  C   UNL d   1      -1.111  -1.097   1.087  0.00  0.00     0.149 C 
ATOM     13  C   UNL d   1       1.138  -1.325   2.020  0.00  0.00     0.149 C 
ENDBRANCH   9  11
ENDBRANCH   8   9
ENDBRANCH   1   8
TORSDOF 3
