REMARK  6 active torsions:
REMARK  status: ('A' for Active; 'I' for Inactive)
REMARK    1  A    between atoms: C_3  and  C_1 
REMARK    2  A    between atoms: N_5  and  C_1 
REMARK    3  A    between atoms: C_4  and  C_2 
REMARK       I    between atoms: N_6  and  C_3 
REMARK    4  A    between atoms: C_9  and  C_4 
REMARK    5  A    between atoms: C_10  and  N_5 
REMARK    6  A    between atoms: C_11  and  N_6 
ROOT
ATOM      1  C   UNL d   1       1.065  -0.162   0.023  0.00  0.00     0.085 C 
ATOM      2  C   UNL d   1       0.274  -0.857  -0.814  0.00  0.00     0.085 C 
ENDROOT
BRANCH   1   3
ATOM      3  C   UNL d   1       0.300   0.762   0.959  0.00  0.00     0.267 C 
ATOM      4  N   UNL d   1       1.111   1.449   1.834  0.00  0.00    -0.322 N 
ATOM      5  H   UNL d   1       2.109   1.374   1.653  0.00  0.00     0.169 HD
ATOM      6  O   UNL d   1      -0.924   0.844   0.898  0.00  0.00    -0.266 OA
BRANCH   4   7
ATOM      7  C   UNL d   1       0.693   2.244   2.922  0.00  0.00     0.035 A 
ATOM      8  C   UNL d   1      -0.611   2.221   3.433  0.00  0.00     0.029 A 
ATOM      9  C   UNL d   1      -0.964   3.019   4.526  0.00  0.00     0.002 A 
ATOM     10  C   UNL d   1      -0.021   3.855   5.113  0.00  0.00     0.000 A 
ATOM     11  C   UNL d   1       1.283   3.882   4.617  0.00  0.00     0.002 A 
ATOM     12  C   UNL d   1       1.639   3.070   3.535  0.00  0.00     0.029 A 
ENDBRANCH   4   7
ENDBRANCH   1   3
BRANCH   1  13
ATOM     13  N   UNL d   1       2.441  -0.330   0.208  0.00  0.00    -0.255 NA
ATOM     14  H   UNL d   1       2.638  -1.333   0.050  0.00  0.00     0.134 HD
BRANCH  13  15
ATOM     15  C   UNL d   1       3.412   0.306  -0.634  0.00  0.00     0.012 A 
ATOM     16  C   UNL d   1       3.124   1.388  -1.472  0.00  0.00     0.024 A 
ATOM     17  C   UNL d   1       4.120   1.931  -2.293  0.00  0.00     0.002 A 
ATOM     18  C   UNL d   1       5.419   1.421  -2.257  0.00  0.00     0.000 A 
ATOM     19  C   UNL d   1       5.730   0.381  -1.389  0.00  0.00     0.002 A 
ATOM     20  C   UNL d   1       4.734  -0.166  -0.578  0.00  0.00     0.024 A 
ENDBRANCH  13  15
ENDBRANCH   1  13
BRANCH   2  21
ATOM     21  C   UNL d   1       0.787  -1.946  -1.678  0.00  0.00     0.184 C 
ATOM     22  O   UNL d   1       1.858  -2.501  -1.452  0.00  0.00    -0.288 OA
BRANCH  21  23
ATOM     23  C   UNL d   1      -0.113  -2.423  -2.759  0.00  0.00     0.014 A 
ATOM     24  C   UNL d   1      -0.946  -1.548  -3.471  0.00  0.00     0.015 A 
ATOM     25  C   UNL d   1      -1.810  -2.050  -4.447  0.00  0.00     0.001 A 
ATOM     26  C   UNL d   1      -1.840  -3.418  -4.717  0.00  0.00     0.000 A 
ATOM     27  C   UNL d   1      -0.997  -4.287  -4.024  0.00  0.00     0.001 A 
ATOM     28  C   UNL d   1      -0.127  -3.791  -3.053  0.00  0.00     0.015 A 
ENDBRANCH  21  23
ENDBRANCH   2  21
TORSDOF 6
