REMARK  4 active torsions:
REMARK  status: ('A' for Active; 'I' for Inactive)
REMARK       I    between atoms: N_9  and  C1_1 
REMARK    1  A    between atoms: C4_3  and  C1_1 
REMARK    2  A    between atoms: CA_11  and  N_9 
REMARK    3  A    between atoms: C_10  and  CA_11 
REMARK    4  A    between atoms: OXT_13  and  C_10 
ROOT
ATOM      1  C1  <1> d   1       1.145  -0.025  -0.388  0.00  0.00     0.252 C 
ATOM      2  O1  <1> d   1       0.486   0.994  -0.571  0.00  0.00    -0.268 OA
ATOM      3  N   ALA d   1       0.565  -1.233  -0.045  0.00  0.00    -0.343 N 
ATOM      4  H   ALA d   1       1.155  -1.909   0.430  0.00  0.00     0.163 HD
ENDROOT
BRANCH   1   5
ATOM      5  C4  <1> d   1       2.631  -0.004  -0.540  0.00  0.00     0.032 A 
ATOM      6  C6  <1> d   1       3.374  -1.171  -0.769  0.00  0.00     0.017 A 
ATOM      7  C8  <1> d   1       4.753  -1.097  -0.987  0.00  0.00     0.001 A 
ATOM      8  C10 <1> d   1       5.399   0.138  -0.981  0.00  0.00     0.000 A 
ATOM      9  C9  <1> d   1       4.672   1.303  -0.746  0.00  0.00     0.001 A 
ATOM     10  C7  <1> d   1       3.292   1.234  -0.526  0.00  0.00     0.017 A 
ENDBRANCH   1   5
BRANCH   3  11
ATOM     11  CA  ALA d   1      -0.882  -1.329   0.218  0.00  0.00     0.178 C 
ATOM     12  CB  ALA d   1      -1.221  -0.927   1.645  0.00  0.00     0.043 C 
BRANCH  11  13
ATOM     13  C   ALA d   1      -1.354  -2.760  -0.084  0.00  0.00     0.163 C 
ATOM     14  O   ALA d   1      -2.334  -3.301   0.401  0.00  0.00    -0.648 OA
BRANCH  13  15
ATOM     15  OXT ALA d   1      -0.598  -3.355  -1.045  0.00  0.00    -0.775 OA
ATOM     16  HXT ALA d   1       0.051  -2.709  -1.396  0.00  0.00     0.167 HD
ENDBRANCH  13  15
ENDBRANCH  11  13
ENDBRANCH   3  11
TORSDOF 4
