REMARK  0 active torsions:
REMARK  status: ('A' for Active; 'I' for Inactive)
ROOT
ATOM      1  C   UNL d   1       1.279  -1.482   0.012  0.00  0.00     0.117 A 
ATOM      2  C   UNL d   1      -0.029  -0.760   0.019  0.00  0.00     0.073 A 
ATOM      3  N   UNL d   1       2.404  -0.668  -0.030  0.00  0.00    -0.333 N 
ATOM      4  N   UNL d   1       1.209   1.394   0.001  0.00  0.00    -0.351 N 
ATOM      5  HN  UNL d   1       1.212   2.414   0.015  1.00  0.00     0.166 HD
ATOM      6  C   UNL d   1       2.304   0.705  -0.018  0.00  0.00     0.184 A 
ATOM      7  C   UNL d   1       0.009   0.647   0.002  0.00  0.00     0.050 A 
ATOM      8  N   UNL d   1       1.355  -2.779   0.037  0.00  0.00    -0.384 N 
ATOM      9  HN  UNL d   1       2.229  -3.304   0.029  1.00  0.00     0.157 HD
ATOM     10  C   UNL d   1      -1.258  -1.420   0.018  0.00  0.00     0.132 A 
ATOM     11  F   UNL d   1      -1.318  -2.760   0.038  0.00  0.00    -0.205 F 
ATOM     12  C   UNL d   1       3.733  -1.260  -0.128  0.00  0.00     0.158 C 
ATOM     13  C   UNL d   1      -1.197   1.357  -0.024  0.00  0.00     0.030 A 
ATOM     14  C   UNL d   1      -2.423   0.687  -0.036  0.00  0.00     0.005 A 
ATOM     15  C   UNL d   1      -2.452  -0.705  -0.011  0.00  0.00     0.043 A 
ATOM     16  H   UNL d   1       0.421  -3.208   0.066  0.00  0.00     0.157 HD
ENDROOT
TORSDOF 0
