REMARK  4 active torsions:
REMARK  status: ('A' for Active; 'I' for Inactive)
REMARK    1  A    between atoms: C_7  and  C_3 
REMARK    2  A    between atoms: C_8  and  C_4 
REMARK    3  A    between atoms: O_22  and  C_14 
REMARK    4  A    between atoms: O_23  and  C_15 
ROOT
ATOM      1  N   UNL d   1       0.648   1.173  -0.095  0.00  0.00     0.103 N 
ATOM      2  C   UNL d   1      -0.767  -1.340  -0.137  0.00  0.00     0.139 C 
ATOM      3  C   UNL d   1       1.313  -0.052   0.386  0.00  0.00     0.265 C 
ATOM      4  C   UNL d   1      -0.802   1.173   0.140  0.00  0.00     0.265 C 
ATOM      5  C   UNL d   1       0.738  -1.295  -0.322  0.00  0.00     0.089 C 
ATOM      6  C   UNL d   1      -1.533  -0.060  -0.445  0.00  0.00     0.089 C 
ATOM      7  O   UNL d   1      -1.349  -2.391   0.139  0.00  0.00    -0.297 OA
ATOM      8  C   UNL d   1      -2.964  -0.155   0.099  0.00  0.00     0.020 C 
ATOM      9  C   UNL d   1       1.422  -2.598   0.096  0.00  0.00     0.020 C 
ATOM     10  H   UNL d   1       0.835   1.292  -1.089  0.00  0.00     0.317 HD
ENDROOT
BRANCH   3  11
ATOM     11  C   UNL d   1       1.401  -0.104   1.913  0.00  0.00    -0.024 A 
ATOM     12  C   UNL d   1       0.388  -0.642   2.721  0.00  0.00     0.012 A 
ATOM     13  C   UNL d   1       0.505  -0.688   4.113  0.00  0.00     0.037 A 
ATOM     14  C   UNL d   1       1.643  -0.196   4.736  0.00  0.00     0.068 A 
ATOM     15  C   UNL d   1       2.659   0.352   3.955  0.00  0.00     0.037 A 
ATOM     16  C   UNL d   1       2.537   0.408   2.559  0.00  0.00     0.012 A 
BRANCH  14  17
ATOM     17  O   UNL d   1       1.870  -0.194   6.086  0.00  0.00    -0.356 OA
ATOM     18  C   UNL d   1       0.834  -0.737   6.901  0.00  0.00     0.210 C 
ENDBRANCH  14  17
ENDBRANCH   3  11
BRANCH   4  19
ATOM     19  C   UNL d   1      -1.443   2.459  -0.382  0.00  0.00    -0.024 A 
ATOM     20  C   UNL d   1      -1.428   2.804  -1.743  0.00  0.00     0.012 A 
ATOM     21  C   UNL d   1      -2.160   3.901  -2.215  0.00  0.00     0.037 A 
ATOM     22  C   UNL d   1      -2.916   4.675  -1.335  0.00  0.00     0.068 A 
ATOM     23  C   UNL d   1      -2.902   4.363   0.025  0.00  0.00     0.037 A 
ATOM     24  C   UNL d   1      -2.170   3.273   0.500  0.00  0.00     0.012 A 
BRANCH  22  25
ATOM     25  O   UNL d   1      -3.703   5.742  -1.668  0.00  0.00    -0.356 OA
ATOM     26  C   UNL d   1      -3.832   6.039  -3.052  0.00  0.00     0.210 C 
ENDBRANCH  22  25
ENDBRANCH   4  19
TORSDOF 4
