REMARK  2 active torsions:
REMARK  status: ('A' for Active; 'I' for Inactive)
REMARK    1  A    between atoms: C_5  and  N_1 
REMARK    2  A    between atoms: C_9  and  C_5 
ROOT
ATOM      1  N   UNL d   1       1.022  -1.035   0.008  0.00  0.00    -0.309 N 
ATOM      2  C   UNL d   1       2.049  -0.114  -0.149  0.00  0.00     0.248 C 
ATOM      3  C   UNL d   1      -0.333  -0.594   0.016  0.00  0.00     0.071 A 
ATOM      4  O   UNL d   1       0.347   1.752   0.091  0.00  0.00    -0.340 OA
ATOM      5  C   UNL d   1      -0.613   0.780   0.040  0.00  0.00     0.096 A 
ATOM      6  C   UNL d   1       1.602   1.323  -0.395  0.00  0.00     0.279 C 
ATOM      7  O   UNL d   1       3.243  -0.413  -0.172  0.00  0.00    -0.271 OA
ATOM      8  C   UNL d   1      -1.416  -1.485   0.021  0.00  0.00     0.033 A 
ATOM      9  C   UNL d   1      -1.930   1.247   0.076  0.00  0.00     0.039 A 
ATOM     10  C   UNL d   1      -2.735  -1.018   0.033  0.00  0.00     0.002 A 
ATOM     11  C   UNL d   1      -2.992   0.348   0.062  0.00  0.00     0.003 A 
ENDROOT
BRANCH   1  12
ATOM     12  C   UNL d   1       1.373  -2.443   0.179  0.00  0.00     0.171 C 
BRANCH  12  13
ATOM     13  C   UNL d   1       1.149  -3.312  -1.044  0.00  0.00    -0.040 A 
ATOM     14  C   UNL d   1       1.403  -2.844  -2.341  0.00  0.00     0.009 A 
ATOM     15  C   UNL d   1       1.194  -3.672  -3.448  0.00  0.00     0.001 A 
ATOM     16  C   UNL d   1       0.750  -4.980  -3.269  0.00  0.00     0.000 A 
ATOM     17  C   UNL d   1       0.523  -5.467  -1.984  0.00  0.00     0.001 A 
ATOM     18  C   UNL d   1       0.729  -4.641  -0.878  0.00  0.00     0.009 A 
ENDBRANCH  12  13
ENDBRANCH   1  12
TORSDOF 2
