REMARK  3 active torsions:
REMARK  status: ('A' for Active; 'I' for Inactive)
REMARK    1  A    between atoms: C_7  and  C_1 
REMARK    2  A    between atoms: C_14  and  C_6 
REMARK    3  A    between atoms: S_19  and  C_16 
ROOT
ATOM      1  C   UNL d   1      -2.425  -0.019   0.029  0.00  0.00     0.103 A 
ATOM      2  N   UNL d   1      -0.345   0.648  -0.082  0.00  0.00    -0.314 N 
ATOM      3  N   UNL d   1      -1.652  -1.150   0.145  0.00  0.00    -0.336 N 
ATOM      4  HN  UNL d   1      -1.976  -2.109   0.273  1.00  0.00     0.168 HD
ATOM      5  C   UNL d   1      -0.401  -0.737   0.055  0.00  0.00     0.134 A 
ATOM      6  C   UNL d   1       2.026   0.738  -0.031  0.00  0.00     0.065 A 
ATOM      7  C   UNL d   1      -1.638   1.099  -0.142  0.00  0.00     0.132 A 
ATOM      8  C   UNL d   1       0.840   1.377  -0.115  0.00  0.00     0.114 A 
ATOM      9  C   UNL d   1       0.847  -1.421   0.093  0.00  0.00     0.079 A 
ATOM     10  C   UNL d   1       2.003  -0.727   0.055  0.00  0.00     0.045 A 
ATOM     11 CL   UNL d   1       0.852  -3.141   0.176  0.00  0.00    -0.080 Cl
ENDROOT
BRANCH   1  12
ATOM     12  C   UNL d   1      -3.912  -0.017   0.117  0.00  0.00     0.193 A 
ATOM     13  O   UNL d   1      -4.660  -1.124   0.433  0.00  0.00    -0.266 OA
ATOM     14  C   UNL d   1      -5.929  -0.623   0.452  0.00  0.00     0.201 A 
ATOM     15  N   UNL d   1      -5.973   0.656   0.146  0.00  0.00    -0.272 N 
ATOM     16  N   UNL d   1      -4.667   1.054  -0.060  0.00  0.00    -0.275 N 
ATOM     17  HN  UNL d   1      -6.807   1.239   0.076  1.00  0.00     0.189 HD
ATOM     18  HN  UNL d   1      -4.347   1.991  -0.303  1.00  0.00     0.189 HD
BRANCH  14  19
ATOM     19  S   UNL d   1      -7.308  -1.576   0.887  0.00  0.00    -0.098 SA
ATOM     20  H   UNL d   1      -6.626  -2.586   1.441  0.00  0.00     0.110 HD
ENDBRANCH  14  19
ENDBRANCH   1  12
BRANCH   6  21
ATOM     21  C   UNL d   1       3.344   1.462  -0.017  0.00  0.00     0.418 C 
ATOM     22  F   UNL d   1       4.408   0.624   0.058  0.00  0.00    -0.166 F 
ATOM     23  F   UNL d   1       3.508   2.213  -1.134  0.00  0.00    -0.166 F 
ATOM     24  F   UNL d   1       3.431   2.305   1.042  0.00  0.00    -0.166 F 
ENDBRANCH   6  21
TORSDOF 3
