REMARK  1 active torsions:
REMARK  status: ('A' for Active; 'I' for Inactive)
REMARK    1  A    between atoms: N_4  and  C_1 
ROOT
ATOM      1  C   UNL d   1      -0.694   1.245   0.007  0.00  0.00     0.073 A 
ATOM      2  C   UNL d   1      -1.399   0.023  -0.081  0.00  0.00     0.042 A 
ATOM      3  C   UNL d   1       0.716   1.205   0.096  0.00  0.00     0.042 A 
ATOM      4  C   UNL d   1      -0.707  -1.195  -0.066  0.00  0.00     0.063 A 
ATOM      5  C   UNL d   1       1.393  -0.022   0.086  0.00  0.00     0.063 A 
ATOM      6  C   UNL d   1       0.675  -1.204   0.011  0.00  0.00     0.119 A 
ATOM      7 BR   UNL d   1       1.832   2.722   0.408  0.00  0.00    -0.049 Br
ATOM      8 BR   UNL d   1      -3.274  -0.135  -0.393  0.00  0.00    -0.049 Br
ATOM      9  F   UNL d   1       1.330  -2.373   0.014  0.00  0.00    -0.206 F 
ENDROOT
BRANCH   1  10
ATOM     10  N   UNL d   1      -1.386   2.488   0.005  0.00  0.00    -0.330 N 
ATOM     11  C   UNL d   1      -2.496   2.811   0.765  0.00  0.00     0.097 A 
ATOM     12  C   UNL d   1      -2.880   4.103   0.479  0.00  0.00     0.019 A 
ATOM     13  C   UNL d   1      -1.975   4.605  -0.478  0.00  0.00     0.019 A 
ATOM     14  C   UNL d   1      -1.080   3.596  -0.760  0.00  0.00     0.097 A 
ENDBRANCH   1  10
TORSDOF 1
