REMARK  3 active torsions:
REMARK  status: ('A' for Active; 'I' for Inactive)
REMARK    1  A    between atoms: C_7  and  C_1 
REMARK    2  A    between atoms: C_8  and  C_4 
REMARK    3  A    between atoms: S_9  and  C_5 
REMARK       I    between atoms: N_11  and  C_7 
ROOT
ATOM      1  C   UNL d   1       1.506  -0.806   0.047  0.00  0.00     0.095 A 
ATOM      2  N   UNL d   1       0.125   1.018   0.070  0.00  0.00    -0.296 N 
ATOM      3  HN  UNL d   1      -0.230   1.972   0.139  1.00  0.00     0.187 HD
ATOM      4  C   UNL d   1       1.406   0.627   0.004  0.00  0.00     0.077 A 
ATOM      5  C   UNL d   1       0.188  -1.247   0.028  0.00  0.00     0.104 A 
ATOM      6  N   UNL d   1      -0.590  -0.119   0.027  0.00  0.00    -0.289 N 
ATOM      7  C   UNL d   1      -2.027   0.020  -0.042  0.00  0.00     0.178 C 
ENDROOT
BRANCH   4   8
ATOM      8  C   UNL d   1       2.461   1.644  -0.117  0.00  0.00    -0.007 A 
ATOM      9  C   UNL d   1       2.308   2.891   0.508  0.00  0.00     0.014 A 
ATOM     10  C   UNL d   1       3.311   3.860   0.428  0.00  0.00     0.001 A 
ATOM     11  C   UNL d   1       4.484   3.591  -0.273  0.00  0.00     0.000 A 
ATOM     12  C   UNL d   1       4.640   2.370  -0.923  0.00  0.00     0.001 A 
ATOM     13  C   UNL d   1       3.623   1.413  -0.868  0.00  0.00     0.014 A 
ENDBRANCH   4   8
BRANCH   1  14
ATOM     14  C   UNL d   1       2.691  -1.644   0.038  0.00  0.00     0.254 C 
ATOM     15  O   UNL d   1       2.772  -2.716  -0.548  0.00  0.00    -0.268 OA
ATOM     16  N   UNL d   1       3.764  -1.186   0.751  0.00  0.00    -0.366 N 
ATOM     17  H   UNL d   1       3.783  -0.285   1.209  0.00  0.00     0.159 HD
ATOM     18  H   UNL d   1       4.624  -1.711   0.677  0.00  0.00     0.159 HD
ENDBRANCH   1  14
BRANCH   5  19
ATOM     19  S   UNL d   1      -0.528  -2.834  -0.081  0.00  0.00    -0.114 SA
ATOM     20  C   UNL d   1       0.195  -3.727   1.312  0.00  0.00     0.097 C 
ENDBRANCH   5  19
TORSDOF 3
