REMARK  2 active torsions:
REMARK  status: ('A' for Active; 'I' for Inactive)
REMARK    1  A    between atoms: N_2  and  C_1 
REMARK    2  A    between atoms: C_8  and  C_3 
ROOT
ATOM      1  C   UNL d   1       1.851  -0.059  -0.437  0.00  0.00     0.183 C 
ATOM      2  C   UNL d   1       1.108   1.231  -0.084  0.00  0.00     0.146 C 
ATOM      3  N   UNL d   1      -0.343   1.093  -0.032  0.00  0.00    -0.350 N 
ATOM      4  C   UNL d   1      -1.017  -0.058   0.246  0.00  0.00     0.218 C 
ATOM      5  C   UNL d   1       1.234  -1.246   0.304  0.00  0.00     0.043 C 
ATOM      6  O   UNL d   1      -2.210  -0.018   0.536  0.00  0.00    -0.274 OA
ATOM      7  C   UNL d   1      -0.271  -1.364   0.085  0.00  0.00     0.105 C 
ATOM      8  H   UNL d   1      -0.897   1.925   0.143  0.00  0.00     0.163 HD
ENDROOT
BRANCH   2   9
ATOM      9  C   UNL d   1       1.569   2.493  -0.800  0.00  0.00    -0.033 A 
ATOM     10  C   UNL d   1       0.714   3.234  -1.630  0.00  0.00     0.010 A 
ATOM     11  C   UNL d   1       1.122   4.455  -2.175  0.00  0.00     0.007 A 
ATOM     12  C   UNL d   1       2.403   4.953  -1.923  0.00  0.00    -0.062 A 
ATOM     13  C   UNL d   1       3.287   4.187  -1.159  0.00  0.00     0.007 A 
ATOM     14  C   UNL d   1       2.807   6.288  -2.473  0.00  0.00     0.048 C 
ATOM     15  C   UNL d   1       2.873   2.974  -0.598  0.00  0.00     0.010 A 
ENDBRANCH   2   9
BRANCH   1  16
ATOM     16  N   UNL d   1       1.845  -0.341  -1.917  0.00  0.00    -0.148 N 
ATOM     17  O   UNL d   1       0.832  -0.083  -2.573  0.00  0.00    -0.536 OA
ATOM     18  O   UNL d   1       2.864  -0.886  -2.367  0.00  0.00    -0.536 OA
ENDBRANCH   1  16
TORSDOF 2
