REMARK  4 active torsions:
REMARK  status: ('A' for Active; 'I' for Inactive)
REMARK    1  A    between atoms: C_6  and  C_3 
REMARK    2  A    between atoms: C_7  and  C_6 
REMARK    3  A    between atoms: O_11  and  C_7 
REMARK    4  A    between atoms: C_12  and  O_11 
ROOT
ATOM      1  N   UNL d   1       0.286  -0.578   1.213  0.00  0.00    -0.324 N 
ATOM      2  HN  UNL d   1       0.421  -0.941   2.157  1.00  0.00     0.169 HD
ATOM      3  C   UNL d   1       0.761  -1.141   0.153  0.00  0.00     0.058 A 
ATOM      4  C   UNL d   1      -0.423   0.569   0.927  0.00  0.00     0.232 A 
ATOM      5  S   UNL d   1       0.408  -0.399  -1.385  0.00  0.00    -0.107 SA
ATOM      6  O   UNL d   1      -0.984   1.245   1.780  0.00  0.00    -0.272 OA
ATOM      7  C   UNL d   1      -0.465   0.940  -0.541  0.00  0.00     0.183 A 
ENDROOT
BRANCH   3   8
ATOM      8  C   UNL d   1       1.564  -2.396   0.184  0.00  0.00     0.175 C 
BRANCH   8   9
ATOM      9  C   UNL d   1       3.042  -2.144   0.142  0.00  0.00     0.264 C 
ATOM     10  O   UNL d   1       3.571  -1.048   0.056  0.00  0.00    -0.265 OA
BRANCH   9  11
ATOM     11  O   UNL d   1       3.695  -3.342   0.124  0.00  0.00    -0.322 OA
BRANCH  11  12
ATOM     12  C   UNL d   1       5.072  -3.288  -0.274  0.00  0.00     0.174 C 
ATOM     13  C   UNL d   1       5.128  -3.386  -1.788  0.00  0.00     0.034 C 
ENDBRANCH  11  12
ENDBRANCH   9  11
ENDBRANCH   8   9
ENDBRANCH   3   8
TORSDOF 4
