REMARK  4 active torsions:
REMARK  status: ('A' for Active; 'I' for Inactive)
REMARK    1  A    between atoms: N_5  and  C_1 
REMARK    2  A    between atoms: C_6  and  N_2 
REMARK    3  A    between atoms: C_8  and  N_5 
REMARK    4  A    between atoms: C_10  and  C_6 
ROOT
ATOM      1  N   UNL d   1       2.605   3.489   0.492  0.00  0.00    -0.195 NA
ATOM      2  C   UNL d   1       1.948   2.722   1.068  0.00  0.00     0.089 C 
ATOM      3  C   UNL d   1       1.067   1.742   1.754  0.00  0.00     0.225 C 
ENDROOT
BRANCH   3   4
ATOM      4  N   UNL d   1       0.402   0.875   0.776  0.00  0.00    -0.346 N 
ATOM      5  C   UNL d   1       0.951  -0.116   0.017  0.00  0.00     0.173 C 
ATOM      6  S   UNL d   1       2.361  -0.932   0.365  0.00  0.00    -0.041 SA
ATOM      7  H   UNL d   1      -0.581   1.052   0.619  0.00  0.00     0.163 HD
BRANCH   5   8
ATOM      8  N   UNL d   1       0.210  -0.491  -1.075  0.00  0.00    -0.333 N 
ATOM      9  H   UNL d   1       0.432  -1.411  -1.446  0.00  0.00     0.168 HD
BRANCH   8  10
ATOM     10  C   UNL d   1      -0.688   0.293  -1.832  0.00  0.00     0.035 A 
ATOM     11  C   UNL d   1      -0.637   1.692  -1.851  0.00  0.00     0.053 A 
ATOM     12  C   UNL d   1      -1.563   2.420  -2.593  0.00  0.00     0.036 A 
ATOM     13 CL   UNL d   1      -1.500   4.140  -2.579  0.00  0.00    -0.084 Cl
ATOM     14  C   UNL d   1      -2.535   1.767  -3.342  0.00  0.00     0.024 A 
ATOM     15  C   UNL d   1      -2.563   0.372  -3.366  0.00  0.00     0.004 A 
ATOM     16  C   UNL d   1      -1.631  -0.362  -2.626  0.00  0.00     0.029 A 
ENDBRANCH   8  10
ENDBRANCH   5   8
ENDBRANCH   3   4
BRANCH   3  17
ATOM     17  C   UNL d   1       0.006   2.446   2.591  0.00  0.00    -0.022 A 
ATOM     18  C   UNL d   1      -0.928   3.323   2.003  0.00  0.00     0.010 A 
ATOM     19  C   UNL d   1      -1.910   3.943   2.777  0.00  0.00     0.001 A 
ATOM     20  C   UNL d   1      -1.970   3.702   4.147  0.00  0.00     0.000 A 
ATOM     21  C   UNL d   1      -1.053   2.839   4.744  0.00  0.00     0.001 A 
ATOM     22  C   UNL d   1      -0.073   2.212   3.972  0.00  0.00     0.010 A 
ENDBRANCH   3  17
TORSDOF 4
