REMARK  4 active torsions:
REMARK  status: ('A' for Active; 'I' for Inactive)
REMARK    1  A    between atoms: C_2  and  S_1 
REMARK    2  A    between atoms: N_6  and  S_1 
REMARK    3  A    between atoms: C_14  and  C_17 
REMARK    4  A    between atoms: C_18  and  C_14 
ROOT
ATOM      1  N   UNL d   1       0.570   1.210  -1.025  0.00  0.00    -0.206 NA
ATOM      2  C   UNL d   1       0.715   2.551  -0.384  0.00  0.00     0.108 C 
ATOM      3  C   UNL d   1       1.196   1.112  -2.383  0.00  0.00     0.108 C 
ATOM      4  C   UNL d   1       0.306   3.678  -1.328  0.00  0.00     0.020 C 
ATOM      5  C   UNL d   1       0.811   2.276  -3.293  0.00  0.00     0.020 C 
ATOM      6  C   UNL d   1       1.086   3.642  -2.648  0.00  0.00    -0.008 C 
ENDROOT
BRANCH   1   7
ATOM      7  S   UNL d   1       1.135  -0.078  -0.022  0.00  0.00     0.250 S 
ATOM      8  O   UNL d   1       0.966  -1.324  -0.737  0.00  0.00    -0.205 OA
ATOM      9  O   UNL d   1       2.434   0.312   0.490  0.00  0.00    -0.205 OA
BRANCH   7  10
ATOM     10  C   UNL d   1       0.118  -0.225   1.426  0.00  0.00     0.118 A 
ATOM     11  S   UNL d   1      -1.490  -0.765   1.182  0.00  0.00    -0.064 SA
ATOM     12  C   UNL d   1      -1.771  -0.847   2.853  0.00  0.00     0.093 A 
ATOM     13 CL   UNL d   1      -3.281  -1.443   3.418  0.00  0.00    -0.075 Cl
ATOM     14  C   UNL d   1      -0.701  -0.413   3.589  0.00  0.00     0.041 A 
ATOM     15  C   UNL d   1       0.394  -0.036   2.772  0.00  0.00     0.053 A 
ATOM     16 BR   UNL d   1      -0.586  -0.329   5.471  0.00  0.00    -0.049 Br
ENDBRANCH   7  10
ENDBRANCH   1   7
BRANCH   6  17
ATOM     17  C   UNL d   1       2.608   3.881  -2.501  0.00  0.00     0.043 C 
BRANCH  17  18
ATOM     18  C   UNL d   1       3.013   5.209  -1.907  0.00  0.00    -0.058 A 
ATOM     19  C   UNL d   1       3.712   5.252  -0.690  0.00  0.00     0.007 A 
ATOM     20  C   UNL d   1       4.154   6.467  -0.165  0.00  0.00     0.001 A 
ATOM     21  C   UNL d   1       3.904   7.654  -0.850  0.00  0.00     0.000 A 
ATOM     22  C   UNL d   1       3.208   7.625  -2.057  0.00  0.00     0.001 A 
ATOM     23  C   UNL d   1       2.764   6.409  -2.583  0.00  0.00     0.007 A 
ENDBRANCH  17  18
ENDBRANCH   6  17
TORSDOF 4
