REMARK  1 active torsions:
REMARK  status: ('A' for Active; 'I' for Inactive)
REMARK    1  A    between atoms: C_4  and  C_1 
REMARK       I    between atoms: N_8  and  C_4 
ROOT
ATOM      1  C   UNL d   1      -1.577  -1.218   0.035  0.00  0.00     0.039 A 
ATOM      2  C   UNL d   1      -2.384  -0.138   0.038  0.00  0.00    -0.004 A 
ATOM      3  C   UNL d   1      -0.193  -0.736   0.013  0.00  0.00    -0.014 A 
ATOM      4  C   UNL d   1      -0.218   0.670  -0.014  0.00  0.00    -0.043 A 
ATOM      5  C   UNL d   1      -1.632   1.161   0.004  0.00  0.00     0.067 A 
ATOM      6  C   UNL d   1       1.026  -1.396   0.052  0.00  0.00     0.013 A 
ATOM      7  C   UNL d   1       0.943   1.429  -0.027  0.00  0.00     0.008 A 
ATOM      8  C   UNL d   1       2.206  -0.641   0.028  0.00  0.00     0.001 A 
ATOM      9  C   UNL d   1       2.165   0.760  -0.013  0.00  0.00     0.001 A 
ENDROOT
BRANCH   1  10
ATOM     10  C   UNL d   1      -2.143  -2.584   0.069  0.00  0.00     0.249 C 
ATOM     11  O   UNL d   1      -3.297  -2.813   0.419  0.00  0.00    -0.268 OA
ATOM     12  N   UNL d   1      -1.347  -3.594  -0.365  0.00  0.00    -0.366 N 
ATOM     13  H   UNL d   1      -0.506  -3.426  -0.894  0.00  0.00     0.159 HD
ATOM     14  H   UNL d   1      -1.780  -4.504  -0.434  0.00  0.00     0.159 HD
ENDBRANCH   1  10
TORSDOF 1
