REMARK  5 active torsions:
REMARK  status: ('A' for Active; 'I' for Inactive)
REMARK    1  A    between atoms: N_3  and  C_1 
REMARK    2  A    between atoms: N_9  and  C_2 
REMARK    3  A    between atoms: C_12  and  N_9 
REMARK    4  A    between atoms: C_13  and  C_10 
REMARK    5  A    between atoms: C_11  and  C_12 
ROOT
ATOM      1  C   UNL d   1       0.841   1.212   0.118  0.00  0.00     0.146 C 
ATOM      2  C   UNL d   1      -0.510   1.304   0.016  0.00  0.00     0.127 C 
ATOM      3  C   UNL d   1       1.477  -0.082   0.122  0.00  0.00     0.120 C 
ATOM      4  C   UNL d   1      -1.349   0.136  -0.047  0.00  0.00     0.114 C 
ATOM      5  N   UNL d   1       2.017  -1.106   0.157  0.00  0.00    -0.190 NA
ATOM      6  N   UNL d   1      -2.060  -0.783  -0.101  0.00  0.00    -0.190 NA
ENDROOT
BRANCH   1   7
ATOM      7  N   UNL d   1       1.591   2.377   0.173  0.00  0.00    -0.355 N 
ATOM      8  C   UNL d   1       2.643   2.414   0.925  0.00  0.00     0.100 C 
ATOM      9  HN  UNL d   1       1.317   3.195  -0.372  1.00  0.00     0.166 HD
BRANCH   8  10
ATOM     10  C   UNL d   1       3.436   3.657   1.041  0.00  0.00    -0.019 A 
ATOM     11  C   UNL d   1       2.991   4.833   0.427  0.00  0.00     0.036 A 
ATOM     12  C   UNL d   1       3.750   5.994   0.543  0.00  0.00     0.034 A 
ATOM     13 CL   UNL d   1       3.211   7.444  -0.210  0.00  0.00    -0.084 Cl
ATOM     14  C   UNL d   1       4.943   5.991   1.266  0.00  0.00     0.024 A 
ATOM     15  C   UNL d   1       5.380   4.817   1.884  0.00  0.00     0.003 A 
ATOM     16  C   UNL d   1       4.625   3.647   1.776  0.00  0.00     0.013 A 
ENDBRANCH   8  10
ENDBRANCH   1   7
BRANCH   2  17
ATOM     17  N   UNL d   1      -1.224   2.521   0.016  0.00  0.00    -0.281 NA
ATOM     18  H   UNL d   1      -2.044   2.429   0.613  0.00  0.00     0.128 HD
BRANCH  17  19
ATOM     19  C   UNL d   1      -1.596   3.155  -1.260  0.00  0.00     0.101 C 
BRANCH  19  20
ATOM     20  C   UNL d   1      -2.496   4.401  -1.046  0.00  0.00    -0.039 C 
ATOM     21  C   UNL d   1      -1.774   5.450  -0.184  0.00  0.00     0.015 C 
ATOM     22  C   UNL d   1      -2.815   5.028  -2.417  0.00  0.00     0.015 C 
ATOM     23  C   UNL d   1      -3.831   4.012  -0.382  0.00  0.00     0.015 C 
ENDBRANCH  19  20
ENDBRANCH  17  19
ENDBRANCH   2  17
TORSDOF 5
