REMARK  4 active torsions:
REMARK  status: ('A' for Active; 'I' for Inactive)
REMARK       I    between atoms: N_2  and  C_1 
REMARK    1  A    between atoms: C_3  and  C_1 
REMARK       I    between atoms: C_4  and  N_2 
REMARK    2  A    between atoms: O_10  and  C_4 
REMARK    3  A    between atoms: C_5  and  C_6 
REMARK    4  A    between atoms: C_17  and  O_10 
ROOT
ATOM      1  C   UNL d   1       0.832   0.007  -0.421  0.00  0.00     0.263 C 
ATOM      2  N   UNL d   1       0.276  -1.208  -0.072  0.00  0.00    -0.268 N 
ATOM      3  C   UNL d   1       0.876  -2.448  -0.055  0.00  0.00     0.372 C 
ATOM      4  O   UNL d   1       1.915   0.129  -0.982  0.00  0.00    -0.267 OA
ATOM      5  O   UNL d   1       0.196  -3.460   0.087  0.00  0.00    -0.238 OA
ATOM      6  H   UNL d   1      -0.713  -1.262   0.126  0.00  0.00     0.174 HD
ENDROOT
BRANCH   3   7
ATOM      7  O   UNL d   1       2.260  -2.410  -0.151  0.00  0.00    -0.261 OA
BRANCH   7   8
ATOM      8  C   UNL d   1       3.042  -3.511   0.258  0.00  0.00     0.081 A 
ATOM      9  C   UNL d   1       4.268  -3.673  -0.384  0.00  0.00     0.038 A 
ATOM     10  C   UNL d   1       5.165  -4.643   0.072  0.00  0.00     0.019 A 
ATOM     11  C   UNL d   1       4.845  -5.447   1.179  0.00  0.00     0.048 A 
ATOM     12  C   UNL d   1       3.596  -5.280   1.800  0.00  0.00     0.019 A 
ATOM     13  C   UNL d   1       2.700  -4.309   1.350  0.00  0.00     0.038 A 
BRANCH  11  14
ATOM     14  C   UNL d   1       5.827  -6.448   1.736  0.00  0.00     0.417 C 
ATOM     15  F   UNL d   1       6.999  -6.509   1.044  0.00  0.00    -0.166 F 
ATOM     16  F   UNL d   1       6.170  -6.172   3.024  0.00  0.00    -0.166 F 
ATOM     17  F   UNL d   1       5.332  -7.718   1.746  0.00  0.00    -0.166 F 
ENDBRANCH  11  14
ENDBRANCH   7   8
ENDBRANCH   3   7
BRANCH   1  18
ATOM     18  C   UNL d   1       0.011   1.224  -0.141  0.00  0.00     0.075 A 
ATOM     19  C   UNL d   1       0.639   2.389   0.344  0.00  0.00     0.051 A 
ATOM     20 CL   UNL d   1       2.307   2.455   0.809  0.00  0.00    -0.083 Cl
ATOM     21  C   UNL d   1      -0.093   3.569   0.541  0.00  0.00     0.025 A 
ATOM     22  C   UNL d   1      -1.459   3.605   0.281  0.00  0.00     0.003 A 
ATOM     23  C   UNL d   1      -2.099   2.455  -0.172  0.00  0.00     0.025 A 
ATOM     24  C   UNL d   1      -1.373   1.275  -0.390  0.00  0.00     0.051 A 
ATOM     25 CL   UNL d   1      -2.289  -0.065  -0.994  0.00  0.00    -0.083 Cl
ENDBRANCH   1  18
TORSDOF 4
