REMARK  2 active torsions:
REMARK  status: ('A' for Active; 'I' for Inactive)
REMARK    1  A    between atoms: C_9  and  C_5 
REMARK    2  A    between atoms: C_10  and  C_6 
ROOT
ATOM      1  N   UNL d   1       1.165  -0.705   0.040  0.00  0.00    -0.282 N 
ATOM      2  HN  UNL d   1       2.041  -1.228   0.041  1.00  0.00     0.188 HD
ATOM      3  N   UNL d   1       1.165   0.705  -0.036  0.00  0.00    -0.282 N 
ATOM      4  HN  UNL d   1       2.039   1.230  -0.038  1.00  0.00     0.188 HD
ATOM      5  C   UNL d   1       0.017  -1.321   0.107  0.00  0.00     0.145 C 
ATOM      6  C   UNL d   1       0.015   1.320  -0.102  0.00  0.00     0.145 C 
ATOM      7  N   UNL d   1      -1.216  -0.677   0.116  0.00  0.00    -0.282 N 
ATOM      8  N   UNL d   1      -1.217   0.675  -0.111  0.00  0.00    -0.282 N 
ATOM      9  H   UNL d   1      -1.958  -1.197  -0.348  0.00  0.00     0.188 HD
ATOM     10  H   UNL d   1      -1.959   1.196   0.354  0.00  0.00     0.188 HD
ENDROOT
BRANCH   5  11
ATOM     11  C   UNL d   1       0.034  -2.816   0.168  0.00  0.00     0.011 A 
ATOM     12  C   UNL d   1      -1.009  -3.515   0.789  0.00  0.00     0.015 A 
ATOM     13  C   UNL d   1      -0.977  -4.910   0.843  0.00  0.00     0.001 A 
ATOM     14  C   UNL d   1       0.092  -5.606   0.278  0.00  0.00     0.000 A 
ATOM     15  C   UNL d   1       1.135  -4.912  -0.335  0.00  0.00     0.001 A 
ATOM     16  C   UNL d   1       1.109  -3.518  -0.387  0.00  0.00     0.015 A 
ENDBRANCH   5  11
BRANCH   6  17
ATOM     17  C   UNL d   1       0.031   2.814  -0.166  0.00  0.00     0.011 A 
ATOM     18  C   UNL d   1      -1.011   3.511  -0.792  0.00  0.00     0.015 A 
ATOM     19  C   UNL d   1      -0.981   4.906  -0.846  0.00  0.00     0.001 A 
ATOM     20  C   UNL d   1       0.084   5.606  -0.279  0.00  0.00     0.000 A 
ATOM     21  C   UNL d   1       1.126   4.914   0.339  0.00  0.00     0.001 A 
ATOM     22  C   UNL d   1       1.104   3.521   0.394  0.00  0.00     0.015 A 
ENDBRANCH   6  17
TORSDOF 2
