REMARK  9 active torsions:
REMARK  status: ('A' for Active; 'I' for Inactive)
REMARK    1  A    between atoms: S_2  and  C_1 
REMARK    2  A    between atoms: N_7  and  S_2 
REMARK    3  A    between atoms: C_12  and  C_3 
REMARK    4  A    between atoms: C_19  and  N_4 
REMARK    5  A    between atoms: C_20  and  C_5 
REMARK    6  A    between atoms: C_10  and  C_8 
REMARK    7  A    between atoms: C_9  and  N_11 
REMARK    8  A    between atoms: O_28  and  C_12 
REMARK    9  A    between atoms: C_35  and  O_28 
ROOT
ATOM      1  C   UNL d   1      -0.365  -0.987  -0.133  0.00  0.00     0.125 C 
ATOM      2  C   UNL d   1       0.990  -0.522   0.061  0.00  0.00     0.087 C 
ATOM      3  N   UNL d   1      -0.379   1.278  -0.098  0.00  0.00    -0.312 N 
ATOM      4  C   UNL d   1      -1.220   0.143  -0.132  0.00  0.00     0.074 C 
ATOM      5  C   UNL d   1       0.947   0.865  -0.009  0.00  0.00     0.031 C 
ATOM      6  C   UNL d   1       2.101   1.835  -0.032  0.00  0.00     0.070 C 
ENDROOT
BRANCH   1   7
ATOM      7  S   UNL d   1      -0.795  -2.692  -0.285  0.00  0.00     0.264 S 
ATOM      8  O   UNL d   1       0.155  -3.397   0.534  0.00  0.00    -0.200 OA
ATOM      9  O   UNL d   1      -2.208  -2.749   0.041  0.00  0.00    -0.200 OA
BRANCH   7  10
ATOM     10  N   UNL d   1      -0.633  -3.292  -1.865  0.00  0.00    -0.304 N 
ATOM     11  C   UNL d   1       0.703  -3.722  -2.341  0.00  0.00     0.150 C 
ATOM     12  C   UNL d   1       1.452  -2.552  -2.992  0.00  0.00     0.117 C 
ATOM     13  N   UNL d   1       0.636  -1.924  -4.063  0.00  0.00    -0.266 NA
ATOM     14  C   UNL d   1      -0.712  -1.511  -3.597  0.00  0.00     0.117 C 
ATOM     15  C   UNL d   1      -1.422  -2.740  -2.996  0.00  0.00     0.150 C 
BRANCH  13  16
ATOM     16  C   UNL d   1       1.345  -0.909  -4.717  0.00  0.00     0.097 A 
ATOM     17  C   UNL d   1       2.326  -1.214  -5.662  0.00  0.00     0.086 A 
ATOM     18  C   UNL d   1       3.035  -0.152  -6.253  0.00  0.00     0.021 A 
ATOM     19  C   UNL d   1       2.744   1.161  -5.917  0.00  0.00     0.018 A 
ATOM     20  C   UNL d   1       1.744   1.373  -4.994  0.00  0.00     0.089 A 
ATOM     21  N   UNL d   1       1.050   0.378  -4.401  0.00  0.00    -0.356 N 
ATOM     22  HN  UNL d   1       0.316   0.589  -3.725  1.00  0.00     0.166 HD
BRANCH  17  23
ATOM     23  C   UNL d   1       2.667  -2.615  -6.078  0.00  0.00     0.420 C 
ATOM     24  F   UNL d   1       1.808  -3.602  -5.700  0.00  0.00    -0.166 F 
ATOM     25  F   UNL d   1       2.769  -2.738  -7.435  0.00  0.00    -0.166 F 
ATOM     26  F   UNL d   1       3.886  -2.997  -5.593  0.00  0.00    -0.166 F 
ENDBRANCH  17  23
ENDBRANCH  13  16
ENDBRANCH   7  10
ENDBRANCH   1   7
BRANCH   2  27
ATOM     27  C   UNL d   1       2.230  -1.269   0.290  0.00  0.00     0.296 C 
ATOM     28  O   UNL d   1       2.395  -2.083   1.185  0.00  0.00    -0.259 OA
BRANCH  27  29
ATOM     29  O   UNL d   1       3.231  -0.859  -0.547  0.00  0.00    -0.318 OA
BRANCH  29  30
ATOM     30  C   UNL d   1       4.570  -1.261  -0.214  0.00  0.00     0.174 C 
ATOM     31  C   UNL d   1       5.098  -0.475   0.978  0.00  0.00     0.034 C 
ENDBRANCH  29  30
ENDBRANCH  27  29
ENDBRANCH   2  27
BRANCH   4  32
ATOM     32  C   UNL d   1      -2.711   0.262  -0.118  0.00  0.00    -0.007 A 
ATOM     33  C   UNL d   1      -3.503  -0.425  -1.038  0.00  0.00     0.014 A 
ATOM     34  C   UNL d   1      -4.882  -0.230  -1.151  0.00  0.00     0.001 A 
ATOM     35  C   UNL d   1      -5.505   0.722  -0.362  0.00  0.00     0.000 A 
ATOM     36  C   UNL d   1      -4.754   1.415   0.583  0.00  0.00     0.001 A 
ATOM     37  C   UNL d   1      -3.382   1.155   0.733  0.00  0.00     0.014 A 
ENDBRANCH   4  32
BRANCH   3  38
ATOM     38  C   UNL d   1      -0.789   2.655  -0.164  0.00  0.00     0.040 A 
ATOM     39  C   UNL d   1      -0.223   3.601   0.706  0.00  0.00     0.030 A 
ATOM     40  C   UNL d   1      -0.623   4.938   0.656  0.00  0.00     0.002 A 
ATOM     41  C   UNL d   1      -1.621   5.332  -0.230  0.00  0.00     0.000 A 
ATOM     42  C   UNL d   1      -2.201   4.396  -1.085  0.00  0.00     0.002 A 
ATOM     43  C   UNL d   1      -1.773   3.066  -1.071  0.00  0.00     0.030 A 
ENDBRANCH   3  38
TORSDOF 9
