REMARK  3 active torsions:
REMARK  status: ('A' for Active; 'I' for Inactive)
REMARK    1  A    between atoms: C_11  and  C_5 
REMARK    2  A    between atoms: C_10  and  CA_7 
REMARK    3  A    between atoms: OXT_13  and  C_10 
ROOT
ATOM      1  C   UNL d   1       1.096  -0.769  -0.137  0.00  0.00     0.055 A 
ATOM      2  C   UNL d   1       0.667   0.536  -0.211  0.00  0.00    -0.018 A 
ATOM      3  N   UNL d   1      -0.009  -1.579  -0.093  0.00  0.00    -0.356 N 
ATOM      4  N   UNL d   1       3.484  -0.147  -0.189  0.00  0.00     0.113 N 
ATOM      5  C   UNL d   1       2.504  -1.252   0.003  0.00  0.00     0.304 C 
ATOM      6  C   UNL d   1      -0.751   0.531  -0.153  0.00  0.00    -0.001 A 
ATOM      7  CA  UNL d   1       2.993   1.184   0.337  0.00  0.00     0.322 C 
ATOM      8  C   UNL d   1       1.644   1.655  -0.254  0.00  0.00     0.088 C 
ATOM      9  C   UNL d   1      -1.148  -0.807  -0.078  0.00  0.00     0.043 A 
ATOM     10  C   UNL d   1      -1.741   1.532  -0.124  0.00  0.00     0.014 A 
ATOM     11  C   UNL d   1      -2.490  -1.193   0.014  0.00  0.00     0.030 A 
ATOM     12  C   UNL d   1      -3.088   1.163  -0.031  0.00  0.00     0.001 A 
ATOM     13  C   UNL d   1      -3.455  -0.181   0.035  0.00  0.00     0.002 A 
ATOM     14  H   UNL d   1       0.005  -2.587   0.011  0.00  0.00     0.166 HD
ATOM     15  H   UNL d   1       3.541  -0.031  -1.207  0.00  0.00     0.318 HD
ENDROOT
BRANCH   5  16
ATOM     16  C   UNL d   1       2.718  -2.054   1.280  0.00  0.00    -0.019 A 
ATOM     17  C   UNL d   1       2.115  -1.690   2.498  0.00  0.00     0.010 A 
ATOM     18  C   UNL d   1       2.176  -2.535   3.608  0.00  0.00     0.001 A 
ATOM     19  C   UNL d   1       2.862  -3.743   3.529  0.00  0.00     0.000 A 
ATOM     20  C   UNL d   1       3.505  -4.100   2.345  0.00  0.00     0.001 A 
ATOM     21  C   UNL d   1       3.440  -3.259   1.231  0.00  0.00     0.010 A 
ENDBRANCH   5  16
BRANCH   7  22
ATOM     22  C   UNL d   1       4.067   2.241   0.021  0.00  0.00     0.174 C 
ATOM     23  O   UNL d   1       3.866   3.430  -0.155  0.00  0.00    -0.648 OA
BRANCH  22  24
ATOM     24  OXT UNL d   1       5.306   1.685  -0.022  0.00  0.00    -0.775 OA
ATOM     25  HXT UNL d   1       5.198   0.716   0.130  0.00  0.00     0.167 HD
ENDBRANCH  22  24
ENDBRANCH   7  22
TORSDOF 3
