REMARK  6 active torsions:
REMARK  status: ('A' for Active; 'I' for Inactive)
REMARK    1  A    between atoms: C_2  and  C_1 
REMARK    2  A    between atoms: C_5  and  C_2 
REMARK    3  A    between atoms: C_14  and  C_5 
REMARK    4  A    between atoms: O_15  and  N_10 
REMARK    5  A    between atoms: C_25  and  O_15 
REMARK    6  A    between atoms: C_20  and  C_25 
ROOT
ATOM      1  N   UNL d   1      -9.846   3.142  -4.196  0.00  0.00    -0.191 NA
ATOM      2  C   UNL d   1      -9.241   3.740  -3.410  0.00  0.00     0.099 C 
ATOM      3  C   UNL d   1      -8.505   4.482  -2.420  0.00  0.00     0.045 A 
ATOM      4  C   UNL d   1      -7.725   3.795  -1.475  0.00  0.00     0.032 A 
ATOM      5  C   UNL d   1      -7.004   4.492  -0.497  0.00  0.00    -0.031 A 
ATOM      6  C   UNL d   1      -7.819   6.581  -1.446  0.00  0.00     0.002 A 
ATOM      7  C   UNL d   1      -8.552   5.873  -2.401  0.00  0.00     0.022 A 
ATOM      8  C   UNL d   1      -7.045   5.897  -0.505  0.00  0.00     0.009 A 
ENDROOT
BRANCH   5   9
ATOM      9  C   UNL d   1      -6.209   3.736   0.548  0.00  0.00     0.239 C 
BRANCH   9  10
ATOM     10  O   UNL d   1      -5.114   3.061  -0.062  0.00  0.00    -0.275 OA
BRANCH  10  11
ATOM     11  N   UNL d   1      -5.154   1.669   0.140  0.00  0.00    -0.262 N 
ATOM     12  C   UNL d   1      -3.988   1.112  -0.088  0.00  0.00     0.115 C 
ATOM     13  HN  UNL d   1      -5.987   1.156   0.429  1.00  0.00     0.194 HD
BRANCH  12  14
ATOM     14  C   UNL d   1      -3.904  -0.423   0.077  0.00  0.00     0.212 C 
ATOM     15  O   UNL d   1      -2.832  -0.892   0.459  0.00  0.00    -0.285 OA
BRANCH  14  16
ATOM     16  C   UNL d   1      -5.011  -1.420  -0.195  0.00  0.00     0.029 C 
ATOM     17  C   UNL d   1      -5.911  -1.343  -1.282  0.00  0.00    -0.041 C 
ATOM     18  C   UNL d   1      -6.816  -2.427  -1.517  0.00  0.00    -0.049 C 
ATOM     19  C   UNL d   1      -5.986  -0.148  -2.196  0.00  0.00     0.050 C 
ATOM     20  C   UNL d   1      -7.969  -2.302  -2.495  0.00  0.00     0.049 C 
ATOM     21  C   UNL d   1      -6.668  -3.662  -0.829  0.00  0.00    -0.049 C 
ATOM     22  C   UNL d   1      -5.708  -3.770   0.191  0.00  0.00    -0.049 C 
ATOM     23  C   UNL d   1      -7.593  -4.819  -1.151  0.00  0.00     0.049 C 
ATOM     24  C   UNL d   1      -5.014  -2.604   0.609  0.00  0.00    -0.041 C 
ATOM     25  C   UNL d   1      -5.441  -5.108   0.848  0.00  0.00     0.049 C 
ATOM     26  C   UNL d   1      -4.354  -2.637   1.974  0.00  0.00     0.050 C 
ENDBRANCH  14  16
ENDBRANCH  12  14
BRANCH  12  27
ATOM     27  C   UNL d   1      -2.708   1.873  -0.450  0.00  0.00    -0.004 A 
ATOM     28  C   UNL d   1      -2.729   2.990  -1.305  0.00  0.00     0.014 A 
ATOM     29  C   UNL d   1      -1.573   3.746  -1.552  0.00  0.00     0.001 A 
ATOM     30  C   UNL d   1      -0.357   3.365  -0.997  0.00  0.00     0.000 A 
ATOM     31  C   UNL d   1      -0.304   2.249  -0.172  0.00  0.00     0.001 A 
ATOM     32  C   UNL d   1      -1.471   1.527   0.117  0.00  0.00     0.014 A 
ENDBRANCH  12  27
ENDBRANCH  10  11
ENDBRANCH   9  10
ENDBRANCH   5   9
TORSDOF 6
