REMARK  5 active torsions:
REMARK  status: ('A' for Active; 'I' for Inactive)
REMARK    1  A    between atoms: C_3  and  C_1 
REMARK    2  A    between atoms: C_2  and  C_4 
REMARK    3  A    between atoms: C_5  and  N_8 
REMARK    4  A    between atoms: N_18  and  C_5 
REMARK    5  A    between atoms: N_8  and  C_7 
ROOT
ATOM      1  C   UNL d   1       0.562  -1.327   0.307  0.00  0.00     0.050 A 
ATOM      2  C   UNL d   1       0.995  -3.671  -0.209  0.00  0.00     0.050 A 
ATOM      3  C   UNL d   1       1.265  -2.309  -0.409  0.00  0.00     0.032 A 
ATOM      4  C   UNL d   1      -0.722  -3.074   1.420  0.00  0.00     0.035 A 
ATOM      5  C   UNL d   1       0.001  -4.039   0.712  0.00  0.00     0.045 A 
ATOM      6  C   UNL d   1      -0.433  -1.723   1.216  0.00  0.00     0.045 A 
ENDROOT
BRANCH   4   7
ATOM      7  N   UNL d   1      -1.626  -3.526   2.398  0.00  0.00    -0.333 N 
ATOM      8  H   UNL d   1      -1.595  -4.515   2.612  0.00  0.00     0.168 HD
BRANCH   7   9
ATOM      9  C   UNL d   1      -2.663  -2.874   3.010  0.00  0.00     0.171 C 
ATOM     10  S   UNL d   1      -3.660  -1.708   2.352  0.00  0.00    -0.041 SA
BRANCH   9  11
ATOM     11  N   UNL d   1      -2.929  -3.293   4.286  0.00  0.00    -0.371 N 
ATOM     12  C   UNL d   1      -1.982  -3.888   5.209  0.00  0.00     0.148 C 
ATOM     13  H   UNL d   1      -3.716  -2.810   4.707  0.00  0.00     0.161 HD
ENDBRANCH   9  11
ENDBRANCH   7   9
ENDBRANCH   4   7
BRANCH   1  14
ATOM     14  C   UNL d   1       0.879   0.142   0.147  0.00  0.00     0.417 C 
ATOM     15  F   UNL d   1       1.901   0.382  -0.721  0.00  0.00    -0.166 F 
ATOM     16  F   UNL d   1       1.247   0.723   1.323  0.00  0.00    -0.166 F 
ATOM     17  F   UNL d   1      -0.180   0.861  -0.314  0.00  0.00    -0.166 F 
ENDBRANCH   1  14
BRANCH   2  18
ATOM     18  C   UNL d   1       1.752  -4.740  -0.961  0.00  0.00     0.417 C 
ATOM     19  F   UNL d   1       2.811  -4.261  -1.668  0.00  0.00    -0.166 F 
ATOM     20  F   UNL d   1       2.258  -5.694  -0.131  0.00  0.00    -0.166 F 
ATOM     21  F   UNL d   1       0.967  -5.399  -1.855  0.00  0.00    -0.166 F 
ENDBRANCH   2  18
TORSDOF 5
