REMARK  7 active torsions:
REMARK  status: ('A' for Active; 'I' for Inactive)
REMARK    1  A    between atoms: C_8  and  C_1 
REMARK    2  A    between atoms: C_7  and  C_2 
REMARK    3  A    between atoms: C_9  and  C_3 
REMARK    4  A    between atoms: O_14  and  C_7 
REMARK    5  A    between atoms: O_15  and  C_8 
REMARK    6  A    between atoms: C_21  and  O_14 
REMARK    7  A    between atoms: C_20  and  O_15 
ROOT
ATOM      1  C   UNL d   1      -1.276  -1.020   0.123  0.00  0.00     0.054 C 
ATOM      2  C   UNL d   1       1.286  -0.998   0.099  0.00  0.00     0.054 C 
ATOM      3  C   UNL d   1       0.014  -1.826  -0.085  0.00  0.00     0.117 C 
ATOM      4  C   UNL d   1      -1.235   0.334   0.076  0.00  0.00     0.018 C 
ATOM      5  C   UNL d   1       1.225   0.355   0.070  0.00  0.00     0.018 C 
ATOM      6  N   UNL d   1      -0.008   0.975  -0.054  0.00  0.00    -0.362 N 
ATOM      7  C   UNL d   1      -2.409   1.278   0.160  0.00  0.00     0.069 C 
ATOM      8  C   UNL d   1       2.426   1.262   0.155  0.00  0.00     0.069 C 
ATOM      9  H   UNL d   1      -0.018   1.993  -0.026  0.00  0.00     0.165 HD
ENDROOT
BRANCH   3  10
ATOM     10  C   UNL d   1       0.000  -2.476  -1.478  0.00  0.00     0.022 A 
ATOM     11  N   UNL d   1      -0.082  -3.830  -1.540  0.00  0.00    -0.368 N 
ATOM     12  C   UNL d   1      -0.095  -4.398  -2.766  0.00  0.00     0.088 A 
ATOM     13  HN  UNL d   1      -0.132  -4.397  -0.693  1.00  0.00     0.165 HD
ATOM     14  C   UNL d   1      -0.024  -3.686  -3.951  0.00  0.00     0.017 A 
ATOM     15  C   UNL d   1       0.054  -2.304  -3.881  0.00  0.00     0.003 A 
ATOM     16  C   UNL d   1       0.064  -1.688  -2.633  0.00  0.00     0.026 A 
ENDBRANCH   3  10
BRANCH   2  17
ATOM     17  C   UNL d   1       2.578  -1.724   0.216  0.00  0.00     0.292 C 
ATOM     18  O   UNL d   1       3.664  -1.264  -0.099  0.00  0.00    -0.259 OA
BRANCH  17  19
ATOM     19  O   UNL d   1       2.369  -2.981   0.680  0.00  0.00    -0.318 OA
BRANCH  19  20
ATOM     20  C   UNL d   1       3.477  -3.882   0.538  0.00  0.00     0.174 C 
ATOM     21  C   UNL d   1       3.431  -4.503  -0.846  0.00  0.00     0.034 C 
ENDBRANCH  19  20
ENDBRANCH  17  19
ENDBRANCH   2  17
BRANCH   1  22
ATOM     22  C   UNL d   1      -2.528  -1.805   0.325  0.00  0.00     0.292 C 
ATOM     23  O   UNL d   1      -3.655  -1.412   0.069  0.00  0.00    -0.259 OA
BRANCH  22  24
ATOM     24  O   UNL d   1      -2.234  -3.018   0.857  0.00  0.00    -0.318 OA
BRANCH  24  25
ATOM     25  C   UNL d   1      -3.340  -3.901   1.094  0.00  0.00     0.174 C 
ATOM     26  C   UNL d   1      -3.804  -4.558  -0.194  0.00  0.00     0.034 C 
ENDBRANCH  24  25
ENDBRANCH  22  24
ENDBRANCH   1  22
TORSDOF 7
