REMARK  6 active torsions:
REMARK  status: ('A' for Active; 'I' for Inactive)
REMARK    1  A    between atoms: C_8  and  C_1 
REMARK    2  A    between atoms: N_7  and  C_2 
REMARK    3  A    between atoms: S_3  and  N_7 
REMARK    4  A    between atoms: C_13  and  S_3 
REMARK    5  A    between atoms: C_9  and  C_5 
REMARK    6  A    between atoms: O_18  and  C_8 
ROOT
ATOM      1  C   UNL d   1       0.094   1.292   0.048  0.00  0.00     0.108 A 
ATOM      2  C   UNL d   1       1.391   0.803   0.084  0.00  0.00     0.067 A 
ATOM      3  S   UNL d   1      -1.041  -0.007   0.050  0.00  0.00    -0.081 SA
ATOM      4  C   UNL d   1       0.169  -1.212   0.066  0.00  0.00     0.025 A 
ATOM      5  C   UNL d   1       1.417  -0.625   0.087  0.00  0.00     0.052 A 
ENDROOT
BRANCH   2   6
ATOM      6  N   UNL d   1       2.622   1.483   0.043  0.00  0.00    -0.279 N 
ATOM      7  H   UNL d   1       2.798   2.111  -0.742  0.00  0.00     0.179 HD
BRANCH   6   8
ATOM      8  S   UNL d   1       3.315   2.142   1.441  0.00  0.00     0.263 S 
ATOM      9  O   UNL d   1       4.422   2.957   0.988  0.00  0.00    -0.200 OA
ATOM     10  O   UNL d   1       2.260   2.699   2.263  0.00  0.00    -0.200 OA
BRANCH   8  11
ATOM     11  C   UNL d   1       4.011   0.741   2.282  0.00  0.00     0.079 A 
ATOM     12  C   UNL d   1       4.923  -0.091   1.626  0.00  0.00     0.025 A 
ATOM     13  C   UNL d   1       5.501  -1.158   2.319  0.00  0.00     0.002 A 
ATOM     14  C   UNL d   1       5.176  -1.383   3.659  0.00  0.00     0.000 A 
ATOM     15  C   UNL d   1       4.261  -0.553   4.308  0.00  0.00     0.002 A 
ATOM     16  C   UNL d   1       3.672   0.508   3.620  0.00  0.00     0.025 A 
ENDBRANCH   8  11
ENDBRANCH   6   8
ENDBRANCH   2   6
BRANCH   1  17
ATOM     17  C   UNL d   1      -0.459   2.637   0.024  0.00  0.00     0.302 C 
ATOM     18  O   UNL d   1      -1.657   2.918   0.086  0.00  0.00    -0.259 OA
BRANCH  17  19
ATOM     19  O   UNL d   1       0.523   3.573  -0.107  0.00  0.00    -0.322 OA
ATOM     20  C   UNL d   1       0.030   4.915  -0.045  0.00  0.00     0.213 C 
ENDBRANCH  17  19
ENDBRANCH   1  17
BRANCH   4  21
ATOM     21  C   UNL d   1      -0.145  -2.627   0.056  0.00  0.00     0.022 A 
ATOM     22  S   UNL d   1       1.098  -3.821   0.092  0.00  0.00    -0.101 SA
ATOM     23  C   UNL d   1      -0.023  -5.106   0.086  0.00  0.00     0.050 A 
ATOM     24  C   UNL d   1      -1.321  -4.656   0.046  0.00  0.00     0.008 A 
ATOM     25  C   UNL d   1      -1.391  -3.231   0.024  0.00  0.00     0.021 A 
ENDBRANCH   4  21
TORSDOF 6
