REMARK  8 active torsions:
REMARK  status: ('A' for Active; 'I' for Inactive)
REMARK    1  A    between atoms: C_10  and  C_1 
REMARK    2  A    between atoms: N_3  and  C_2 
REMARK    3  A    between atoms: C_7  and  C_11 
REMARK    4  A    between atoms: C_8  and  N_17 
REMARK    5  A    between atoms: O_24  and  C_10 
REMARK    6  A    between atoms: N_17  and  C_26 
REMARK    7  A    between atoms: C_25  and  O_24 
REMARK    8  A    between atoms: C_26  and  C_25 
ROOT
ATOM      1  C   UNL d   1      -6.561  -1.996  -0.561  0.00  0.00     0.149 C 
ENDROOT
BRANCH   1   2
ATOM      2  N   UNL d   1      -7.642  -3.017  -0.492  0.00  0.00    -0.381 N 
ATOM      3  C   UNL d   1      -7.416  -4.283  -1.211  0.00  0.00     0.150 C 
BRANCH   2   4
ATOM      4  C   UNL d   1      -8.980  -2.610  -0.380  0.00  0.00     0.063 A 
ATOM      5  C   UNL d   1     -10.013  -3.438   0.125  0.00  0.00     0.130 A 
ATOM      6  C   UNL d   1     -11.377  -3.102   0.051  0.00  0.00     0.054 A 
ATOM      7  C   UNL d   1     -11.770  -1.882  -0.495  0.00  0.00     0.050 A 
ATOM      8  C   UNL d   1     -10.769  -0.982  -0.879  0.00  0.00     0.018 A 
ATOM      9  C   UNL d   1      -9.412  -1.342  -0.819  0.00  0.00     0.032 A 
BRANCH   5  10
ATOM     10  N   UNL d   1      -9.712  -4.683   0.812  0.00  0.00    -0.113 N 
ATOM     11  O   UNL d   1      -9.009  -4.630   1.828  0.00  0.00    -0.532 OA
ATOM     12  O   UNL d   1     -10.234  -5.713   0.354  0.00  0.00    -0.532 OA
ENDBRANCH   5  10
BRANCH   7  13
ATOM     13  C   UNL d   1     -13.227  -1.546  -0.702  0.00  0.00     0.417 C 
ATOM     14  F   UNL d   1     -14.069  -2.552  -0.336  0.00  0.00    -0.166 F 
ATOM     15  F   UNL d   1     -13.622  -0.450  -0.002  0.00  0.00    -0.166 F 
ATOM     16  F   UNL d   1     -13.511  -1.282  -2.008  0.00  0.00    -0.166 F 
ENDBRANCH   7  13
ENDBRANCH   2   4
ENDBRANCH   1   2
BRANCH   1  17
ATOM     17  C   UNL d   1      -5.142  -2.554  -0.815  0.00  0.00     0.199 C 
BRANCH  17  18
ATOM     18  O   UNL d   1      -4.977  -3.082  -2.152  0.00  0.00    -0.316 OA
BRANCH  18  19
ATOM     19  C   UNL d   1      -4.896  -2.184  -3.155  0.00  0.00     0.299 C 
ATOM     20  O   UNL d   1      -4.917  -0.969  -2.989  0.00  0.00    -0.259 OA
BRANCH  19  21
ATOM     21  C   UNL d   1      -4.758  -2.821  -4.484  0.00  0.00     0.115 A 
ATOM     22  C   UNL d   1      -4.868  -4.280  -4.724  0.00  0.00     0.304 A 
ATOM     23  O   UNL d   1      -4.537  -4.733  -6.000  0.00  0.00    -0.274 OA
ATOM     24  O   UNL d   1      -5.243  -5.076  -3.869  0.00  0.00    -0.259 OA
ATOM     25  C   UNL d   1      -4.244  -3.849  -7.052  0.00  0.00     0.089 A 
ATOM     26  C   UNL d   1      -4.267  -2.476  -6.846  0.00  0.00    -0.001 A 
ATOM     27  C   UNL d   1      -3.939  -4.398  -8.294  0.00  0.00     0.038 A 
ATOM     28  C   UNL d   1      -4.511  -1.978  -5.505  0.00  0.00     0.038 A 
ATOM     29  C   UNL d   1      -4.001  -1.624  -7.920  0.00  0.00     0.014 A 
ATOM     30  C   UNL d   1      -3.700  -2.160  -9.175  0.00  0.00     0.001 A 
ATOM     31  C   UNL d   1      -3.661  -3.544  -9.360  0.00  0.00     0.003 A 
ENDBRANCH  19  21
ENDBRANCH  18  19
ENDBRANCH  17  18
ENDBRANCH   1  17
TORSDOF 8
