REMARK  3 active torsions:
REMARK  status: ('A' for Active; 'I' for Inactive)
REMARK    1  A    between atoms: N_4  and  S_1 
REMARK    2  A    between atoms: C_16  and  S_1 
REMARK    3  A    between atoms: C_2  and  N_5 
ROOT
ATOM      1  N   UNL d   1       0.575  -0.586  -1.263  0.00  0.00    -0.304 N 
ATOM      2  N   UNL d   1       2.637  -1.513  -3.056  0.00  0.00    -0.363 N 
ATOM      3  C   UNL d   1       0.821  -2.054  -1.435  0.00  0.00     0.155 C 
ATOM      4  C   UNL d   1       0.943   0.168  -2.499  0.00  0.00     0.155 C 
ATOM      5  C   UNL d   1       2.416  -0.075  -2.879  0.00  0.00     0.145 C 
ATOM      6  C   UNL d   1       2.270  -2.349  -1.894  0.00  0.00     0.145 C 
ENDROOT
BRANCH   2   7
ATOM      7  C   UNL d   1       3.720  -2.002  -3.776  0.00  0.00     0.117 A 
ATOM      8  C   UNL d   1       4.958  -1.350  -4.022  0.00  0.00     0.042 A 
ATOM      9  C   UNL d   1       5.860  -2.035  -4.830  0.00  0.00     0.088 A 
ATOM     10  C   UNL d   1       5.550  -0.110  -3.586  0.00  0.00     0.025 A 
ATOM     11  S   UNL d   1       7.326  -1.196  -5.072  0.00  0.00    -0.083 SA
ATOM     12  N   UNL d   1       5.682  -3.236  -5.400  0.00  0.00    -0.346 N 
ATOM     13  C   UNL d   1       6.822   0.092  -4.077  0.00  0.00     0.053 A 
ATOM     14  C   UNL d   1       4.503  -3.769  -5.091  0.00  0.00     0.182 A 
ATOM     15  HN  UNL d   1       6.371  -3.688  -6.001  1.00  0.00     0.167 HD
ATOM     16  N   UNL d   1       3.547  -3.237  -4.319  0.00  0.00    -0.338 N 
ATOM     17  HN  UNL d   1       2.689  -3.757  -4.138  1.00  0.00     0.168 HD
ENDBRANCH   2   7
BRANCH   1  18
ATOM     18  S   UNL d   1       1.039   0.099   0.219  0.00  0.00     0.260 S 
ATOM     19  O   UNL d   1       1.294   1.509   0.018  0.00  0.00    -0.200 OA
ATOM     20  O   UNL d   1       2.030  -0.758   0.836  0.00  0.00    -0.200 OA
BRANCH  18  21
ATOM     21  C   UNL d   1      -0.473  -0.041   1.151  0.00  0.00     0.079 A 
ATOM     22  C   UNL d   1      -0.695  -1.153   1.969  0.00  0.00     0.025 A 
ATOM     23  C   UNL d   1      -1.877  -1.238   2.707  0.00  0.00     0.002 A 
ATOM     24  C   UNL d   1      -2.822  -0.211   2.637  0.00  0.00     0.000 A 
ATOM     25  C   UNL d   1      -2.586   0.907   1.837  0.00  0.00     0.002 A 
ATOM     26  C   UNL d   1      -1.408   0.998   1.095  0.00  0.00     0.025 A 
ENDBRANCH  18  21
ENDBRANCH   1  18
TORSDOF 3
