REMARK  6 active torsions:
REMARK  status: ('A' for Active; 'I' for Inactive)
REMARK    1  A    between atoms: N_7  and  C_1 
REMARK    2  A    between atoms: N_11  and  C_2 
REMARK    3  A    between atoms: N_9  and  C_15 
REMARK    4  A    between atoms: C_19  and  N_11 
REMARK    5  A    between atoms: C_15  and  C_16 
REMARK    6  A    between atoms: C_16  and  C_19 
ROOT
ATOM      1  C   UNL d   1      -0.796  -1.252   0.041  0.00  0.00     0.171 A 
ATOM      2  C   UNL d   1       0.592  -1.334   0.095  0.00  0.00     0.153 A 
ATOM      3  N   UNL d   1      -0.021   0.880   0.021  0.00  0.00    -0.299 N 
ATOM      4  HN  UNL d   1       0.039   1.899   0.008  1.00  0.00     0.187 HD
ATOM      5  C   UNL d   1      -1.121   0.123   0.012  0.00  0.00     0.059 A 
ATOM      6  N   UNL d   1       0.996  -0.009   0.052  0.00  0.00    -0.279 N 
ATOM      7  C   UNL d   1      -2.466   0.750  -0.002  0.00  0.00     0.072 C 
ATOM      8  C   UNL d   1       2.336   0.528   0.025  0.00  0.00     0.179 C 
ENDROOT
BRANCH   2   9
ATOM      9  N   UNL d   1       1.496  -2.356   0.158  0.00  0.00    -0.373 N 
ATOM     10  H   UNL d   1       2.500  -2.203   0.123  0.00  0.00     0.161 HD
BRANCH   9  11
ATOM     11  C   UNL d   1       1.094  -3.759   0.103  0.00  0.00     0.123 C 
BRANCH  11  12
ATOM     12  C   UNL d   1       2.316  -4.683   0.054  0.00  0.00     0.050 C 
BRANCH  12  13
ATOM     13  C   UNL d   1       1.910  -6.157  -0.136  0.00  0.00     0.274 C 
BRANCH  13  14
ATOM     14  N   UNL d   1       1.008  -6.334  -1.276  0.00  0.00     0.092 N 
ATOM     15  C   UNL d   1       1.640  -6.138  -2.595  0.00  0.00     0.298 C 
ATOM     16  C   UNL d   1       2.381  -7.369  -3.138  0.00  0.00     0.198 C 
ATOM     17  O   UNL d   1       1.534  -8.522  -3.157  0.00  0.00    -0.388 OA
ATOM     18  C   UNL d   1       1.054  -8.805  -1.838  0.00  0.00     0.198 C 
ATOM     19  C   UNL d   1       0.277  -7.614  -1.256  0.00  0.00     0.298 C 
ENDBRANCH  13  14
ENDBRANCH  12  13
ENDBRANCH  11  12
ENDBRANCH   9  11
ENDBRANCH   2   9
BRANCH   1  20
ATOM     20  N   UNL d   1      -1.753  -2.308   0.017  0.00  0.00    -0.110 N 
ATOM     21  O   UNL d   1      -1.820  -3.035   1.015  0.00  0.00    -0.532 OA
ATOM     22  O   UNL d   1      -2.489  -2.364  -0.975  0.00  0.00    -0.532 OA
ENDBRANCH   1  20
TORSDOF 6
