REMARK  3 active torsions:
REMARK  status: ('A' for Active; 'I' for Inactive)
REMARK    1  A    between atoms: N_6  and  C_1 
REMARK    2  A    between atoms: C_8  and  C_2 
REMARK       I    between atoms: N_13  and  C_8 
REMARK    3  A    between atoms: C_10  and  C_9 
ROOT
ATOM      1  C   UNL d   1      -2.202  -0.866  -0.015  0.00  0.00     0.090 A 
ATOM      2  C   UNL d   1      -1.065  -1.681  -0.067  0.00  0.00     0.072 A 
ATOM      3  S   UNL d   1      -1.760   0.802   0.017  0.00  0.00    -0.075 SA
ATOM      4  C   UNL d   1       0.155  -0.899  -0.037  0.00  0.00    -0.026 A 
ATOM      5  C   UNL d   1      -0.103   0.456  -0.034  0.00  0.00    -0.008 A 
ATOM      6  C   UNL d   1       1.565  -1.428  -0.020  0.00  0.00     0.041 C 
ATOM      7  C   UNL d   1       0.933   1.538   0.002  0.00  0.00     0.047 C 
ATOM      8  C   UNL d   1       2.576  -0.355   0.412  0.00  0.00     0.005 C 
ATOM      9  C   UNL d   1       2.328   0.975  -0.309  0.00  0.00     0.005 C 
ENDROOT
BRANCH   1  10
ATOM     10  N   UNL d   1      -3.499  -1.291   0.108  0.00  0.00    -0.359 N 
ATOM     11  C   UNL d   1      -4.466  -0.645  -0.463  0.00  0.00     0.102 C 
ATOM     12  HN  UNL d   1      -3.705  -2.127   0.655  1.00  0.00     0.166 HD
BRANCH  11  13
ATOM     13  C   UNL d   1      -5.863  -1.140  -0.327  0.00  0.00     0.001 A 
ATOM     14  C   UNL d   1      -6.957  -0.461  -0.873  0.00  0.00     0.045 A 
ATOM     15 CL   UNL d   1      -6.803   1.024  -1.742  0.00  0.00    -0.083 Cl
ATOM     16  C   UNL d   1      -8.249  -0.983  -0.720  0.00  0.00     0.024 A 
ATOM     17  C   UNL d   1      -8.454  -2.182  -0.034  0.00  0.00     0.002 A 
ATOM     18  C   UNL d   1      -7.370  -2.863   0.509  0.00  0.00     0.001 A 
ATOM     19  C   UNL d   1      -6.083  -2.342   0.370  0.00  0.00     0.014 A 
ENDBRANCH  11  13
ENDBRANCH   1  10
BRANCH   2  20
ATOM     20  C   UNL d   1      -1.102  -3.151  -0.115  0.00  0.00     0.252 C 
ATOM     21  O   UNL d   1      -0.098  -3.856  -0.202  0.00  0.00    -0.268 OA
ATOM     22  N   UNL d   1      -2.329  -3.740  -0.068  0.00  0.00    -0.366 N 
ATOM     23  H   UNL d   1      -3.158  -3.161   0.024  0.00  0.00     0.159 HD
ATOM     24  H   UNL d   1      -2.399  -4.744  -0.082  0.00  0.00     0.159 HD
ENDBRANCH   2  20
TORSDOF 3
