REMARK  2 active torsions:
REMARK  status: ('A' for Active; 'I' for Inactive)
REMARK    1  A    between atoms: C_5  and  N_1 
REMARK    2  A    between atoms: C_6  and  C_5 
ROOT
ATOM      1  N   UNL d   1       0.397  -1.005   0.059  0.00  0.00    -0.298 N 
ATOM      2  C   UNL d   1       0.377  -0.349   1.268  0.00  0.00     0.144 A 
ATOM      3  C   UNL d   1       0.439  -0.219  -1.077  0.00  0.00     0.235 A 
ATOM      4  S   UNL d   1       0.465   1.387   1.023  0.00  0.00    -0.091 SA
ATOM      5  S   UNL d   1       0.257  -1.002   2.799  0.00  0.00    -0.052 SA
ATOM      6  C   UNL d   1       0.587   1.243  -0.765  0.00  0.00     0.185 A 
ATOM      7  O   UNL d   1       0.355  -0.634  -2.230  0.00  0.00    -0.272 OA
ENDROOT
BRANCH   1   8
ATOM      8  C   UNL d   1       0.318  -2.457  -0.098  0.00  0.00     0.179 C 
BRANCH   8   9
ATOM      9  C   UNL d   1       1.670  -3.095   0.088  0.00  0.00     0.001 A 
ATOM     10  S   UNL d   1       2.945  -2.798  -1.023  0.00  0.00    -0.105 SA
ATOM     11  C   UNL d   1       4.012  -3.834  -0.182  0.00  0.00     0.050 A 
ATOM     12  C   UNL d   1       3.414  -4.410   0.915  0.00  0.00     0.008 A 
ATOM     13  C   UNL d   1       2.062  -3.987   1.069  0.00  0.00     0.017 A 
ENDBRANCH   8   9
ENDBRANCH   1   8
TORSDOF 2
