REMARK  8 active torsions:
REMARK  status: ('A' for Active; 'I' for Inactive)
REMARK    1  A    between atoms: C_10  and  N_1 
REMARK    2  A    between atoms: C_14  and  C_5 
REMARK    3  A    between atoms: C_8  and  C_10 
REMARK    4  A    between atoms: C_19  and  C_11 
REMARK    5  A    between atoms: C_12  and  C_18 
REMARK    6  A    between atoms: C_17  and  C_14 
REMARK    7  A    between atoms: O_29  and  C_17 
REMARK    8  A    between atoms: C_32  and  O_29 
ROOT
ATOM      1  N   UNL d   1       2.410  -0.634  -0.007  0.00  0.00    -0.251 N 
ATOM      2  N   UNL d   1       2.407   0.746   0.016  0.00  0.00    -0.298 N 
ATOM      3  HN  UNL d   1       3.287   1.261   0.011  1.00  0.00     0.187 HD
ATOM      4  C   UNL d   1       1.261  -1.414   0.033  0.00  0.00     0.273 A 
ATOM      5  C   UNL d   1       1.279   1.385   0.044  0.00  0.00     0.046 A 
ATOM      6  C   UNL d   1      -0.025  -0.694   0.046  0.00  0.00     0.046 A 
ATOM      7  C   UNL d   1      -0.038   0.697   0.017  0.00  0.00     0.004 A 
ATOM      8  O   UNL d   1       1.256  -2.644   0.003  0.00  0.00    -0.266 OA
ATOM      9  C   UNL d   1      -1.228  -1.416   0.028  0.00  0.00     0.018 A 
ATOM     10  C   UNL d   1      -1.266   1.369  -0.061  0.00  0.00     0.014 A 
ATOM     11  C   UNL d   1      -2.446  -0.743  -0.032  0.00  0.00     0.001 A 
ATOM     12  C   UNL d   1      -2.465   0.648  -0.080  0.00  0.00     0.001 A 
ENDROOT
BRANCH   1  13
ATOM     13  C   UNL d   1       3.714  -1.289  -0.111  0.00  0.00     0.217 C 
BRANCH  13  14
ATOM     14  C   UNL d   1       4.318  -1.499   1.246  0.00  0.00     0.071 A 
ATOM     15  N   UNL d   1       4.108  -2.553   2.008  0.00  0.00    -0.351 N 
ATOM     16  C   UNL d   1       4.777  -2.428   3.218  0.00  0.00     0.049 A 
ATOM     17  HN  UNL d   1       3.531  -3.353   1.745  1.00  0.00     0.166 HD
ATOM     18  C   UNL d   1       5.558  -1.293   3.315  0.00  0.00     0.081 A 
ATOM     19  S   UNL d   1       5.412  -0.341   1.896  0.00  0.00    -0.085 SA
BRANCH  16  20
ATOM     20  C   UNL d   1       4.591  -3.420   4.279  0.00  0.00    -0.009 A 
ATOM     21  C   UNL d   1       3.822  -4.565   4.021  0.00  0.00     0.014 A 
ATOM     22  C   UNL d   1       3.530  -5.485   5.034  0.00  0.00     0.017 A 
ATOM     23  C   UNL d   1       4.004  -5.281   6.336  0.00  0.00     0.048 A 
ATOM     24  C   UNL d   1       4.806  -4.159   6.590  0.00  0.00     0.017 A 
ATOM     25  C   UNL d   1       5.098  -3.241   5.574  0.00  0.00     0.014 A 
BRANCH  23  26
ATOM     26  C   UNL d   1       3.647  -6.222   7.459  0.00  0.00     0.417 C 
ATOM     27  F   UNL d   1       2.840  -7.252   7.078  0.00  0.00    -0.166 F 
ATOM     28  F   UNL d   1       4.743  -6.797   8.028  0.00  0.00    -0.166 F 
ATOM     29  F   UNL d   1       2.990  -5.593   8.473  0.00  0.00    -0.166 F 
ENDBRANCH  23  26
ENDBRANCH  16  20
ENDBRANCH  13  14
ENDBRANCH   1  13
BRANCH   5  30
ATOM     30  C   UNL d   1       1.352   2.903   0.042  0.00  0.00     0.170 C 
BRANCH  30  31
ATOM     31  C   UNL d   1       0.731   3.583   1.229  0.00  0.00     0.264 C 
ATOM     32  O   UNL d   1       0.244   3.015   2.198  0.00  0.00    -0.265 OA
BRANCH  31  33
ATOM     33  O   UNL d   1       0.685   4.928   1.011  0.00  0.00    -0.322 OA
BRANCH  33  34
ATOM     34  C   UNL d   1      -0.276   5.662   1.786  0.00  0.00     0.174 C 
ATOM     35  C   UNL d   1       0.376   6.457   2.899  0.00  0.00     0.034 C 
ENDBRANCH  33  34
ENDBRANCH  31  33
ENDBRANCH  30  31
ENDBRANCH   5  30
TORSDOF 8
