REMARK  10 active torsions:
REMARK  status: ('A' for Active; 'I' for Inactive)
REMARK    1  A    between atoms: N_3  and  C_1 
REMARK    2  A    between atoms: N_4  and  C_1 
REMARK    3  A    between atoms: C_2  and  N_5 
REMARK    4  A    between atoms: N_10  and  C_2 
REMARK    5  A    between atoms: C_8  and  N_3 
REMARK    6  A    between atoms: N_5  and  N_4 
REMARK    7  A    between atoms: C_16  and  N_10 
REMARK    8  A    between atoms: C_13  and  C_16 
REMARK    9  A    between atoms: C_18  and  C_13 
REMARK   10  A    between atoms: O_14  and  C_18 
ROOT
ATOM      1  N   UNL d   1       0.078   0.937  -0.554  0.00  0.00    -0.274 N 
ATOM      2  H   UNL d   1       0.481   1.854  -0.745  0.00  0.00     0.189 HD
ENDROOT
BRANCH   1   3
ATOM      3  C   UNL d   1       0.956  -0.106  -0.367  0.00  0.00     0.191 C 
ATOM      4  S   UNL d   1       0.701  -1.697  -0.794  0.00  0.00    -0.039 SA
BRANCH   3   5
ATOM      5  N   UNL d   1       2.148   0.272   0.217  0.00  0.00    -0.332 N 
ATOM      6  H   UNL d   1       2.941  -0.338   0.051  0.00  0.00     0.168 HD
BRANCH   5   7
ATOM      7  C   UNL d   1       2.317   1.346   1.122  0.00  0.00     0.035 A 
ATOM      8  C   UNL d   1       1.253   1.821   1.899  0.00  0.00     0.053 A 
ATOM      9  C   UNL d   1       1.435   2.909   2.749  0.00  0.00     0.036 A 
ATOM     10 CL   UNL d   1       0.108   3.489   3.679  0.00  0.00    -0.084 Cl
ATOM     11  C   UNL d   1       2.676   3.523   2.842  0.00  0.00     0.024 A 
ATOM     12  C   UNL d   1       3.752   3.024   2.104  0.00  0.00     0.004 A 
ATOM     13  C   UNL d   1       3.578   1.922   1.260  0.00  0.00     0.029 A 
ENDBRANCH   5   7
ENDBRANCH   3   5
ENDBRANCH   1   3
BRANCH   1  14
ATOM     14  N   UNL d   1      -1.257   0.780  -0.910  0.00  0.00    -0.274 N 
ATOM     15  H   UNL d   1      -1.842   0.387  -0.182  0.00  0.00     0.189 HD
BRANCH  14  16
ATOM     16  C   UNL d   1      -1.812   1.653  -1.833  0.00  0.00     0.186 C 
ATOM     17  S   UNL d   1      -0.951   2.315  -3.107  0.00  0.00    -0.040 SA
BRANCH  16  18
ATOM     18  N   UNL d   1      -3.137   1.900  -1.541  0.00  0.00    -0.366 N 
ATOM     19  H   UNL d   1      -3.487   1.572  -0.654  0.00  0.00     0.161 HD
BRANCH  18  20
ATOM     20  C   UNL d   1      -4.132   2.478  -2.437  0.00  0.00     0.124 C 
BRANCH  20  21
ATOM     21  C   UNL d   1      -4.981   1.353  -3.020  0.00  0.00     0.046 C 
BRANCH  21  22
ATOM     22  C   UNL d   1      -6.006   1.866  -4.018  0.00  0.00     0.168 C 
BRANCH  22  23
ATOM     23  O   UNL d   1      -5.321   2.472  -5.108  0.00  0.00    -0.396 OA
ATOM     24  C   UNL d   1      -6.216   2.960  -6.095  0.00  0.00     0.201 C 
ENDBRANCH  22  23
ENDBRANCH  21  22
ENDBRANCH  20  21
ENDBRANCH  18  20
ENDBRANCH  16  18
ENDBRANCH  14  16
ENDBRANCH   1  14
TORSDOF 10
