REMARK  3 active torsions:
REMARK  status: ('A' for Active; 'I' for Inactive)
REMARK    1  A    between atoms: N_2  and  C_1 
REMARK    2  A    between atoms: C_14  and  C_5 
REMARK    3  A    between atoms: C_17  and  N_8 
ROOT
ATOM      1  N   UNL d   1       0.794  -3.589  -0.058  0.00  0.00    -0.365 N 
ATOM      2  HN  UNL d   1       1.754  -3.309   0.146  1.00  0.00     0.165 HD
ATOM      3  C   UNL d   1      -0.103  -2.688  -0.300  0.00  0.00     0.107 C 
ENDROOT
BRANCH   1   4
ATOM      4  C   UNL d   1       0.451  -4.951  -0.075  0.00  0.00     0.034 A 
ATOM      5  C   UNL d   1      -0.483  -5.513  -0.954  0.00  0.00     0.069 A 
ATOM      6  C   UNL d   1      -0.742  -6.885  -0.933  0.00  0.00     0.104 A 
ATOM      7  O   UNL d   1      -1.701  -7.339  -1.803  0.00  0.00    -0.346 OA
ATOM      8  C   UNL d   1      -0.032  -7.724  -0.071  0.00  0.00     0.102 A 
ATOM      9  C   UNL d   1      -2.122  -8.665  -1.467  0.00  0.00     0.202 C 
ATOM     10  C   UNL d   1      -0.923  -9.553  -1.178  0.00  0.00     0.202 C 
ATOM     11  O   UNL d   1      -0.208  -9.082  -0.029  0.00  0.00    -0.346 OA
ATOM     12  C   UNL d   1       0.907  -7.182   0.801  0.00  0.00     0.042 A 
ATOM     13  C   UNL d   1       1.145  -5.803   0.794  0.00  0.00     0.032 A 
ENDBRANCH   1   4
BRANCH   3  14
ATOM     14  C   UNL d   1       0.267  -1.291  -0.290  0.00  0.00     0.022 A 
ATOM     15  S   UNL d   1      -0.890  -0.103  -0.711  0.00  0.00    -0.065 SA
ATOM     16  C   UNL d   1       0.231   1.154  -0.480  0.00  0.00     0.144 A 
ATOM     17  C   UNL d   1       1.470   0.698  -0.085  0.00  0.00     0.045 A 
ATOM     18  C   UNL d   1       1.489  -0.724   0.021  0.00  0.00     0.023 A 
BRANCH  16  19
ATOM     19  N   UNL d   1      -0.146   2.528  -0.695  0.00  0.00    -0.108 N 
ATOM     20  O   UNL d   1       0.735   3.376  -0.495  0.00  0.00    -0.531 OA
ATOM     21  O   UNL d   1      -1.302   2.770  -1.060  0.00  0.00    -0.531 OA
ENDBRANCH  16  19
ENDBRANCH   3  14
TORSDOF 3
