REMARK  1 active torsions:
REMARK  status: ('A' for Active; 'I' for Inactive)
REMARK    1  A    between atoms: C_5  and  N_1 
ROOT
ATOM      1  N   UNL d   1       0.392  -1.040  -0.058  0.00  0.00    -0.242 N 
ATOM      2  C   UNL d   1      -0.741  -0.492  -0.624  0.00  0.00     0.293 A 
ATOM      3  C   UNL d   1       1.227  -0.144   0.596  0.00  0.00     0.241 A 
ATOM      4  S   UNL d   1      -0.795   1.245  -0.401  0.00  0.00    -0.059 SA
ATOM      5  C   UNL d   1       0.747   1.276   0.495  0.00  0.00     0.187 A 
ATOM      6  O   UNL d   1      -1.672  -1.046  -1.188  0.00  0.00    -0.259 OA
ATOM      7  O   UNL d   1       2.286  -0.383   1.174  0.00  0.00    -0.272 OA
ENDROOT
BRANCH   1   8
ATOM      8  C   UNL d   1       0.690  -2.448  -0.151  0.00  0.00     0.046 A 
ATOM      9  C   UNL d   1       0.153  -3.245  -1.178  0.00  0.00     0.030 A 
ATOM     10  C   UNL d   1       0.473  -4.603  -1.298  0.00  0.00     0.002 A 
ATOM     11  C   UNL d   1       1.334  -5.202  -0.388  0.00  0.00     0.000 A 
ATOM     12  C   UNL d   1       1.866  -4.444   0.647  0.00  0.00     0.002 A 
ATOM     13  C   UNL d   1       1.546  -3.086   0.763  0.00  0.00     0.030 A 
ENDBRANCH   1   8
TORSDOF 1
