REMARK  7 active torsions:
REMARK  status: ('A' for Active; 'I' for Inactive)
REMARK    1  A    between atoms: O_15  and  C_3 
REMARK    2  A    between atoms: S_11  and  C_4 
REMARK    3  A    between atoms: C_18  and  C_8 
REMARK    4  A    between atoms: C_9  and  C_10 
REMARK    5  A    between atoms: C_10  and  C_13 
REMARK    6  A    between atoms: C_13  and  S_11 
REMARK    7  A    between atoms: C_21  and  C_18 
ROOT
ATOM      1  N   UNL d   1      -0.681   1.244   0.305  0.00  0.00    -0.317 N 
ATOM      2  HN  UNL d   1      -1.140   2.154   0.359  1.00  0.00     0.170 HD
ATOM      3  C   UNL d   1      -1.357   0.112   0.092  0.00  0.00     0.149 A 
ATOM      4  C   UNL d   1       0.640   1.099   0.442  0.00  0.00     0.146 A 
ATOM      5  C   UNL d   1      -0.818  -1.155   0.009  0.00  0.00     0.011 A 
ATOM      6  N   UNL d   1       1.292  -0.072   0.347  0.00  0.00    -0.340 N 
ATOM      7  HN  UNL d   1       2.307  -0.116   0.435  1.00  0.00     0.168 HD
ATOM      8  C   UNL d   1       0.562  -1.191   0.133  0.00  0.00     0.021 A 
ATOM      9  C   UNL d   1      -1.663  -2.377  -0.151  0.00  0.00     0.055 C 
ENDROOT
BRANCH   4  10
ATOM     10  S   UNL d   1       1.573   2.550   0.865  0.00  0.00    -0.086 SA
BRANCH  10  11
ATOM     11  C   UNL d   1       3.253   1.907   0.591  0.00  0.00     0.166 C 
BRANCH  11  12
ATOM     12  C   UNL d   1       4.327   2.938   0.887  0.00  0.00     0.170 C 
ATOM     13  O   UNL d   1       4.109   4.142   1.021  0.00  0.00    -0.291 OA
BRANCH  12  14
ATOM     14  C   UNL d   1       5.735   2.474   1.087  0.00  0.00     0.032 A 
ATOM     15  C   UNL d   1       6.378   1.479   0.335  0.00  0.00     0.048 A 
ATOM     16 CL   UNL d   1       5.669   0.657  -1.006  0.00  0.00    -0.083 Cl
ATOM     17  C   UNL d   1       7.710   1.143   0.612  0.00  0.00     0.025 A 
ATOM     18  C   UNL d   1       8.414   1.797   1.623  0.00  0.00     0.002 A 
ATOM     19  C   UNL d   1       7.792   2.797   2.362  0.00  0.00     0.001 A 
ATOM     20  C   UNL d   1       6.463   3.135   2.093  0.00  0.00     0.017 A 
ENDBRANCH  12  14
ENDBRANCH  11  12
ENDBRANCH  10  11
ENDBRANCH   4  10
BRANCH   3  21
ATOM     21  O   UNL d   1      -2.695   0.313  -0.025  0.00  0.00    -0.346 OA
ATOM     22  H   UNL d   1      -2.737   1.282   0.075  0.00  0.00     0.219 HD
ENDBRANCH   3  21
BRANCH   8  23
ATOM     23  C   UNL d   1       1.363  -2.468   0.063  0.00  0.00     0.057 C 
BRANCH  23  24
ATOM     24  C   UNL d   1       1.741  -2.902  -1.356  0.00  0.00     0.002 C 
ATOM     25  C   UNL d   1       2.670  -1.929  -2.067  0.00  0.00     0.005 C 
ENDBRANCH  23  24
ENDBRANCH   8  23
TORSDOF 7
