REMARK  5 active torsions:
REMARK  status: ('A' for Active; 'I' for Inactive)
REMARK    1  A    between atoms: C_2  and  N_1 
REMARK       I    between atoms: C_4  and  N_1 
REMARK    2  A    between atoms: N_7  and  C_2 
REMARK    3  A    between atoms: C_3  and  N_7 
REMARK    4  A    between atoms: C_14  and  C_4 
REMARK    5  A    between atoms: N_5  and  C_6 
ROOT
ATOM      1  N   UNL d   1       0.147  -2.777   0.743  0.00  0.00    -0.331 N 
ATOM      2  H   UNL d   1      -0.184  -2.834  -0.216  0.00  0.00     0.168 HD
ENDROOT
BRANCH   1   3
ATOM      3  C   UNL d   1       1.578  -2.814   0.783  0.00  0.00     0.062 A 
ATOM      4  C   UNL d   1       2.308  -3.409  -0.275  0.00  0.00     0.065 A 
ATOM      5  C   UNL d   1       3.696  -3.197  -0.369  0.00  0.00     0.033 A 
ATOM      6  C   UNL d   1       4.364  -2.431   0.585  0.00  0.00     0.009 A 
ATOM      7  C   UNL d   1       3.664  -1.871   1.654  0.00  0.00    -0.060 A 
ATOM      8  C   UNL d   1       2.281  -2.085   1.759  0.00  0.00     0.038 A 
ATOM      9  C   UNL d   1       4.401  -1.049   2.671  0.00  0.00     0.048 C 
BRANCH   4  10
ATOM     10  N   UNL d   1       1.699  -4.239  -1.267  0.00  0.00    -0.331 N 
ATOM     11  C   UNL d   1       2.137  -4.405  -2.570  0.00  0.00     0.097 A 
ATOM     12  C   UNL d   1       1.285  -5.262  -3.232  0.00  0.00     0.019 A 
ATOM     13  C   UNL d   1       0.307  -5.673  -2.305  0.00  0.00     0.019 A 
ATOM     14  C   UNL d   1       0.591  -5.050  -1.109  0.00  0.00     0.097 A 
ENDBRANCH   4  10
ENDBRANCH   1   3
BRANCH   1  15
ATOM     15  C   UNL d   1      -0.632  -1.965   1.497  0.00  0.00     0.179 C 
ATOM     16  S   UNL d   1      -1.441  -0.682   0.791  0.00  0.00    -0.040 SA
BRANCH  15  17
ATOM     17  N   UNL d   1      -0.889  -2.245   2.811  0.00  0.00    -0.299 N 
ATOM     18  C   UNL d   1      -0.745  -3.446   3.503  0.00  0.00     0.257 C 
ATOM     19  O   UNL d   1      -0.078  -4.408   3.146  0.00  0.00    -0.267 OA
ATOM     20  H   UNL d   1      -1.567  -1.598   3.186  0.00  0.00     0.171 HD
BRANCH  18  21
ATOM     21  C   UNL d   1      -1.531  -3.530   4.774  0.00  0.00     0.032 A 
ATOM     22  C   UNL d   1      -2.058  -4.774   5.152  0.00  0.00     0.017 A 
ATOM     23  C   UNL d   1      -2.848  -4.886   6.299  0.00  0.00     0.001 A 
ATOM     24  C   UNL d   1      -3.109  -3.762   7.080  0.00  0.00     0.000 A 
ATOM     25  C   UNL d   1      -2.569  -2.525   6.724  0.00  0.00     0.001 A 
ATOM     26  C   UNL d   1      -1.778  -2.408   5.578  0.00  0.00     0.017 A 
ENDBRANCH  18  21
ENDBRANCH  15  17
ENDBRANCH   1  15
TORSDOF 5
