REMARK  2 active torsions:
REMARK  status: ('A' for Active; 'I' for Inactive)
REMARK    1  A    between atoms: C_2  and  S_1 
REMARK    2  A    between atoms: N_7  and  S_1 
ROOT
ATOM      1  S   UNL d   1       1.244  -0.029  -0.218  0.00  0.00     0.250 S 
ATOM      2  O   UNL d   1       1.842  -0.038   1.099  0.00  0.00    -0.205 OA
ATOM      3  O   UNL d   1       2.042   0.177  -1.405  0.00  0.00    -0.205 OA
ENDROOT
BRANCH   1   4
ATOM      4  C   UNL d   1       0.096   1.327  -0.176  0.00  0.00     0.118 A 
ATOM      5  S   UNL d   1      -0.836   1.569  -1.595  0.00  0.00    -0.064 SA
ATOM      6  C   UNL d   1      -1.645   2.888  -0.901  0.00  0.00     0.093 A 
ATOM      7 CL   UNL d   1      -2.834   3.714  -1.826  0.00  0.00    -0.075 Cl
ATOM      8  C   UNL d   1      -1.236   3.140   0.382  0.00  0.00     0.041 A 
ATOM      9  C   UNL d   1      -0.224   2.244   0.810  0.00  0.00     0.053 A 
ATOM     10 BR   UNL d   1      -1.889   4.492   1.525  0.00  0.00    -0.049 Br
ENDBRANCH   1   4
BRANCH   1  11
ATOM     11  N   UNL d   1       0.337  -1.453  -0.406  0.00  0.00    -0.202 NA
ATOM     12  C   UNL d   1      -0.541  -1.843   0.740  0.00  0.00     0.134 C 
ATOM     13  C   UNL d   1       0.235  -2.616   1.815  0.00  0.00     0.183 C 
ATOM     14  O   UNL d   1       0.908  -3.753   1.257  0.00  0.00    -0.389 OA
ATOM     15  C   UNL d   1       1.830  -3.346   0.234  0.00  0.00     0.183 C 
ATOM     16  C   UNL d   1       1.096  -2.638  -0.907  0.00  0.00     0.134 C 
ENDBRANCH   1  11
TORSDOF 2
