REMARK  3 active torsions:
REMARK  status: ('A' for Active; 'I' for Inactive)
REMARK    1  A    between atoms: C_2  and  C_1 
REMARK       I    between atoms: N_3  and  C_1 
REMARK       I    between atoms: C_4  and  N_5 
REMARK    2  A    between atoms: C_11  and  C_4 
REMARK    3  A    between atoms: N_5  and  C_12 
ROOT
ATOM      1  C   UNL d   1       1.203  -0.108   0.141  0.00  0.00     0.255 C 
ATOM      2  N   UNL d   1       0.327  -0.550   1.142  0.00  0.00    -0.348 N 
ATOM      3  O   UNL d   1       0.959  -0.205  -1.058  0.00  0.00    -0.267 OA
ATOM      4  C   UNL d   1       0.585  -0.488   2.581  0.00  0.00     0.128 C 
ATOM      5  C   UNL d   1      -0.844  -1.330   0.741  0.00  0.00     0.128 C 
ATOM      6  C   UNL d   1      -1.888  -0.862   3.009  0.00  0.00     0.087 C 
ATOM      7  C   UNL d   1      -2.100  -0.906   1.493  0.00  0.00     0.045 C 
ATOM      8  C   UNL d   1      -0.644  -0.049   3.363  0.00  0.00     0.045 C 
ENDROOT
BRANCH   6   9
ATOM      9  N   UNL d   1      -1.829  -2.198   3.599  0.00  0.00    -0.352 N 
ATOM     10  C   UNL d   1      -2.970  -2.832   4.052  0.00  0.00     0.252 C 
ATOM     11  O   UNL d   1      -4.088  -2.329   3.974  0.00  0.00    -0.268 OA
ATOM     12  H   UNL d   1      -0.997  -2.755   3.460  0.00  0.00     0.163 HD
BRANCH  10  13
ATOM     13  C   UNL d   1      -2.797  -4.190   4.639  0.00  0.00     0.032 A 
ATOM     14  C   UNL d   1      -1.590  -4.610   5.214  0.00  0.00     0.017 A 
ATOM     15  C   UNL d   1      -1.491  -5.885   5.780  0.00  0.00     0.001 A 
ATOM     16  C   UNL d   1      -2.595  -6.738   5.781  0.00  0.00     0.000 A 
ATOM     17  C   UNL d   1      -3.802  -6.320   5.224  0.00  0.00     0.001 A 
ATOM     18  C   UNL d   1      -3.905  -5.049   4.658  0.00  0.00     0.017 A 
ENDBRANCH  10  13
ENDBRANCH   6   9
BRANCH   1  19
ATOM     19  C   UNL d   1       2.519   0.458   0.532  0.00  0.00     0.049 A 
ATOM     20  C   UNL d   1       2.932   1.739   0.145  0.00  0.00     0.026 A 
ATOM     21 BR   UNL d   1       1.851   2.917  -0.878  0.00  0.00    -0.050 Br
ATOM     22  C   UNL d   1       4.188   2.212   0.548  0.00  0.00     0.020 A 
ATOM     23  C   UNL d   1       5.024   1.418   1.336  0.00  0.00     0.001 A 
ATOM     24  C   UNL d   1       4.626   0.134   1.699  0.00  0.00     0.001 A 
ATOM     25  C   UNL d   1       3.392  -0.355   1.275  0.00  0.00     0.018 A 
ENDBRANCH   1  19
TORSDOF 3
