REMARK  6 active torsions:
REMARK  status: ('A' for Active; 'I' for Inactive)
REMARK    1  A    between atoms: C_10  and  C_3 
REMARK    2  A    between atoms: C_11  and  C_4 
REMARK    3  A    between atoms: C_8  and  N_5 
REMARK    4  A    between atoms: N_9  and  C_11 
REMARK    5  A    between atoms: O_22  and  C_14 
REMARK    6  A    between atoms: O_23  and  C_19 
ROOT
ATOM      1  C   UNL d   1      -0.042  -2.248  -0.445  0.00  0.00     0.337 C 
ENDROOT
BRANCH   1   2
ATOM      2  N   UNL d   1       1.026  -3.167  -0.014  0.00  0.00     0.097 N 
ATOM      3  C   UNL d   1       2.142  -3.259  -0.993  0.00  0.00     0.292 C 
ATOM      4  C   UNL d   1       3.135  -2.061  -1.075  0.00  0.00     0.153 C 
ATOM      5  N   UNL d   1       3.565  -1.665   0.276  0.00  0.00    -0.375 N 
ATOM      6  C   UNL d   1       2.449  -1.429   1.200  0.00  0.00     0.153 C 
ATOM      7  C   UNL d   1       1.583  -2.708   1.285  0.00  0.00     0.292 C 
BRANCH   5   8
ATOM      8  C   UNL d   1       4.852  -1.240   0.590  0.00  0.00     0.064 A 
ATOM      9  C   UNL d   1       5.799  -0.721  -0.331  0.00  0.00     0.094 A 
ATOM     10  C   UNL d   1       7.085  -0.337   0.103  0.00  0.00     0.039 A 
ATOM     11  C   UNL d   1       7.472  -0.481   1.432  0.00  0.00     0.003 A 
ATOM     12  C   UNL d   1       6.578  -1.007   2.346  0.00  0.00     0.002 A 
ATOM     13  C   UNL d   1       5.299  -1.380   1.924  0.00  0.00     0.032 A 
BRANCH   9  14
ATOM     14  O   UNL d   1       5.407  -0.529  -1.639  0.00  0.00    -0.354 OA
ATOM     15  C   UNL d   1       6.443  -0.559  -2.613  0.00  0.00     0.210 C 
ENDBRANCH   9  14
ENDBRANCH   5   8
ENDBRANCH   1   2
BRANCH   1  16
ATOM     16  C   UNL d   1      -0.837  -2.682  -1.647  0.00  0.00     0.079 A 
ATOM     17  N   UNL d   1      -0.774  -2.065  -2.806  0.00  0.00    -0.351 N 
ATOM     18  C   UNL d   1      -1.776  -2.510  -3.656  0.00  0.00     0.049 A 
ATOM     19  HN  UNL d   1      -0.081  -1.356  -3.047  1.00  0.00     0.166 HD
ATOM     20  C   UNL d   1      -2.545  -3.538  -3.142  0.00  0.00     0.081 A 
ATOM     21  S   UNL d   1      -2.020  -3.926  -1.550  0.00  0.00    -0.085 SA
BRANCH  18  22
ATOM     22  C   UNL d   1      -1.969  -1.856  -4.947  0.00  0.00    -0.009 A 
ATOM     23  C   UNL d   1      -0.988  -0.954  -5.392  0.00  0.00     0.016 A 
ATOM     24  C   UNL d   1      -1.147  -0.232  -6.578  0.00  0.00     0.037 A 
ATOM     25  C   UNL d   1      -2.295  -0.398  -7.345  0.00  0.00     0.068 A 
ATOM     26  C   UNL d   1      -3.264  -1.316  -6.930  0.00  0.00     0.037 A 
ATOM     27  C   UNL d   1      -3.109  -2.035  -5.738  0.00  0.00     0.016 A 
BRANCH  25  28
ATOM     28  O   UNL d   1      -2.568   0.258  -8.513  0.00  0.00    -0.356 OA
ATOM     29  C   UNL d   1      -1.869   1.482  -8.714  0.00  0.00     0.210 C 
ENDBRANCH  25  28
ENDBRANCH  18  22
ENDBRANCH   1  16
TORSDOF 6
