REMARK  7 active torsions:
REMARK  status: ('A' for Active; 'I' for Inactive)
REMARK    1  A    between atoms: N_2  and  C_1 
REMARK    2  A    between atoms: C_7  and  C_4 
REMARK    3  A    between atoms: O_17  and  C_7 
REMARK    4  A    between atoms: C_12  and  O_20 
REMARK    5  A    between atoms: C_21  and  O_17 
REMARK    6  A    between atoms: O_20  and  C_22 
REMARK    7  A    between atoms: C_22  and  C_21 
ROOT
ATOM      1  O   UNL d   1      -0.128  -3.486  -0.086  0.00  0.00    -0.314 OA
ENDROOT
BRANCH   1   2
ATOM      2  C   UNL d   1       0.316  -2.997  -1.280  0.00  0.00     0.317 C 
ATOM      3  O   UNL d   1       0.315  -3.626  -2.333  0.00  0.00    -0.257 OA
BRANCH   2   4
ATOM      4  C   UNL d   1       0.832  -1.656  -1.121  0.00  0.00     0.153 A 
ATOM      5  O   UNL d   1       0.834  -1.057   0.116  0.00  0.00    -0.282 OA
ATOM      6  C   UNL d   1       1.380   0.177  -0.053  0.00  0.00     0.215 A 
ATOM      7  C   UNL d   1       1.737   0.400  -1.361  0.00  0.00     0.066 A 
ATOM      8  C   UNL d   1       1.385  -0.788  -2.052  0.00  0.00     0.048 A 
BRANCH   6   9
ATOM      9  N   UNL d   1       1.486   0.995   1.114  0.00  0.00    -0.090 N 
ATOM     10  O   UNL d   1       1.970   2.123   0.947  0.00  0.00    -0.530 OA
ATOM     11  O   UNL d   1       1.098   0.523   2.189  0.00  0.00    -0.530 OA
ENDBRANCH   6   9
ENDBRANCH   2   4
ENDBRANCH   1   2
BRANCH   1  12
ATOM     12  C   UNL d   1      -0.591  -4.849  -0.097  0.00  0.00     0.205 C 
BRANCH  12  13
ATOM     13  C   UNL d   1       0.592  -5.817  -0.098  0.00  0.00     0.202 C 
BRANCH  13  14
ATOM     14  O   UNL d   1       0.128  -7.168  -0.108  0.00  0.00    -0.347 OA
BRANCH  14  15
ATOM     15  C   UNL d   1       1.104  -8.131  -0.208  0.00  0.00     0.090 A 
ATOM     16  C   UNL d   1       0.866  -9.379   0.391  0.00  0.00     0.069 A 
ATOM     17  C   UNL d   1       1.811 -10.408   0.305  0.00  0.00     0.050 A 
ATOM     18 CL   UNL d   1      -0.591  -9.693   1.268  0.00  0.00    -0.081 Cl
ATOM     19  C   UNL d   1       2.994 -10.197  -0.395  0.00  0.00     0.035 A 
ATOM     20  C   UNL d   1       3.236  -8.975  -1.016  0.00  0.00     0.026 A 
ATOM     21 CL   UNL d   1       4.165 -11.451  -0.507  0.00  0.00    -0.084 Cl
ATOM     22  C   UNL d   1       2.291  -7.950  -0.929  0.00  0.00     0.040 A 
ENDBRANCH  14  15
ENDBRANCH  13  14
ENDBRANCH  12  13
ENDBRANCH   1  12
TORSDOF 7
