REMARK  5 active torsions:
REMARK  status: ('A' for Active; 'I' for Inactive)
REMARK    1  A    between atoms: C_5  and  N_1 
REMARK    2  A    between atoms: C_2  and  C_10 
REMARK    3  A    between atoms: O_8  and  C_2 
REMARK    4  A    between atoms: C_4  and  C_11 
REMARK    5  A    between atoms: C_11  and  O_8 
ROOT
ATOM      1  C   UNL d   1      -1.861   2.287  -4.429  0.00  0.00     0.293 C 
ATOM      2  O   UNL d   1      -1.514   1.990  -5.568  0.00  0.00    -0.259 OA
ENDROOT
BRANCH   1   3
ATOM      3  C   UNL d   1      -1.149   1.705  -3.248  0.00  0.00     0.039 A 
ATOM      4  C   UNL d   1      -1.442   1.982  -1.904  0.00  0.00     0.020 A 
ATOM      5  C   UNL d   1      -0.688   1.375  -0.877  0.00  0.00     0.037 A 
ATOM      6  C   UNL d   1       0.358   0.492  -1.197  0.00  0.00     0.102 A 
ATOM      7  C   UNL d   1       0.655   0.211  -2.530  0.00  0.00     0.037 A 
ATOM      8  C   UNL d   1      -0.096   0.816  -3.540  0.00  0.00     0.020 A 
BRANCH   6   9
ATOM      9  N   UNL d   1       1.154  -0.147  -0.139  0.00  0.00    -0.116 N 
ATOM     10  O   UNL d   1       2.068  -0.913  -0.481  0.00  0.00    -0.532 OA
ATOM     11  O   UNL d   1       0.864   0.117   1.036  0.00  0.00    -0.532 OA
ENDBRANCH   6   9
ENDBRANCH   1   3
BRANCH   1  12
ATOM     12  O   UNL d   1      -2.870   3.141  -4.124  0.00  0.00    -0.313 OA
BRANCH  12  13
ATOM     13  C   UNL d   1      -3.505   3.768  -5.274  0.00  0.00     0.219 C 
BRANCH  13  14
ATOM     14  C   UNL d   1      -4.991   3.472  -5.396  0.00  0.00    -0.012 A 
ATOM     15  C   UNL d   1      -5.761   4.016  -6.448  0.00  0.00     0.044 A 
ATOM     16  C   UNL d   1      -7.115   3.692  -6.600  0.00  0.00     0.048 A 
ATOM     17 CL   UNL d   1      -5.075   5.097  -7.611  0.00  0.00    -0.084 Cl
ATOM     18  C   UNL d   1      -7.717   2.823  -5.698  0.00  0.00     0.035 A 
ATOM     19  C   UNL d   1      -6.984   2.289  -4.642  0.00  0.00     0.024 A 
ATOM     20 CL   UNL d   1      -9.372   2.393  -5.892  0.00  0.00    -0.084 Cl
ATOM     21  C   UNL d   1      -5.632   2.613  -4.492  0.00  0.00     0.013 A 
ENDBRANCH  13  14
ENDBRANCH  12  13
ENDBRANCH   1  12
TORSDOF 5
