REMARK  3 active torsions:
REMARK  status: ('A' for Active; 'I' for Inactive)
REMARK    1  A    between atoms: N_8  and  C_1 
REMARK       I    between atoms: C_4  and  N_7 
REMARK       I    between atoms: N_10  and  C_4 
REMARK    2  A    between atoms: C_19  and  C_9 
REMARK    3  A    between atoms: C_18  and  N_10 
ROOT
ATOM      1  C   UNL d   1       7.638  -2.481  -0.083  0.00  0.00     0.323 C 
ATOM      2  N   UNL d   1       6.286  -2.138  -0.066  0.00  0.00    -0.331 N 
ATOM      3  N   UNL d   1       3.655  -1.055   0.075  0.00  0.00    -0.363 N 
ATOM      4  N   UNL d   1       8.021  -3.357  -1.071  0.00  0.00    -0.309 N 
ATOM      5  O   UNL d   1       8.402  -2.020   0.763  0.00  0.00    -0.247 OA
ATOM      6  C   UNL d   1       5.326  -2.326  -1.179  0.00  0.00     0.147 C 
ATOM      7  C   UNL d   1       5.928  -1.079   0.897  0.00  0.00     0.147 C 
ATOM      8  C   UNL d   1       3.839  -2.255  -0.748  0.00  0.00     0.144 C 
ATOM      9  C   UNL d   1       4.449  -1.124   1.308  0.00  0.00     0.144 C 
ATOM     10  H   UNL d   1       7.333  -3.627  -1.747  0.00  0.00     0.170 HD
ENDROOT
BRANCH   3  11
ATOM     11  C   UNL d   1       2.396  -0.479   0.133  0.00  0.00     0.127 A 
ATOM     12  N   UNL d   1       1.327  -1.224  -0.236  0.00  0.00    -0.339 N 
ATOM     13  C   UNL d   1       0.115  -0.635  -0.263  0.00  0.00     0.060 A 
ATOM     14  HN  UNL d   1       1.437  -2.207  -0.487  1.00  0.00     0.167 HD
ATOM     15  C   UNL d   1      -1.005  -1.357  -0.665  0.00  0.00     0.032 A 
ATOM     16  C   UNL d   1      -0.055   0.720   0.096  0.00  0.00     0.059 A 
ATOM     17  C   UNL d   1      -2.269  -0.771  -0.732  0.00  0.00     0.002 A 
ATOM     18  C   UNL d   1      -2.428   0.564  -0.382  0.00  0.00     0.002 A 
ATOM     19  C   UNL d   1      -1.316   1.296   0.034  0.00  0.00     0.032 A 
ATOM     20  N   UNL d   1       0.988   1.472   0.473  0.00  0.00    -0.355 N 
ATOM     21  C   UNL d   1       2.215   0.885   0.455  0.00  0.00     0.053 A 
ATOM     22  HN  UNL d   1       0.866   2.443   0.761  1.00  0.00     0.166 HD
BRANCH  21  23
ATOM     23  C   UNL d   1       3.378   1.799   0.771  0.00  0.00     0.056 C 
ATOM     24  C   UNL d   1       3.212   3.223   0.260  0.00  0.00     0.011 C 
ENDBRANCH  21  23
ENDBRANCH   3  11
BRANCH   4  25
ATOM     25  C   UNL d   1       9.302  -3.925  -1.258  0.00  0.00     0.036 A 
ATOM     26  C   UNL d   1      10.395  -3.697  -0.417  0.00  0.00     0.029 A 
ATOM     27  C   UNL d   1      11.627  -4.306  -0.666  0.00  0.00     0.002 A 
ATOM     28  C   UNL d   1      11.783  -5.154  -1.760  0.00  0.00     0.000 A 
ATOM     29  C   UNL d   1      10.701  -5.392  -2.605  0.00  0.00     0.002 A 
ATOM     30  C   UNL d   1       9.470  -4.783  -2.354  0.00  0.00     0.029 A 
ENDBRANCH   4  25
TORSDOF 3
