REMARK  2 active torsions:
REMARK  status: ('A' for Active; 'I' for Inactive)
REMARK    1  A    between atoms: N_7  and  C_2 
REMARK       I    between atoms: C_8  and  N_7 
REMARK    2  A    between atoms: C_11  and  C_8 
ROOT
ATOM      1  O   UNL d   1       1.077   1.382  -0.238  0.00  0.00    -0.271 OA
ATOM      2  C   UNL d   1       2.360  -0.715  -0.091  0.00  0.00     0.112 C 
ATOM      3  C   UNL d   1       2.292   0.741  -0.422  0.00  0.00     0.315 C 
ATOM      4  C   UNL d   1      -0.113   0.646  -0.064  0.00  0.00     0.111 A 
ATOM      5  C   UNL d   1      -0.065  -0.743   0.021  0.00  0.00     0.004 A 
ATOM      6  C   UNL d   1       1.227  -1.407   0.099  0.00  0.00     0.050 C 
ATOM      7  C   UNL d   1      -1.330   1.331  -0.029  0.00  0.00     0.070 A 
ATOM      8  C   UNL d   1      -2.522   0.612   0.026  0.00  0.00     0.050 A 
ATOM      9  C   UNL d   1      -1.264  -1.462   0.067  0.00  0.00     0.038 A 
ATOM     10  C   UNL d   1      -2.483  -0.782   0.051  0.00  0.00     0.036 A 
ATOM     11  O   UNL d   1       3.303   1.342  -0.779  0.00  0.00    -0.257 OA
ATOM     12 CL   UNL d   1      -1.395   3.051  -0.053  0.00  0.00    -0.081 Cl
ATOM     13 CL   UNL d   1      -3.953  -1.674   0.060  0.00  0.00    -0.084 Cl
ENDROOT
BRANCH   2  14
ATOM     14  N   UNL d   1       3.643  -1.230  -0.010  0.00  0.00    -0.318 N 
ATOM     15  C   UNL d   1       4.035  -2.499   0.361  0.00  0.00     0.256 C 
ATOM     16  O   UNL d   1       3.284  -3.425   0.648  0.00  0.00    -0.267 OA
ATOM     17  H   UNL d   1       4.364  -0.558  -0.274  0.00  0.00     0.169 HD
BRANCH  15  18
ATOM     18  C   UNL d   1       5.503  -2.741   0.380  0.00  0.00     0.032 A 
ATOM     19  C   UNL d   1       6.422  -1.754   0.764  0.00  0.00     0.018 A 
ATOM     20  C   UNL d   1       7.793  -2.035   0.749  0.00  0.00     0.025 A 
ATOM     21  C   UNL d   1       8.241  -3.297   0.358  0.00  0.00     0.034 A 
ATOM     22  C   UNL d   1       7.332  -4.290  -0.000  0.00  0.00     0.025 A 
ATOM     23 CL   UNL d   1       9.928  -3.631   0.323  0.00  0.00    -0.084 Cl
ATOM     24  C   UNL d   1       5.963  -4.016   0.018  0.00  0.00     0.018 A 
ENDBRANCH  15  18
ENDBRANCH   2  14
TORSDOF 2
