REMARK  6 active torsions:
REMARK  status: ('A' for Active; 'I' for Inactive)
REMARK    1  A    between atoms: C_8  and  N_1 
REMARK    2  A    between atoms: C_2  and  C_3 
REMARK    3  A    between atoms: C_3  and  O_7 
REMARK    4  A    between atoms: O_7  and  N_4 
REMARK    5  A    between atoms: C_6  and  C_11 
REMARK    6  A    between atoms: N_18  and  C_6 
ROOT
ATOM      1  N   UNL d   1      -3.129  -4.719   1.871  0.00  0.00    -0.246 N 
ATOM      2  HN  UNL d   1      -3.550  -5.572   2.239  1.00  0.00     0.196 HD
ATOM      3  C   UNL d   1      -2.108  -4.123   2.413  0.00  0.00     0.109 C 
ENDROOT
BRANCH   3   4
ATOM      4  C   UNL d   1      -1.553  -4.718   3.681  0.00  0.00     0.004 A 
ATOM      5  C   UNL d   1      -2.082  -5.926   4.167  0.00  0.00     0.017 A 
ATOM      6  C   UNL d   1      -1.619  -6.483   5.364  0.00  0.00     0.037 A 
ATOM      7  C   UNL d   1      -0.612  -5.828   6.082  0.00  0.00     0.102 A 
ATOM      8  C   UNL d   1      -0.067  -4.628   5.607  0.00  0.00     0.037 A 
ATOM      9  C   UNL d   1      -0.543  -4.074   4.411  0.00  0.00     0.017 A 
BRANCH   7  10
ATOM     10  N   UNL d   1      -0.133  -6.396   7.349  0.00  0.00    -0.116 N 
ATOM     11  O   UNL d   1       0.772  -5.792   7.944  0.00  0.00    -0.532 OA
ATOM     12  O   UNL d   1      -0.661  -7.442   7.751  0.00  0.00    -0.532 OA
ENDBRANCH   7  10
ENDBRANCH   3   4
BRANCH   3  13
ATOM     13  N   UNL d   1      -1.531  -2.992   1.879  0.00  0.00    -0.286 NA
ATOM     14  H   UNL d   1      -1.856  -2.812   0.933  0.00  0.00     0.125 HD
ATOM     15  H   UNL d   1      -0.522  -2.934   1.939  0.00  0.00     0.125 HD
ENDBRANCH   3  13
BRANCH   1  16
ATOM     16  O   UNL d   1      -3.588  -4.051   0.718  0.00  0.00    -0.193 OA
BRANCH  16  17
ATOM     17  C   UNL d   1      -4.511  -4.827   0.078  0.00  0.00     0.316 C 
ATOM     18  O   UNL d   1      -4.869  -5.960   0.373  0.00  0.00    -0.257 OA
BRANCH  17  19
ATOM     19  C   UNL d   1      -5.164  -4.073  -1.019  0.00  0.00     0.063 A 
ATOM     20  C   UNL d   1      -4.517  -3.174  -1.876  0.00  0.00     0.050 A 
ATOM     21 CL   UNL d   1      -2.824  -2.828  -1.804  0.00  0.00    -0.083 Cl
ATOM     22  C   UNL d   1      -5.245  -2.538  -2.893  0.00  0.00     0.025 A 
ATOM     23  C   UNL d   1      -6.605  -2.800  -3.067  0.00  0.00     0.002 A 
ATOM     24  C   UNL d   1      -7.250  -3.703  -2.228  0.00  0.00     0.001 A 
ATOM     25  C   UNL d   1      -6.534  -4.337  -1.212  0.00  0.00     0.019 A 
ENDBRANCH  17  19
ENDBRANCH  16  17
ENDBRANCH   1  16
TORSDOF 6
