REMARK  9 active torsions:
REMARK  status: ('A' for Active; 'I' for Inactive)
REMARK    1  A    between atoms: C_3  and  C_1 
REMARK    2  A    between atoms: C_2  and  C_4 
REMARK    3  A    between atoms: C_5  and  N_8 
REMARK    4  A    between atoms: N_19  and  C_5 
REMARK    5  A    between atoms: O_12  and  C_7 
REMARK    6  A    between atoms: N_8  and  C_22 
REMARK    7  A    between atoms: C_23  and  O_12 
REMARK    8  A    between atoms: C_28  and  N_19 
REMARK    9  A    between atoms: C_20  and  C_28 
ROOT
ATOM      1  C   UNL d   1      -1.544   6.970  -4.764  0.00  0.00     0.034 A 
ATOM      2  C   UNL d   1      -0.001   5.190  -3.234  0.00  0.00     0.076 A 
ATOM      3  C   UNL d   1      -0.162   7.138  -4.673  0.00  0.00     0.032 A 
ATOM      4  C   UNL d   1      -2.147   5.894  -4.102  0.00  0.00     0.032 A 
ATOM      5  C   UNL d   1       0.607   6.246  -3.915  0.00  0.00     0.039 A 
ATOM      6  C   UNL d   1      -1.380   5.003  -3.348  0.00  0.00     0.039 A 
ENDROOT
BRANCH   2   7
ATOM      7  O   UNL d   1       0.840   4.342  -2.547  0.00  0.00    -0.311 OA
BRANCH   7   8
ATOM      8  C   UNL d   1       0.398   3.736  -1.393  0.00  0.00     0.077 A 
ATOM      9  C   UNL d   1       0.866   2.444  -1.146  0.00  0.00     0.053 A 
ATOM     10  C   UNL d   1       0.478   1.750   0.013  0.00  0.00     0.051 A 
ATOM     11  C   UNL d   1      -0.395   2.376   0.918  0.00  0.00     0.032 A 
ATOM     12  C   UNL d   1      -0.853   3.686   0.692  0.00  0.00     0.051 A 
ATOM     13  C   UNL d   1      -0.421   4.368  -0.455  0.00  0.00     0.053 A 
BRANCH  10  14
ATOM     14  C   UNL d   1       1.002   0.356   0.267  0.00  0.00     0.417 C 
ATOM     15  F   UNL d   1       0.524  -0.200   1.416  0.00  0.00    -0.166 F 
ATOM     16  F   UNL d   1       2.359   0.321   0.373  0.00  0.00    -0.166 F 
ATOM     17  F   UNL d   1       0.679  -0.511  -0.729  0.00  0.00    -0.166 F 
ENDBRANCH  10  14
BRANCH  12  18
ATOM     18  C   UNL d   1      -1.812   4.364   1.640  0.00  0.00     0.417 C 
ATOM     19  F   UNL d   1      -2.086   3.630   2.752  0.00  0.00    -0.166 F 
ATOM     20  F   UNL d   1      -1.347   5.563   2.084  0.00  0.00    -0.166 F 
ATOM     21  F   UNL d   1      -3.015   4.620   1.054  0.00  0.00    -0.166 F 
ENDBRANCH  12  18
ENDBRANCH   7   8
ENDBRANCH   2   7
BRANCH   1  22
ATOM     22  N   UNL d   1      -2.365   7.749  -5.596  0.00  0.00    -0.333 N 
ATOM     23  H   UNL d   1      -3.287   7.374  -5.785  0.00  0.00     0.168 HD
BRANCH  22  24
ATOM     24  C   UNL d   1      -2.208   9.023  -6.071  0.00  0.00     0.172 C 
ATOM     25  S   UNL d   1      -1.405  10.293  -5.348  0.00  0.00    -0.041 SA
BRANCH  24  26
ATOM     26  N   UNL d   1      -2.867   9.262  -7.256  0.00  0.00    -0.364 N 
ATOM     27  H   UNL d   1      -2.768  10.226  -7.552  0.00  0.00     0.162 HD
BRANCH  26  28
ATOM     28  C   UNL d   1      -2.896   8.296  -8.340  0.00  0.00     0.148 C 
BRANCH  28  29
ATOM     29  C   UNL d   1      -4.136   7.465  -8.250  0.00  0.00    -0.018 C 
ATOM     30  C   UNL d   1      -4.137   6.139  -8.067  0.00  0.00     0.008 C 
ENDBRANCH  28  29
ENDBRANCH  26  28
ENDBRANCH  24  26
ENDBRANCH  22  24
ENDBRANCH   1  22
TORSDOF 9
