REMARK  1 active torsions:
REMARK  status: ('A' for Active; 'I' for Inactive)
REMARK       I    between atoms: N_2  and  C_1 
REMARK       I    between atoms: N_5  and  C_1 
REMARK    1  A    between atoms: C_4  and  N_2 
ROOT
ATOM      1  C   UNL d   1       0.918   1.690   3.111  0.00  0.00     0.082 A 
ATOM      2  C   UNL d   1       1.217   1.565   1.739  0.00  0.00     0.059 A 
ATOM      3  C   UNL d   1       1.529   2.699   3.871  0.00  0.00     0.058 A 
ATOM      4 CL   UNL d   1      -0.184   0.560   3.843  0.00  0.00    -0.080 Cl
ATOM      5 CL   UNL d   1       1.249   2.882   5.568  0.00  0.00    -0.082 Cl
ATOM      6  C   UNL d   1       2.085   2.488   1.144  0.00  0.00     0.031 A 
ATOM      7  C   UNL d   1       2.678   3.500   1.902  0.00  0.00     0.004 A 
ATOM      8  C   UNL d   1       2.409   3.599   3.264  0.00  0.00     0.026 A 
ENDROOT
BRANCH   2   9
ATOM      9  N   UNL d   1       0.615   0.522   0.991  0.00  0.00    -0.307 N 
ATOM     10  C   UNL d   1       1.143  -0.071  -0.132  0.00  0.00     0.322 C 
ATOM     11  N   UNL d   1       0.316  -1.027  -0.711  0.00  0.00    -0.343 N 
ATOM     12  O   UNL d   1       2.270   0.161  -0.568  0.00  0.00    -0.247 OA
ATOM     13  C   UNL d   1       0.885  -1.921  -1.703  0.00  0.00     0.154 C 
ATOM     14  C   UNL d   1      -1.137  -1.025  -0.612  0.00  0.00     0.154 C 
ATOM     15  H   UNL d   1      -0.020  -0.068   1.513  0.00  0.00     0.170 HD
ENDBRANCH   2   9
TORSDOF 1
