REMARK  13 active torsions:
REMARK  status: ('A' for Active; 'I' for Inactive)
REMARK    1  A    between atoms: C_19  and  C_1 
REMARK    2  A    between atoms: C_2  and  C_20 
REMARK    3  A    between atoms: O_13  and  C_3 
REMARK    4  A    between atoms: O_14  and  C_4 
REMARK    5  A    between atoms: O_15  and  C_9 
REMARK    6  A    between atoms: O_16  and  C_10 
REMARK    7  A    between atoms: O_17  and  C_22 
REMARK    8  A    between atoms: C_24  and  O_17 
REMARK    9  A    between atoms: O_18  and  C_23 
REMARK   10  A    between atoms: C_21  and  O_18 
REMARK   11  A    between atoms: C_22  and  C_19 
REMARK   12  A    between atoms: C_20  and  C_21 
REMARK   13  A    between atoms: C_23  and  C_24 
ROOT
ATOM      1  C   UNL d   1       6.137  -3.979   0.926  0.00  0.00     0.193 C 
ENDROOT
BRANCH   1   2
ATOM      2  O   UNL d   1       6.189  -5.404   0.995  0.00  0.00    -0.389 OA
BRANCH   2   3
ATOM      3  C   UNL d   1       7.507  -5.953   0.875  0.00  0.00     0.172 C 
BRANCH   3   4
ATOM      4  C   UNL d   1       8.484  -5.484   1.961  0.00  0.00     0.067 C 
BRANCH   4   5
ATOM      5  C   UNL d   1       9.824  -6.182   1.885  0.00  0.00    -0.020 A 
ATOM      6  C   UNL d   1      10.955  -5.766   1.169  0.00  0.00     0.074 A 
ATOM      7  C   UNL d   1      12.114  -6.563   1.209  0.00  0.00     0.040 A 
ATOM      8  C   UNL d   1      12.176  -7.760   1.922  0.00  0.00     0.039 A 
ATOM      9  C   UNL d   1      11.063  -8.194   2.622  0.00  0.00     0.068 A 
ATOM     10  C   UNL d   1       9.906  -7.410   2.598  0.00  0.00     0.046 A 
BRANCH   6  11
ATOM     11  O   UNL d   1      11.175  -4.692   0.361  0.00  0.00    -0.355 OA
ATOM     12  C   UNL d   1      10.282  -3.607   0.260  0.00  0.00     0.210 C 
ENDBRANCH   6  11
BRANCH   9  13
ATOM     13  O   UNL d   1      10.981  -9.347   3.354  0.00  0.00    -0.356 OA
ATOM     14  C   UNL d   1      12.156 -10.151   3.406  0.00  0.00     0.210 C 
ENDBRANCH   9  13
ENDBRANCH   4   5
ENDBRANCH   3   4
ENDBRANCH   2   3
ENDBRANCH   1   2
BRANCH   1  15
ATOM     15  C   UNL d   1       4.727  -3.488   0.576  0.00  0.00     0.193 C 
BRANCH  15  16
ATOM     16  O   UNL d   1       3.780  -3.840   1.586  0.00  0.00    -0.389 OA
BRANCH  16  17
ATOM     17  C   UNL d   1       2.564  -3.083   1.545  0.00  0.00     0.172 C 
BRANCH  17  18
ATOM     18  C   UNL d   1       1.798  -3.184   0.215  0.00  0.00     0.067 C 
BRANCH  18  19
ATOM     19  C   UNL d   1       0.507  -2.398   0.211  0.00  0.00    -0.020 A 
ATOM     20  C   UNL d   1       0.319  -1.115  -0.326  0.00  0.00     0.074 A 
ATOM     21  C   UNL d   1      -0.966  -0.538  -0.274  0.00  0.00     0.040 A 
ATOM     22  C   UNL d   1      -2.058  -1.197   0.283  0.00  0.00     0.039 A 
ATOM     23  C   UNL d   1      -1.895  -2.475   0.792  0.00  0.00     0.068 A 
ATOM     24  C   UNL d   1      -0.620  -3.053   0.772  0.00  0.00     0.046 A 
BRANCH  20  25
ATOM     25  O   UNL d   1       1.178  -0.302  -1.003  0.00  0.00    -0.355 OA
ATOM     26  C   UNL d   1       2.568  -0.353  -0.802  0.00  0.00     0.210 C 
ENDBRANCH  20  25
BRANCH  23  27
ATOM     27  O   UNL d   1      -2.886  -3.257   1.317  0.00  0.00    -0.356 OA
ATOM     28  C   UNL d   1      -4.214  -2.753   1.215  0.00  0.00     0.210 C 
ENDBRANCH  23  27
ENDBRANCH  18  19
ENDBRANCH  17  18
ENDBRANCH  16  17
ENDBRANCH  15  16
ENDBRANCH   1  15
TORSDOF 13
