REMARK  6 active torsions:
REMARK  status: ('A' for Active; 'I' for Inactive)
REMARK    1  A    between atoms: N_3  and  C_1 
REMARK    2  A    between atoms: C_5  and  C_2 
REMARK       I    between atoms: N_14  and  C_5 
REMARK       I    between atoms: C_9  and  N_15 
REMARK    3  A    between atoms: C_10  and  C_9 
REMARK    4  A    between atoms: O_26  and  C_13 
REMARK    5  A    between atoms: N_15  and  N_14 
REMARK    6  A    between atoms: O_27  and  C_16 
ROOT
ATOM      1  C   UNL d   1       1.273  -0.337   0.134  0.00  0.00     0.058 A 
ATOM      2  C   UNL d   1       0.358  -1.409   0.101  0.00  0.00     0.063 A 
ATOM      3  C   UNL d   1       0.747   0.970   0.191  0.00  0.00     0.070 A 
ATOM      4  C   UNL d   1      -1.031  -1.139   0.104  0.00  0.00     0.059 A 
ATOM      5  C   UNL d   1      -0.630   1.234   0.177  0.00  0.00     0.103 A 
ATOM      6  C   UNL d   1      -1.534   0.170   0.115  0.00  0.00     0.102 A 
ENDROOT
BRANCH   2   7
ATOM      7  C   UNL d   1       0.739  -2.841  -0.071  0.00  0.00     0.272 C 
ATOM      8  N   UNL d   1       0.044  -3.749   0.717  0.00  0.00    -0.263 N 
ATOM      9  H   UNL d   1      -0.679  -3.501   1.391  0.00  0.00     0.190 HD
ATOM     10  O   UNL d   1       1.616  -3.184  -0.859  0.00  0.00    -0.266 OA
BRANCH   8  11
ATOM     11  N   UNL d   1       0.424  -5.098   0.689  0.00  0.00    -0.263 N 
ATOM     12  C   UNL d   1      -0.369  -6.012   1.358  0.00  0.00     0.270 C 
ATOM     13  O   UNL d   1      -1.358  -5.665   1.998  0.00  0.00    -0.266 OA
ATOM     14  H   UNL d   1       1.285  -5.299   0.186  0.00  0.00     0.190 HD
BRANCH  12  15
ATOM     15  C   UNL d   1       0.005  -7.462   1.282  0.00  0.00     0.036 A 
ATOM     16  C   UNL d   1       1.042  -7.944   0.475  0.00  0.00     0.041 A 
ATOM     17  C   UNL d   1       1.296  -9.316   0.411  0.00  0.00     0.036 A 
ATOM     18 CL   UNL d   1       2.566  -9.898  -0.596  0.00  0.00    -0.084 Cl
ATOM     19  C   UNL d   1       0.533 -10.225   1.142  0.00  0.00     0.047 A 
ATOM     20  C   UNL d   1      -0.492  -9.746   1.950  0.00  0.00     0.036 A 
ATOM     21  C   UNL d   1      -0.758  -8.378   2.027  0.00  0.00     0.041 A 
ATOM     22 CL   UNL d   1      -1.447 -10.857   2.853  0.00  0.00    -0.084 Cl
ENDBRANCH  12  15
ENDBRANCH   8  11
ENDBRANCH   2   7
BRANCH   1  23
ATOM     23  N   UNL d   1       2.702  -0.474   0.171  0.00  0.00    -0.319 N 
ATOM     24  C   UNL d   1       3.449  -1.369   0.950  0.00  0.00     0.013 A 
ATOM     25  C   UNL d   1       4.793  -1.126   0.738  0.00  0.00     0.027 A 
ATOM     26  C   UNL d   1       2.925  -2.369   1.921  0.00  0.00     0.068 C 
ATOM     27  C   UNL d   1       4.906  -0.028  -0.118  0.00  0.00     0.027 A 
ATOM     28  C   UNL d   1       3.631   0.371  -0.468  0.00  0.00     0.013 A 
ATOM     29  C   UNL d   1       3.337   1.479  -1.429  0.00  0.00     0.068 C 
ENDBRANCH   1  23
BRANCH   6  30
ATOM     30  O   UNL d   1      -2.873   0.445   0.078  0.00  0.00    -0.353 OA
ATOM     31  C   UNL d   1      -3.713  -0.525  -0.540  0.00  0.00     0.210 C 
ENDBRANCH   6  30
BRANCH   5  32
ATOM     32  O   UNL d   1      -0.911   2.575   0.160  0.00  0.00    -0.353 OA
ATOM     33  C   UNL d   1      -2.145   2.996   0.724  0.00  0.00     0.210 C 
ENDBRANCH   5  32
TORSDOF 6
