REMARK  6 active torsions:
REMARK  status: ('A' for Active; 'I' for Inactive)
REMARK    1  A    between atoms: C_4  and  C_1 
REMARK    2  A    between atoms: N_5  and  C_2 
REMARK       I    between atoms: C_3  and  N_6 
REMARK    3  A    between atoms: C_9  and  C_3 
REMARK    4  A    between atoms: O_17  and  C_4 
REMARK    5  A    between atoms: N_6  and  C_10 
REMARK    6  A    between atoms: O_23  and  C_18 
ROOT
ATOM      1  C   UNL d   1       1.469  -0.247   0.119  0.00  0.00     0.068 A 
ATOM      2  C   UNL d   1       0.683  -1.395  -0.144  0.00  0.00     0.046 A 
ATOM      3  C   UNL d   1       0.872   1.028   0.223  0.00  0.00     0.049 A 
ATOM      4  C   UNL d   1      -0.689  -1.177  -0.373  0.00  0.00     0.032 A 
ATOM      5  C   UNL d   1      -0.495   1.206   0.047  0.00  0.00     0.036 A 
ATOM      6  C   UNL d   1      -1.269   0.098  -0.287  0.00  0.00     0.032 A 
ENDROOT
BRANCH   5   7
ATOM      7  N   UNL d   1      -1.147   2.451   0.188  0.00  0.00    -0.323 N 
ATOM      8  C   UNL d   1      -0.581   3.633   0.639  0.00  0.00     0.256 C 
ATOM      9  O   UNL d   1       0.589   3.814   0.952  0.00  0.00    -0.267 OA
ATOM     10  H   UNL d   1      -2.125   2.468  -0.065  0.00  0.00     0.169 HD
BRANCH   8  11
ATOM     11  C   UNL d   1      -1.506   4.795   0.728  0.00  0.00     0.032 A 
ATOM     12  C   UNL d   1      -2.850   4.657   1.092  0.00  0.00     0.020 A 
ATOM     13  C   UNL d   1      -3.680   5.784   1.152  0.00  0.00     0.038 A 
ATOM     14  C   UNL d   1      -3.170   7.050   0.854  0.00  0.00     0.068 A 
ATOM     15  C   UNL d   1      -1.818   7.187   0.533  0.00  0.00     0.038 A 
ATOM     16  C   UNL d   1      -0.987   6.069   0.473  0.00  0.00     0.020 A 
BRANCH  14  17
ATOM     17  O   UNL d   1      -3.876   8.220   0.855  0.00  0.00    -0.356 OA
ATOM     18  C   UNL d   1      -5.286   8.120   1.007  0.00  0.00     0.210 C 
ENDBRANCH  14  17
ENDBRANCH   8  11
ENDBRANCH   5   7
BRANCH   1  19
ATOM     19  C   UNL d   1       2.964  -0.308   0.193  0.00  0.00     0.295 C 
ATOM     20  O   UNL d   1       3.680  -1.106  -0.389  0.00  0.00    -0.259 OA
BRANCH  19  21
ATOM     21  O   UNL d   1       3.407   0.671   1.027  0.00  0.00    -0.322 OA
ATOM     22  C   UNL d   1       4.826   0.813   1.111  0.00  0.00     0.213 C 
ENDBRANCH  19  21
ENDBRANCH   1  19
BRANCH   2  23
ATOM     23  N   UNL d   1       1.218  -2.679  -0.191  0.00  0.00    -0.376 N 
ATOM     24  C   UNL d   1       0.570  -3.760  -0.952  0.00  0.00     0.149 C 
ATOM     25  C   UNL d   1       1.613  -4.852  -1.251  0.00  0.00     0.187 C 
ATOM     26  O   UNL d   1       2.209  -5.358  -0.045  0.00  0.00    -0.388 OA
ATOM     27  C   UNL d   1       2.866  -4.288   0.667  0.00  0.00     0.187 C 
ATOM     28  C   UNL d   1       1.865  -3.184   1.043  0.00  0.00     0.149 C 
ENDBRANCH   2  23
TORSDOF 6
