REMARK  7 active torsions:
REMARK  status: ('A' for Active; 'I' for Inactive)
REMARK    1  A    between atoms: O_10  and  C_3 
REMARK    2  A    between atoms: S_9  and  C_4 
REMARK    3  A    between atoms: C_11  and  C_5 
REMARK    4  A    between atoms: C_12  and  C_8 
REMARK    5  A    between atoms: C_16  and  C_11 
REMARK    6  A    between atoms: O_13  and  C_12 
REMARK    7  A    between atoms: C_17  and  C_16 
ROOT
ATOM      1  N   UNL d   1      -0.220  -1.294  -0.059  0.00  0.00    -0.317 N 
ATOM      2  HN  UNL d   1      -0.728  -2.178  -0.091  1.00  0.00     0.170 HD
ATOM      3  C   UNL d   1      -0.848  -0.114  -0.036  0.00  0.00     0.150 A 
ATOM      4  C   UNL d   1       1.115  -1.240  -0.037  0.00  0.00     0.146 A 
ATOM      5  C   UNL d   1      -0.256   1.130   0.035  0.00  0.00     0.018 A 
ATOM      6  N   UNL d   1       1.823  -0.105  -0.027  0.00  0.00    -0.338 N 
ATOM      7  HN  UNL d   1       2.843  -0.119  -0.039  1.00  0.00     0.168 HD
ATOM      8  C   UNL d   1       1.137   1.069  -0.001  0.00  0.00     0.045 A 
ENDROOT
BRANCH   5   9
ATOM      9  C   UNL d   1      -1.011   2.437   0.059  0.00  0.00     0.045 C 
BRANCH   9  10
ATOM     10  C   UNL d   1      -2.401   2.493   0.712  0.00  0.00     0.004 C 
BRANCH  10  11
ATOM     11  C   UNL d   1      -2.392   2.124   2.197  0.00  0.00    -0.004 C 
ATOM     12  C   UNL d   1      -3.797   2.149   2.780  0.00  0.00     0.005 C 
ENDBRANCH  10  11
ENDBRANCH   9  10
ENDBRANCH   5   9
BRANCH   3  13
ATOM     13  O   UNL d   1      -2.191  -0.272  -0.102  0.00  0.00    -0.346 OA
ATOM     14  H   UNL d   1      -2.251  -1.245  -0.106  0.00  0.00     0.219 HD
ENDBRANCH   3  13
BRANCH   8  15
ATOM     15  C   UNL d   1       2.009   2.308   0.031  0.00  0.00     0.224 C 
BRANCH  15  16
ATOM     16  O   UNL d   1       2.207   2.808   1.357  0.00  0.00    -0.390 OA
ATOM     17  C   UNL d   1       3.045   1.962   2.139  0.00  0.00     0.201 C 
ENDBRANCH  15  16
ENDBRANCH   8  15
BRANCH   4  18
ATOM     18  S   UNL d   1       1.948  -2.807  -0.016  0.00  0.00    -0.098 SA
ATOM     19  C   UNL d   1       3.673  -2.271   0.033  0.00  0.00     0.099 C 
ENDBRANCH   4  18
TORSDOF 7
