REMARK  4 active torsions:
REMARK  status: ('A' for Active; 'I' for Inactive)
REMARK    1  A    between atoms: C_4  and  C_9 
REMARK    2  A    between atoms: C_5  and  C_8 
REMARK    3  A    between atoms: C_17  and  C_6 
REMARK    4  A    between atoms: C_18  and  C_7 
ROOT
ATOM      1  C   UNL d   1      -1.278  -0.033   0.136  0.00  0.00    -0.007 C 
ATOM      2  C   UNL d   1       1.273   0.053   0.162  0.00  0.00    -0.007 C 
ATOM      3  C   UNL d   1       0.024  -0.756  -0.025  0.00  0.00     0.184 C 
ATOM      4  C   UNL d   1      -2.359  -0.810   0.348  0.00  0.00     0.022 C 
ATOM      5  C   UNL d   1       2.424  -0.640   0.250  0.00  0.00     0.022 C 
ATOM      6  O   UNL d   1       0.066  -1.954  -0.289  0.00  0.00    -0.287 OA
ATOM      7  C   UNL d   1       1.165   1.549   0.242  0.00  0.00     0.043 C 
ATOM      8  C   UNL d   1      -1.316   1.466   0.053  0.00  0.00     0.043 C 
ATOM      9  C   UNL d   1      -0.042   2.060  -0.530  0.00  0.00     0.009 C 
ENDROOT
BRANCH   4  10
ATOM     10  C   UNL d   1      -3.713  -0.295   0.550  0.00  0.00    -0.036 A 
ATOM     11  C   UNL d   1      -4.570  -0.139  -0.542  0.00  0.00     0.012 A 
ATOM     12  C   UNL d   1      -5.867   0.343  -0.352  0.00  0.00     0.017 A 
ATOM     13  C   UNL d   1      -6.327   0.668   0.934  0.00  0.00     0.048 A 
ATOM     14  C   UNL d   1      -5.455   0.520   2.023  0.00  0.00     0.017 A 
ATOM     15  C   UNL d   1      -4.156   0.043   1.832  0.00  0.00     0.012 A 
BRANCH  13  16
ATOM     16  C   UNL d   1      -7.742   1.158   1.126  0.00  0.00     0.417 C 
ATOM     17  F   UNL d   1      -8.063   1.401   2.428  0.00  0.00    -0.166 F 
ATOM     18  F   UNL d   1      -7.987   2.319   0.459  0.00  0.00    -0.166 F 
ATOM     19  F   UNL d   1      -8.667   0.265   0.676  0.00  0.00    -0.166 F 
ENDBRANCH  13  16
ENDBRANCH   4  10
BRANCH   5  20
ATOM     20  C   UNL d   1       3.724  -0.028   0.525  0.00  0.00    -0.036 A 
ATOM     21  C   UNL d   1       4.150   0.112   1.849  0.00  0.00     0.012 A 
ATOM     22  C   UNL d   1       5.383   0.702   2.132  0.00  0.00     0.017 A 
ATOM     23  C   UNL d   1       6.209   1.157   1.094  0.00  0.00     0.048 A 
ATOM     24  C   UNL d   1       5.768   1.021  -0.233  0.00  0.00     0.017 A 
ATOM     25  C   UNL d   1       4.533   0.432  -0.516  0.00  0.00     0.012 A 
BRANCH  23  26
ATOM     26  C   UNL d   1       7.557   1.770   1.384  0.00  0.00     0.417 C 
ATOM     27  F   UNL d   1       7.854   1.831   2.713  0.00  0.00    -0.166 F 
ATOM     28  F   UNL d   1       8.578   1.079   0.806  0.00  0.00    -0.166 F 
ATOM     29  F   UNL d   1       7.660   3.047   0.921  0.00  0.00    -0.166 F 
ENDBRANCH  23  26
ENDBRANCH   5  20
TORSDOF 4
