REMARK  6 active torsions:
REMARK  status: ('A' for Active; 'I' for Inactive)
REMARK    1  A    between atoms: C_7  and  S_1 
REMARK    2  A    between atoms: C_14  and  S_1 
REMARK    3  A    between atoms: C_4  and  C_7 
REMARK    4  A    between atoms: C_11  and  C_5 
REMARK    5  A    between atoms: C_6  and  C_10 
REMARK    6  A    between atoms: C_16  and  C_14 
ROOT
ATOM      1  S   UNL d   1       0.993   0.109   0.110  0.00  0.00     0.154 S 
ATOM      2  O   UNL d   1       2.397  -0.272   0.092  0.00  0.00    -0.227 OA
ATOM      3  O   UNL d   1       0.207  -0.095   1.315  0.00  0.00    -0.227 OA
ENDROOT
BRANCH   1   4
ATOM      4  C   UNL d   1       0.150  -0.783  -1.185  0.00  0.00     0.205 C 
BRANCH   4   5
ATOM      5  C   UNL d   1       0.790  -0.508  -2.498  0.00  0.00     0.065 A 
ATOM      6  N   UNL d   1       0.382   0.416  -3.347  0.00  0.00    -0.352 N 
ATOM      7  C   UNL d   1       1.167   0.390  -4.497  0.00  0.00     0.049 A 
ATOM      8  HN  UNL d   1      -0.395   1.057  -3.185  1.00  0.00     0.166 HD
ATOM      9  C   UNL d   1       2.150  -0.581  -4.499  0.00  0.00     0.081 A 
ATOM     10  S   UNL d   1       2.096  -1.484  -3.048  0.00  0.00    -0.085 SA
BRANCH   7  11
ATOM     11  C   UNL d   1       0.946   1.305  -5.614  0.00  0.00    -0.009 A 
ATOM     12  C   UNL d   1       2.015   1.768  -6.395  0.00  0.00     0.014 A 
ATOM     13  C   UNL d   1       1.795   2.631  -7.473  0.00  0.00     0.007 A 
ATOM     14  C   UNL d   1       0.500   3.052  -7.792  0.00  0.00    -0.062 A 
ATOM     15  C   UNL d   1      -0.570   2.598  -7.014  0.00  0.00     0.007 A 
ATOM     16  C   UNL d   1       0.287   3.987  -8.946  0.00  0.00     0.048 C 
ATOM     17  C   UNL d   1      -0.349   1.735  -5.932  0.00  0.00     0.014 A 
ENDBRANCH   7  11
ENDBRANCH   4   5
ENDBRANCH   1   4
BRANCH   1  18
ATOM     18  C   UNL d   1       0.842   1.825  -0.369  0.00  0.00     0.179 C 
BRANCH  18  19
ATOM     19  C   UNL d   1       1.455   2.721   0.682  0.00  0.00    -0.043 A 
ATOM     20  C   UNL d   1       0.662   3.288   1.693  0.00  0.00     0.024 A 
ATOM     21  C   UNL d   1       1.202   4.212   2.605  0.00  0.00     0.048 A 
ATOM     22  C   UNL d   1       2.566   4.527   2.526  0.00  0.00     0.016 A 
ATOM     23  C   UNL d   1       3.370   3.939   1.551  0.00  0.00     0.001 A 
ATOM     24  C   UNL d   1       2.818   3.046   0.632  0.00  0.00     0.008 A 
BRANCH  21  25
ATOM     25  C   UNL d   1       0.330   4.902   3.625  0.00  0.00     0.417 C 
ATOM     26  F   UNL d   1      -0.973   4.503   3.592  0.00  0.00    -0.166 F 
ATOM     27  F   UNL d   1       0.750   4.706   4.906  0.00  0.00    -0.166 F 
ATOM     28  F   UNL d   1       0.303   6.254   3.446  0.00  0.00    -0.166 F 
ENDBRANCH  21  25
ENDBRANCH  18  19
ENDBRANCH   1  18
TORSDOF 6
