REMARK  1 active torsions:
REMARK  status: ('A' for Active; 'I' for Inactive)
REMARK    1  A    between atoms: N_6  and  C_1 
ROOT
ATOM      1  C   UNL d   1       0.557   1.344  -0.167  0.00  0.00     0.184 A 
ATOM      2  C   UNL d   1      -0.649   0.677   0.005  0.00  0.00     0.016 A 
ATOM      3  O   UNL d   1       1.517   0.419  -0.477  0.00  0.00    -0.218 OA
ATOM      4  N   UNL d   1       0.998  -0.853  -0.403  0.00  0.00    -0.263 N 
ATOM      5  HN  UNL d   1       1.500  -1.731  -0.536  1.00  0.00     0.194 HD
ATOM      6  C   UNL d   1      -0.299  -0.700  -0.120  0.00  0.00     0.039 A 
ATOM      7  C   UNL d   1      -2.026   1.201   0.182  0.00  0.00     0.055 C 
ATOM      8  C   UNL d   1      -1.165  -1.898  -0.004  0.00  0.00     0.071 C 
ENDROOT
BRANCH   1   9
ATOM      9  N   UNL d   1       0.824   2.712  -0.093  0.00  0.00    -0.311 N 
ATOM     10  C   UNL d   1       1.907   3.339  -0.684  0.00  0.00     0.098 A 
ATOM     11  C   UNL d   1       1.817   4.695  -0.478  0.00  0.00     0.019 A 
ATOM     12  C   UNL d   1       0.692   4.917   0.342  0.00  0.00     0.019 A 
ATOM     13  C   UNL d   1       0.117   3.688   0.581  0.00  0.00     0.098 A 
ENDBRANCH   1   9
TORSDOF 1
