REMARK  6 active torsions:
REMARK  status: ('A' for Active; 'I' for Inactive)
REMARK    1  A    between atoms: C_6  and  N_1 
REMARK    2  A    between atoms: S_7  and  C_4 
REMARK    3  A    between atoms: C_11  and  S_7 
REMARK    4  A    between atoms: C_8  and  C_10 
REMARK    5  A    between atoms: O_16  and  C_8 
REMARK    6  A    between atoms: N_17  and  C_15 
ROOT
ATOM      1  N   UNL d   1       0.069   0.879   0.036  0.00  0.00    -0.251 N 
ATOM      2  C   UNL d   1      -1.066   0.141   0.279  0.00  0.00     0.232 A 
ATOM      3  C   UNL d   1       1.170   0.067  -0.138  0.00  0.00     0.245 A 
ATOM      4  C   UNL d   1       0.728  -1.385  -0.168  0.00  0.00     0.154 A 
ATOM      5  C   UNL d   1      -0.742  -1.324   0.197  0.00  0.00     0.129 A 
ATOM      6  O   UNL d   1      -2.193   0.546   0.527  0.00  0.00    -0.273 OA
ATOM      7  O   UNL d   1       2.344   0.407  -0.211  0.00  0.00    -0.271 OA
ENDROOT
BRANCH   1   8
ATOM      8  C   UNL d   1       0.109   2.309   0.001  0.00  0.00     0.046 A 
ATOM      9  C   UNL d   1      -0.832   3.089   0.695  0.00  0.00     0.048 A 
ATOM     10  C   UNL d   1      -0.801   4.494   0.635  0.00  0.00     0.039 A 
ATOM     11  C   UNL d   1       0.184   5.136  -0.119  0.00  0.00     0.018 A 
ATOM     12  C   UNL d   1       1.124   4.382  -0.812  0.00  0.00     0.003 A 
ATOM     13  C   UNL d   1       1.089   2.983  -0.749  0.00  0.00     0.030 A 
BRANCH  10  14
ATOM     14  C   UNL d   1      -1.742   5.345   1.407  0.00  0.00     0.176 C 
ATOM     15  O   UNL d   1      -1.450   6.467   1.792  0.00  0.00    -0.646 OA
BRANCH  14  16
ATOM     16  O   UNL d   1      -2.955   4.792   1.621  0.00  0.00    -0.773 OA
ATOM     17  H   UNL d   1      -3.140   3.963   1.139  0.00  0.00     0.167 HD
ENDBRANCH  14  16
ENDBRANCH  10  14
ENDBRANCH   1   8
BRANCH   4  18
ATOM     18  S   UNL d   1       1.067  -2.025  -1.856  0.00  0.00    -0.113 SA
BRANCH  18  19
ATOM     19  C   UNL d   1       0.645  -3.768  -1.712  0.00  0.00     0.022 A 
ATOM     20  C   UNL d   1      -0.326  -4.318  -2.580  0.00  0.00     0.022 A 
ATOM     21  C   UNL d   1      -0.635  -5.680  -2.491  0.00  0.00     0.024 A 
ATOM     22  C   UNL d   1       0.096  -6.520  -1.652  0.00  0.00     0.002 A 
ATOM     23  C   UNL d   1       1.101  -5.991  -0.846  0.00  0.00     0.001 A 
ATOM     24  C   UNL d   1       1.369  -4.617  -0.864  0.00  0.00     0.020 A 
BRANCH  20  25
ATOM     25  N   UNL d   1      -1.131  -3.490  -3.393  0.00  0.00    -0.302 NA
ATOM     26  H   UNL d   1      -0.605  -2.672  -3.699  0.00  0.00     0.124 HD
ATOM     27  H   UNL d   1      -1.554  -3.982  -4.174  0.00  0.00     0.124 HD
ENDBRANCH  20  25
ENDBRANCH  18  19
ENDBRANCH   4  18
TORSDOF 6
