REMARK  4 active torsions:
REMARK  status: ('A' for Active; 'I' for Inactive)
REMARK    1  A    between atoms: S_10  and  C_2 
REMARK    2  A    between atoms: N_13  and  C_3 
REMARK    3  A    between atoms: C_8  and  C_9 
REMARK    4  A    between atoms: C_9  and  S_10 
ROOT
ATOM      1  S   UNL d   1       0.181  -1.170   0.067  0.00  0.00    -0.027 SA
ATOM      2  C   UNL d   1       1.607  -0.222   0.005  0.00  0.00     0.130 A 
ATOM      3  C   UNL d   1      -0.712   0.296   0.076  0.00  0.00     0.159 A 
ATOM      4  N   UNL d   1       1.393   1.076  -0.016  0.00  0.00    -0.286 N 
ATOM      5  HN  UNL d   1       2.132   1.778  -0.057  1.00  0.00     0.188 HD
ATOM      6  N   UNL d   1       0.040   1.373   0.025  0.00  0.00    -0.279 N 
ATOM      7  HN  UNL d   1      -0.332   2.323   0.015  1.00  0.00     0.189 HD
ENDROOT
BRANCH   2   8
ATOM      8  S   UNL d   1       3.196  -0.948  -0.038  0.00  0.00    -0.099 SA
BRANCH   8   9
ATOM      9  C   UNL d   1       4.272   0.516  -0.052  0.00  0.00     0.125 C 
BRANCH   9  10
ATOM     10  C   UNL d   1       5.725   0.115  -0.145  0.00  0.00     0.012 A 
ATOM     11  C   UNL d   1       6.381  -0.124  -1.362  0.00  0.00     0.044 A 
ATOM     12 CL   UNL d   1       5.579   0.050  -2.883  0.00  0.00    -0.084 Cl
ATOM     13  C   UNL d   1       7.726  -0.522  -1.387  0.00  0.00     0.024 A 
ATOM     14  C   UNL d   1       8.434  -0.697  -0.199  0.00  0.00     0.005 A 
ATOM     15  C   UNL d   1       7.795  -0.473   1.016  0.00  0.00     0.043 A 
ATOM     16  C   UNL d   1       6.459  -0.075   1.033  0.00  0.00     0.125 A 
ATOM     17  F   UNL d   1       5.872   0.125   2.222  0.00  0.00    -0.205 F 
ENDBRANCH   9  10
ENDBRANCH   8   9
ENDBRANCH   2   8
BRANCH   3  18
ATOM     18  N   UNL d   1      -2.058   0.294   0.121  0.00  0.00    -0.379 N 
ATOM     19  H   UNL d   1      -2.551  -0.548  -0.151  0.00  0.00     0.158 HD
ATOM     20  H   UNL d   1      -2.526   1.158  -0.130  0.00  0.00     0.158 HD
ENDBRANCH   3  18
TORSDOF 4
