REMARK  4 active torsions:
REMARK  status: ('A' for Active; 'I' for Inactive)
REMARK    1  A    between atoms: N_8  and  C_2 
REMARK    2  A    between atoms: C_14  and  N_8 
REMARK    3  A    between atoms: O_15  and  C_9 
REMARK    4  A    between atoms: O_16  and  C_10 
ROOT
ATOM      1  C   UNL d   1       0.131   0.457  -0.127  0.00  0.00     0.037 A 
ATOM      2  C   UNL d   1      -1.012   1.282  -0.058  0.00  0.00     0.115 A 
ATOM      3  C   UNL d   1      -0.072  -0.916   0.012  0.00  0.00     0.050 A 
ATOM      4  C   UNL d   1       1.445   0.942  -0.303  0.00  0.00     0.057 A 
ATOM      5  N   UNL d   1      -2.226   0.772   0.145  0.00  0.00    -0.338 N 
ATOM      6  HN  UNL d   1      -3.053   1.366   0.207  1.00  0.00     0.168 HD
ATOM      7  C   UNL d   1       1.038  -1.763  -0.049  0.00  0.00     0.070 A 
ATOM      8  C   UNL d   1       2.551   0.091  -0.360  0.00  0.00     0.102 A 
ATOM      9  C   UNL d   1       2.348  -1.288  -0.254  0.00  0.00     0.103 A 
ATOM     10  N   UNL d   1      -1.289  -1.435   0.204  0.00  0.00    -0.351 N 
ATOM     11  HN  UNL d   1      -1.436  -2.440   0.300  1.00  0.00     0.166 HD
ATOM     12  C   UNL d   1      -2.307  -0.562   0.264  0.00  0.00     0.182 A 
ENDROOT
BRANCH   2  13
ATOM     13  N   UNL d   1      -0.831   2.658  -0.184  0.00  0.00    -0.371 N 
ATOM     14  H   UNL d   1      -0.320   2.848  -1.041  0.00  0.00     0.161 HD
BRANCH  13  15
ATOM     15  C   UNL d   1      -1.766   3.733   0.136  0.00  0.00     0.083 C 
ATOM     16  C   UNL d   1      -2.531   3.597   1.456  0.00  0.00     0.025 C 
ATOM     17  C   UNL d   1      -3.970   3.092   1.356  0.00  0.00     0.002 C 
ATOM     18  C   UNL d   1      -4.734   3.629   0.152  0.00  0.00     0.000 C 
ATOM     19  C   UNL d   1      -3.955   3.461  -1.145  0.00  0.00     0.002 C 
ATOM     20  C   UNL d   1      -2.610   4.162  -1.064  0.00  0.00     0.025 C 
ENDBRANCH  13  15
ENDBRANCH   2  13
BRANCH   8  21
ATOM     21  O   UNL d   1       3.712   0.784  -0.559  0.00  0.00    -0.353 OA
ATOM     22  C   UNL d   1       4.949   0.157  -0.263  0.00  0.00     0.210 C 
ENDBRANCH   8  21
BRANCH   9  23
ATOM     23  O   UNL d   1       3.440  -2.111  -0.337  0.00  0.00    -0.353 OA
ATOM     24  C   UNL d   1       3.208  -3.479  -0.647  0.00  0.00     0.210 C 
ENDBRANCH   9  23
TORSDOF 4
