REMARK  4 active torsions:
REMARK  status: ('A' for Active; 'I' for Inactive)
REMARK    1  A    between atoms: C_6  and  C_1 
REMARK    2  A    between atoms: O_11  and  C_2 
REMARK    3  A    between atoms: C_10  and  N_4 
REMARK    4  A    between atoms: C_12  and  C_10 
ROOT
ATOM      1  N   UNL d   1       3.026  -2.078  -0.000  0.00  0.00    -0.388 N 
ATOM      2  HN  UNL d   1       3.594  -2.925   0.005  1.00  0.00     0.159 HD
ATOM      3  C   UNL d   1       1.729  -2.164   0.002  0.00  0.00     0.015 C 
ATOM      4  C   UNL d   1       0.847  -0.935  -0.012  0.00  0.00     0.068 C 
ENDROOT
BRANCH   3   5
ATOM      5  C   UNL d   1       1.092  -3.563   0.021  0.00  0.00     0.025 A 
ATOM      6  C   UNL d   1       1.983  -4.673   0.016  0.00  0.00     0.078 A 
ATOM      7  C   UNL d   1       1.547  -6.002   0.022  0.00  0.00     0.044 A 
ATOM      8  C   UNL d   1       0.191  -6.295   0.032  0.00  0.00    -0.059 A 
ATOM      9  C   UNL d   1      -0.707  -5.230   0.043  0.00  0.00     0.014 A 
ATOM     10  C   UNL d   1      -0.285  -7.716   0.033  0.00  0.00     0.048 C 
ATOM     11  C   UNL d   1      -0.296  -3.866   0.043  0.00  0.00    -0.047 A 
ATOM     12  C   UNL d   1      -1.481  -2.936   0.061  0.00  0.00     0.049 C 
BRANCH   6  13
ATOM     13  O   UNL d   1       3.355  -4.558   0.005  0.00  0.00    -0.360 OA
ATOM     14  H   UNL d   1       3.564  -3.596   0.024  0.00  0.00     0.217 HD
ENDBRANCH   6  13
ENDBRANCH   3   5
BRANCH   1  15
ATOM     15  C   UNL d   1       3.670  -0.761  -0.011  0.00  0.00     0.158 C 
BRANCH  15  16
ATOM     16  C   UNL d   1       5.178  -0.841  -0.055  0.00  0.00    -0.041 A 
ATOM     17  C   UNL d   1       5.827  -1.470  -1.126  0.00  0.00     0.009 A 
ATOM     18  C   UNL d   1       7.221  -1.461  -1.212  0.00  0.00     0.001 A 
ATOM     19  C   UNL d   1       7.979  -0.827  -0.229  0.00  0.00     0.000 A 
ATOM     20  C   UNL d   1       7.345  -0.208   0.846  0.00  0.00     0.001 A 
ATOM     21  C   UNL d   1       5.952  -0.215   0.933  0.00  0.00     0.009 A 
ENDBRANCH  15  16
ENDBRANCH   1  15
TORSDOF 4
