REMARK  7 active torsions:
REMARK  status: ('A' for Active; 'I' for Inactive)
REMARK    1  A    between atoms: C_2  and  C_1 
REMARK       I    between atoms: N_4  and  C_1 
REMARK    2  A    between atoms: C_20  and  N_4 
REMARK    3  A    between atoms: O_18  and  C_8 
REMARK    4  A    between atoms: C_11  and  C_19 
REMARK    5  A    between atoms: S_13  and  C_21 
REMARK    6  A    between atoms: C_19  and  S_13 
REMARK    7  A    between atoms: C_21  and  C_20 
ROOT
ATOM      1  C   UNL d   1       2.057  -0.681  -1.028  0.00  0.00     0.251 C 
ATOM      2  O   UNL d   1       2.379  -1.839  -1.266  0.00  0.00    -0.268 OA
ATOM      3  N   UNL d   1       2.461  -0.001   0.100  0.00  0.00    -0.356 N 
ATOM      4  H   UNL d   1       2.428   1.011   0.096  0.00  0.00     0.162 HD
ENDROOT
BRANCH   3   5
ATOM      5  C   UNL d   1       3.304  -0.620   1.110  0.00  0.00     0.133 C 
BRANCH   5   6
ATOM      6  C   UNL d   1       4.801  -0.425   0.852  0.00  0.00     0.093 C 
BRANCH   6   7
ATOM      7  S   UNL d   1       5.206   1.358   0.855  0.00  0.00    -0.163 SA
BRANCH   7   8
ATOM      8  C   UNL d   1       7.001   1.249   0.575  0.00  0.00     0.112 C 
BRANCH   8   9
ATOM      9  C   UNL d   1       7.596   2.633   0.470  0.00  0.00    -0.049 A 
ATOM     10  C   UNL d   1       8.006   3.322   1.624  0.00  0.00     0.011 A 
ATOM     11  C   UNL d   1       8.503   4.622   1.530  0.00  0.00     0.043 A 
ATOM     12  C   UNL d   1       8.588   5.236   0.287  0.00  0.00     0.116 A 
ATOM     13  C   UNL d   1       8.185   4.575  -0.867  0.00  0.00     0.043 A 
ATOM     14  F   UNL d   1       9.059   6.487   0.199  0.00  0.00    -0.206 F 
ATOM     15  C   UNL d   1       7.686   3.274  -0.776  0.00  0.00     0.011 A 
ENDBRANCH   8   9
ENDBRANCH   7   8
ENDBRANCH   6   7
ENDBRANCH   5   6
ENDBRANCH   3   5
BRANCH   1  16
ATOM     16  C   UNL d   1       1.196   0.074  -1.982  0.00  0.00     0.032 A 
ATOM     17  C   UNL d   1       0.333   1.094  -1.553  0.00  0.00     0.020 A 
ATOM     18  C   UNL d   1      -0.507   1.738  -2.473  0.00  0.00     0.038 A 
ATOM     19  C   UNL d   1      -0.489   1.369  -3.818  0.00  0.00     0.068 A 
ATOM     20  C   UNL d   1       0.388   0.370  -4.248  0.00  0.00     0.038 A 
ATOM     21  C   UNL d   1       1.216  -0.287  -3.334  0.00  0.00     0.020 A 
BRANCH  19  22
ATOM     22  O   UNL d   1      -1.250   1.942  -4.800  0.00  0.00    -0.356 OA
ATOM     23  C   UNL d   1      -2.540   2.389  -4.393  0.00  0.00     0.210 C 
ENDBRANCH  19  22
ENDBRANCH   1  16
TORSDOF 7
