REMARK  5 active torsions:
REMARK  status: ('A' for Active; 'I' for Inactive)
REMARK    1  A    between atoms: C_10  and  C_3 
REMARK    2  A    between atoms: N_6  and  C_9 
REMARK    3  A    between atoms: C_11  and  C_8 
REMARK    4  A    between atoms: O_17  and  C_16 
REMARK    5  A    between atoms: C_23  and  O_17 
ROOT
ATOM      1  N   UNL d   1       1.579  -0.060   0.457  0.00  0.00    -0.331 N 
ATOM      2  HN  UNL d   1       2.529  -0.430   0.423  1.00  0.00     0.168 HD
ATOM      3  C   UNL d   1       1.191   1.173   0.440  0.00  0.00     0.162 A 
ATOM      4  C   UNL d   1       0.393  -0.747   0.533  0.00  0.00     0.111 A 
ATOM      5  O   UNL d   1      -0.130   1.421   0.589  0.00  0.00    -0.256 OA
ATOM      6  C   UNL d   1      -0.744   0.209   0.694  0.00  0.00     0.316 A 
ATOM      7  C   UNL d   1       0.305  -2.065   0.321  0.00  0.00     0.050 C 
ATOM      8  O   UNL d   1      -1.927   0.014   0.874  0.00  0.00    -0.257 OA
ENDROOT
BRANCH   7   9
ATOM      9  C   UNL d   1      -0.941  -2.796   0.071  0.00  0.00    -0.000 A 
ATOM     10  C   UNL d   1      -1.728  -3.459   1.023  0.00  0.00     0.079 A 
ATOM     11  C   UNL d   1      -2.925  -4.067   0.609  0.00  0.00     0.037 A 
ATOM     12  C   UNL d   1      -3.329  -4.048  -0.728  0.00  0.00     0.003 A 
ATOM     13  C   UNL d   1      -2.545  -3.404  -1.673  0.00  0.00     0.001 A 
ATOM     14  C   UNL d   1      -1.362  -2.783  -1.276  0.00  0.00     0.014 A 
BRANCH  10  15
ATOM     15  O   UNL d   1      -1.518  -3.578   2.370  0.00  0.00    -0.351 OA
BRANCH  15  16
ATOM     16  C   UNL d   1      -0.178  -3.572   2.847  0.00  0.00     0.171 C 
ATOM     17  C   UNL d   1      -0.148  -4.324   4.167  0.00  0.00     0.034 C 
ENDBRANCH  15  16
ENDBRANCH  10  15
ENDBRANCH   7   9
BRANCH   3  18
ATOM     18  C   UNL d   1       2.034   2.359   0.217  0.00  0.00     0.018 A 
ATOM     19  C   UNL d   1       3.404   2.180  -0.010  0.00  0.00     0.052 A 
ATOM     20  C   UNL d   1       4.204   3.294  -0.300  0.00  0.00     0.103 A 
ATOM     21  C   UNL d   1       3.647   4.579  -0.361  0.00  0.00     0.036 A 
ATOM     22  C   UNL d   1       2.281   4.750  -0.130  0.00  0.00     0.003 A 
ATOM     23  C   UNL d   1       1.476   3.644   0.158  0.00  0.00     0.016 A 
BRANCH  20  24
ATOM     24  N   UNL d   1       5.638   3.113  -0.558  0.00  0.00    -0.116 N 
ATOM     25  O   UNL d   1       6.090   1.961  -0.513  0.00  0.00    -0.532 OA
ATOM     26  O   UNL d   1       6.310   4.124  -0.807  0.00  0.00    -0.532 OA
ENDBRANCH  20  24
ENDBRANCH   3  18
TORSDOF 5
