REMARK  4 active torsions:
REMARK  status: ('A' for Active; 'I' for Inactive)
REMARK    1  A    between atoms: C_3  and  C_1 
REMARK    2  A    between atoms: C_13  and  N_2 
REMARK    3  A    between atoms: N_15  and  C_8 
REMARK    4  A    between atoms: O_22  and  C_18 
ROOT
ATOM      1  C   UNL d   1      -0.217  -1.382  -0.023  0.00  0.00     0.152 C 
ATOM      2  N   UNL d   1       1.022  -0.746   0.037  0.00  0.00    -0.224 N 
ATOM      3  N   UNL d   1       0.808   0.566   0.290  0.00  0.00     0.001 NA
ATOM      4  N   UNL d   1      -0.496   0.750   0.164  0.00  0.00    -0.007 NA
ATOM      5  N   UNL d   1      -1.144  -0.437  -0.039  0.00  0.00    -0.269 N 
ATOM      6  HN  UNL d   1      -2.146  -0.569  -0.176  1.00  0.00     0.185 HD
ENDROOT
BRANCH   1   7
ATOM      7  C   UNL d   1      -0.476  -2.821   0.070  0.00  0.00     0.048 A 
ATOM      8  C   UNL d   1      -1.510  -3.455  -0.648  0.00  0.00     0.034 A 
ATOM      9  C   UNL d   1      -1.669  -4.870  -0.533  0.00  0.00     0.013 A 
ATOM     10  C   UNL d   1      -2.627  -5.630  -1.251  0.00  0.00     0.015 A 
ATOM     11  C   UNL d   1      -0.820  -5.557   0.367  0.00  0.00     0.044 A 
ATOM     12  C   UNL d   1      -2.743  -7.013  -1.072  0.00  0.00     0.001 A 
ATOM     13  C   UNL d   1      -1.895  -7.666  -0.191  0.00  0.00     0.002 A 
ATOM     14  C   UNL d   1      -0.943  -6.930   0.514  0.00  0.00     0.030 A 
ATOM     15  N   UNL d   1       0.112  -4.942   1.101  0.00  0.00    -0.364 N 
ATOM     16  C   UNL d   1       0.254  -3.610   0.954  0.00  0.00     0.105 A 
ATOM     17  HN  UNL d   1       0.698  -5.465   1.751  1.00  0.00     0.165 HD
BRANCH   8  18
ATOM     18  N   UNL d   1      -2.226  -2.727  -1.637  0.00  0.00    -0.301 NA
ATOM     19  H   UNL d   1      -2.261  -1.725  -1.436  0.00  0.00     0.124 HD
ATOM     20  H   UNL d   1      -3.163  -3.080  -1.800  0.00  0.00     0.124 HD
ENDBRANCH   8  18
ENDBRANCH   1   7
BRANCH   2  21
ATOM     21  C   UNL d   1       2.327  -1.272  -0.096  0.00  0.00     0.056 A 
ATOM     22  C   UNL d   1       2.566  -2.385  -0.913  0.00  0.00     0.034 A 
ATOM     23  C   UNL d   1       3.842  -2.952  -0.967  0.00  0.00     0.039 A 
ATOM     24  C   UNL d   1       4.883  -2.419  -0.209  0.00  0.00     0.068 A 
ATOM     25  C   UNL d   1       4.648  -1.284   0.572  0.00  0.00     0.039 A 
ATOM     26  C   UNL d   1       3.382  -0.693   0.617  0.00  0.00     0.034 A 
BRANCH  24  27
ATOM     27  O   UNL d   1       6.158  -2.910  -0.145  0.00  0.00    -0.356 OA
ATOM     28  C   UNL d   1       6.436  -4.072  -0.917  0.00  0.00     0.210 C 
ENDBRANCH  24  27
ENDBRANCH   2  21
TORSDOF 4
