REMARK  7 active torsions:
REMARK  status: ('A' for Active; 'I' for Inactive)
REMARK    1  A    between atoms: S_15  and  C_2 
REMARK    2  A    between atoms: C_23  and  C_3 
REMARK    3  A    between atoms: C_8  and  C_13 
REMARK    4  A    between atoms: C_13  and  C_24 
REMARK    5  A    between atoms: C_24  and  S_15 
REMARK    6  A    between atoms: S_18  and  C_23 
REMARK    7  A    between atoms: C_22  and  S_18 
ROOT
ATOM      1  N   UNL d   1       0.934   0.170  -0.046  0.00  0.00    -0.319 N 
ATOM      2  C   UNL d   1       0.018   1.185  -0.143  0.00  0.00     0.162 A 
ATOM      3  C   UNL d   1       0.193  -0.997   0.020  0.00  0.00     0.109 A 
ATOM      4  N   UNL d   1      -1.196   0.698  -0.066  0.00  0.00    -0.278 N 
ATOM      5  HN  UNL d   1      -2.063   1.235  -0.080  1.00  0.00     0.189 HD
ATOM      6  N   UNL d   1      -1.088  -0.667   0.038  0.00  0.00    -0.286 N 
ATOM      7  HN  UNL d   1      -1.868  -1.320   0.116  1.00  0.00     0.188 HD
ATOM      8  C   UNL d   1       2.370   0.288  -0.029  0.00  0.00     0.159 C 
ENDROOT
BRANCH   3   9
ATOM      9  C   UNL d   1       0.697  -2.410  -0.047  0.00  0.00     0.157 C 
BRANCH   9  10
ATOM     10  S   UNL d   1       2.045  -2.796   1.117  0.00  0.00    -0.121 SA
BRANCH  10  11
ATOM     11  C   UNL d   1       2.456  -4.481   0.626  0.00  0.00     0.014 A 
ATOM     12  C   UNL d   1       1.745  -5.619   1.085  0.00  0.00     0.007 A 
ATOM     13  C   UNL d   1       2.259  -6.887   0.722  0.00  0.00     0.045 A 
ATOM     14  C   UNL d   1       0.580  -5.568   1.891  0.00  0.00     0.017 A 
ATOM     15  C   UNL d   1       1.619  -8.034   1.170  0.00  0.00     0.054 A 
ATOM     16  N   UNL d   1       3.358  -7.039  -0.032  0.00  0.00    -0.365 N 
ATOM     17  C   UNL d   1       0.479  -7.964   1.966  0.00  0.00     0.036 A 
ATOM     18  C   UNL d   1      -0.050  -6.734   2.324  0.00  0.00     0.025 A 
ATOM     19 CL   UNL d   1      -0.276  -9.409   2.514  0.00  0.00    -0.084 Cl
ATOM     20  C   UNL d   1       4.010  -5.938  -0.444  0.00  0.00     0.089 A 
ATOM     21  HN  UNL d   1       3.692  -7.969  -0.285  1.00  0.00     0.165 HD
ATOM     22  C   UNL d   1       3.607  -4.652  -0.145  0.00  0.00     0.036 A 
ENDBRANCH  10  11
ENDBRANCH   9  10
ENDBRANCH   3   9
BRANCH   2  23
ATOM     23  S   UNL d   1       0.438   2.847  -0.373  0.00  0.00    -0.085 SA
BRANCH  23  24
ATOM     24  C   UNL d   1      -1.200   3.625  -0.496  0.00  0.00     0.166 C 
BRANCH  24  25
ATOM     25  C   UNL d   1      -1.104   5.122  -0.801  0.00  0.00     0.175 C 
ATOM     26  O   UNL d   1      -0.021   5.702  -0.894  0.00  0.00    -0.291 OA
BRANCH  25  27
ATOM     27  C   UNL d   1      -2.382   5.819  -0.969  0.00  0.00     0.053 A 
ATOM     28  S   UNL d   1      -2.376   7.496  -1.367  0.00  0.00    -0.074 SA
ATOM     29  C   UNL d   1      -4.063   7.562  -1.388  0.00  0.00     0.075 A 
ATOM     30 CL   UNL d   1      -4.860   9.039  -1.749  0.00  0.00    -0.076 Cl
ATOM     31  C   UNL d   1      -4.658   6.362  -1.099  0.00  0.00     0.033 A 
ATOM     32  C   UNL d   1      -3.681   5.347  -0.855  0.00  0.00     0.025 A 
ENDBRANCH  25  27
ENDBRANCH  24  25
ENDBRANCH  23  24
ENDBRANCH   2  23
TORSDOF 7
