REMARK  4 active torsions:
REMARK  status: ('A' for Active; 'I' for Inactive)
REMARK    1  A    between atoms: N_2  and  C_1 
REMARK    2  A    between atoms: N_4  and  C_1 
REMARK    3  A    between atoms: C_5  and  N_2 
REMARK    4  A    between atoms: C_8  and  C_5 
ROOT
ATOM      1  N   UNL d   1       0.501   0.542   1.145  0.00  0.00    -0.359 N 
ATOM      2  H   UNL d   1       1.217  -0.042   0.739  0.00  0.00     0.162 HD
ENDROOT
BRANCH   1   3
ATOM      3  C   UNL d   1      -0.453   0.855   0.195  0.00  0.00     0.169 C 
ATOM      4  S   UNL d   1      -1.121   2.386   0.019  0.00  0.00    -0.041 SA
BRANCH   3   5
ATOM      5  N   UNL d   1      -0.814  -0.254  -0.602  0.00  0.00    -0.367 N 
ATOM      6  C   UNL d   1      -1.866  -0.184  -1.622  0.00  0.00     0.151 C 
ATOM      7  C   UNL d   1      -0.310  -1.616  -0.414  0.00  0.00     0.151 C 
ENDBRANCH   3   5
ENDBRANCH   1   3
BRANCH   1   8
ATOM      8  C   UNL d   1       0.989   1.265   2.353  0.00  0.00     0.025 C 
ATOM      9  C   UNL d   1       1.842   2.488   1.980  0.00  0.00     0.038 C 
ATOM     10  C   UNL d   1      -0.180   1.695   3.265  0.00  0.00     0.038 C 
BRANCH   8  11
ATOM     11  C   UNL d   1       1.837   0.266   3.204  0.00  0.00     0.026 C 
ATOM     12  C   UNL d   1       3.092  -0.295   2.543  0.00  0.00     0.007 C 
ENDBRANCH   8  11
ENDBRANCH   1   8
TORSDOF 4
