REMARK  10 active torsions:
REMARK  status: ('A' for Active; 'I' for Inactive)
REMARK    1  A    between atoms: C_34  and  N_1 
REMARK    2  A    between atoms: N_2  and  C_33 
REMARK    3  A    between atoms: N_11  and  C_16 
REMARK    4  A    between atoms: N_12  and  C_15 
REMARK    5  A    between atoms: C_44  and  N_23 
REMARK    6  A    between atoms: N_24  and  C_43 
REMARK    7  A    between atoms: C_33  and  C_36 
REMARK    8  A    between atoms: C_35  and  C_34 
REMARK    9  A    between atoms: C_43  and  C_35 
REMARK   10  A    between atoms: C_36  and  C_44 
ROOT
ATOM      1  N   UNL d   1       6.642  -4.629  -1.869  0.00  0.00     0.091 N 
ATOM      2  N   UNL d   1       6.690  -2.541   0.314  0.00  0.00     0.091 N 
ATOM      3  C   UNL d   1       6.106  -4.939  -0.530  0.00  0.00     0.302 C 
ATOM      4  C   UNL d   1       6.301  -3.217  -2.129  0.00  0.00     0.302 C 
ATOM      5  C   UNL d   1       6.543  -3.980   0.610  0.00  0.00     0.302 C 
ATOM      6  C   UNL d   1       6.915  -2.234  -1.110  0.00  0.00     0.302 C 
ENDROOT
BRANCH   1   7
ATOM      7  C   UNL d   1       8.095  -4.854  -1.983  0.00  0.00     0.274 C 
BRANCH   7   8
ATOM      8  C   UNL d   1       8.531  -6.311  -1.815  0.00  0.00     0.050 C 
BRANCH   8   9
ATOM      9  C   UNL d   1       7.901  -7.232  -2.859  0.00  0.00     0.137 C 
BRANCH   9  10
ATOM     10  N   UNL d   1       8.312  -8.616  -2.645  0.00  0.00    -0.280 N 
ATOM     11  C   UNL d   1       9.501  -9.034  -3.240  0.00  0.00     0.261 A 
ATOM     12  C   UNL d   1       9.923 -10.429  -2.988  0.00  0.00     0.047 A 
ATOM     13  O   UNL d   1      10.210  -8.318  -3.939  0.00  0.00    -0.267 OA
ATOM     14  C   UNL d   1      11.089 -10.914  -3.596  0.00  0.00     0.054 A 
ATOM     15  C   UNL d   1       9.157 -11.243  -2.142  0.00  0.00     0.006 A 
ATOM     16  C   UNL d   1      11.485 -12.230  -3.363  0.00  0.00     0.104 A 
ATOM     17  C   UNL d   1      10.729 -13.066  -2.527  0.00  0.00     0.048 A 
ATOM     18  C   UNL d   1       9.565 -12.578  -1.910  0.00  0.00    -0.021 A 
ATOM     19  C   UNL d   1       8.798 -13.396  -1.063  0.00  0.00     0.012 A 
ATOM     20  C   UNL d   1       7.654 -12.902  -0.439  0.00  0.00     0.002 A 
ATOM     21  C   UNL d   1       7.256 -11.588  -0.660  0.00  0.00     0.018 A 
ATOM     22  C   UNL d   1       8.001 -10.765  -1.515  0.00  0.00     0.044 A 
ATOM     23  C   UNL d   1       7.556  -9.375  -1.752  0.00  0.00     0.261 A 
ATOM     24  O   UNL d   1       6.570  -8.955  -1.153  0.00  0.00    -0.267 OA
BRANCH  16  25
ATOM     25  N   UNL d   1      12.702 -12.753  -3.995  0.00  0.00    -0.116 N 
ATOM     26  O   UNL d   1      13.338 -11.990  -4.737  0.00  0.00    -0.532 OA
ATOM     27  O   UNL d   1      13.020 -13.922  -3.749  0.00  0.00    -0.532 OA
ENDBRANCH  16  25
ENDBRANCH   9  10
ENDBRANCH   8   9
ENDBRANCH   7   8
ENDBRANCH   1   7
BRANCH   2  28
ATOM     28  C   UNL d   1       5.706  -1.658   0.940  0.00  0.00     0.274 C 
BRANCH  28  29
ATOM     29  C   UNL d   1       5.808  -1.614   2.477  0.00  0.00     0.050 C 
BRANCH  29  30
ATOM     30  C   UNL d   1       4.884  -0.527   3.038  0.00  0.00     0.137 C 
BRANCH  30  31
ATOM     31  N   UNL d   1       4.867  -0.463   4.500  0.00  0.00    -0.280 N 
ATOM     32  C   UNL d   1       3.936  -1.248   5.177  0.00  0.00     0.261 C 
ATOM     33  C   UNL d   1       3.853  -1.083   6.649  0.00  0.00     0.047 A 
ATOM     34  O   UNL d   1       3.181  -2.044   4.625  0.00  0.00    -0.267 OA
ATOM     35  C   UNL d   1       2.923  -1.837   7.379  0.00  0.00     0.054 A 
ATOM     36  C   UNL d   1       4.670  -0.140   7.283  0.00  0.00     0.006 A 
ATOM     37  C   UNL d   1       2.801  -1.629   8.757  0.00  0.00     0.104 A 
ATOM     38  C   UNL d   1       3.580  -0.661   9.403  0.00  0.00     0.048 A 
ATOM     39  C   UNL d   1       4.516   0.091   8.675  0.00  0.00    -0.021 A 
ATOM     40  C   UNL d   1       5.302   1.072   9.301  0.00  0.00     0.012 A 
ATOM     41  C   UNL d   1       6.243   1.802   8.576  0.00  0.00     0.002 A 
ATOM     42  C   UNL d   1       6.421   1.551   7.217  0.00  0.00     0.018 A 
ATOM     43  C   UNL d   1       5.636   0.584   6.575  0.00  0.00     0.044 A 
ATOM     44  C   UNL d   1       5.822   0.338   5.125  0.00  0.00     0.261 C 
ATOM     45  O   UNL d   1       6.779   0.843   4.548  0.00  0.00    -0.267 OA
BRANCH  37  46
ATOM     46  N   UNL d   1       1.847  -2.429   9.537  0.00  0.00    -0.116 N 
ATOM     47  O   UNL d   1       1.186  -3.286   8.936  0.00  0.00    -0.532 OA
ATOM     48  O   UNL d   1       1.765  -2.201  10.752  0.00  0.00    -0.532 OA
ENDBRANCH  37  46
ENDBRANCH  30  31
ENDBRANCH  29  30
ENDBRANCH  28  29
ENDBRANCH   2  28
TORSDOF 10
