REMARK  6 active torsions:
REMARK  status: ('A' for Active; 'I' for Inactive)
REMARK    1  A    between atoms: C_4  and  C_9 
REMARK    2  A    between atoms: C_5  and  C_8 
REMARK    3  A    between atoms: C_20  and  C_6 
REMARK    4  A    between atoms: C_21  and  C_7 
REMARK    5  A    between atoms: C_30  and  C_13 
REMARK    6  A    between atoms: C_31  and  C_30 
ROOT
ATOM      1  C   UNL d   1      -1.280  -0.079   0.150  0.00  0.00    -0.006 C 
ATOM      2  C   UNL d   1       1.271   0.002   0.186  0.00  0.00    -0.006 C 
ATOM      3  C   UNL d   1       0.024  -0.802  -0.005  0.00  0.00     0.184 C 
ATOM      4  C   UNL d   1      -2.364  -0.854   0.351  0.00  0.00     0.022 C 
ATOM      5  C   UNL d   1       2.432  -0.680   0.265  0.00  0.00     0.022 C 
ATOM      6  C   UNL d   1       1.167   1.496   0.268  0.00  0.00     0.047 C 
ATOM      7  C   UNL d   1      -1.315   1.423   0.081  0.00  0.00     0.047 C 
ATOM      8  O   UNL d   1       0.066  -2.002  -0.269  0.00  0.00    -0.287 OA
ATOM      9  C   UNL d   1      -0.037   2.040  -0.506  0.00  0.00    -0.006 C 
ENDROOT
BRANCH   4  10
ATOM     10  C   UNL d   1      -3.722  -0.342   0.547  0.00  0.00    -0.036 A 
ATOM     11  C   UNL d   1      -4.565  -0.160  -0.551  0.00  0.00     0.012 A 
ATOM     12  C   UNL d   1      -5.864   0.323  -0.368  0.00  0.00     0.017 A 
ATOM     13  C   UNL d   1      -6.339   0.624   0.918  0.00  0.00     0.048 A 
ATOM     14  C   UNL d   1      -5.484   0.444   2.015  0.00  0.00     0.017 A 
ATOM     15  C   UNL d   1      -4.182  -0.035   1.829  0.00  0.00     0.012 A 
BRANCH  13  16
ATOM     16  C   UNL d   1      -7.750   1.128   1.102  0.00  0.00     0.417 C 
ATOM     17  F   UNL d   1      -8.081   1.363   2.402  0.00  0.00    -0.166 F 
ATOM     18  F   UNL d   1      -7.973   2.301   0.445  0.00  0.00    -0.166 F 
ATOM     19  F   UNL d   1      -8.683   0.254   0.632  0.00  0.00    -0.166 F 
ENDBRANCH  13  16
ENDBRANCH   4  10
BRANCH   9  20
ATOM     20  C   UNL d   1      -0.114   3.580  -0.444  0.00  0.00     0.005 C 
BRANCH  20  21
ATOM     21  C   UNL d   1       1.102   4.273  -1.069  0.00  0.00    -0.004 C 
ATOM     22  C   UNL d   1       0.995   5.786  -0.988  0.00  0.00     0.005 C 
ENDBRANCH  20  21
ENDBRANCH   9  20
BRANCH   5  23
ATOM     23  C   UNL d   1       3.732  -0.059   0.533  0.00  0.00    -0.036 A 
ATOM     24  C   UNL d   1       4.167   0.084   1.855  0.00  0.00     0.012 A 
ATOM     25  C   UNL d   1       5.402   0.676   2.131  0.00  0.00     0.017 A 
ATOM     26  C   UNL d   1       6.223   1.133   1.091  0.00  0.00     0.048 A 
ATOM     27  C   UNL d   1       5.773   1.000  -0.234  0.00  0.00     0.017 A 
ATOM     28  C   UNL d   1       4.537   0.407  -0.510  0.00  0.00     0.012 A 
BRANCH  26  29
ATOM     29  C   UNL d   1       7.571   1.749   1.377  0.00  0.00     0.417 C 
ATOM     30  F   UNL d   1       7.873   1.807   2.705  0.00  0.00    -0.166 F 
ATOM     31  F   UNL d   1       8.592   1.061   0.794  0.00  0.00    -0.166 F 
ATOM     32  F   UNL d   1       7.671   3.027   0.918  0.00  0.00    -0.166 F 
ENDBRANCH  26  29
ENDBRANCH   5  23
TORSDOF 6
