REMARK  2 active torsions:
REMARK  status: ('A' for Active; 'I' for Inactive)
REMARK    1  A    between atoms: C_6  and  C_1 
REMARK       I    between atoms: N_7  and  C_6 
REMARK    2  A    between atoms: C_9  and  N_7 
ROOT
ATOM      1  C   UNL d   1      -2.410  -0.063  -0.420  0.00  0.00     0.102 A 
ATOM      2  N   UNL d   1      -1.595   1.034  -0.250  0.00  0.00    -0.351 N 
ATOM      3  C   UNL d   1      -1.596  -1.172  -0.304  0.00  0.00     0.049 A 
ATOM      4  C   UNL d   1      -0.275   0.659  -0.163  0.00  0.00     0.044 A 
ATOM      5  C   UNL d   1      -0.242  -0.734  -0.164  0.00  0.00    -0.001 A 
ATOM      6  C   UNL d   1       1.005  -1.396  -0.083  0.00  0.00    -0.049 A 
ATOM      7  C   UNL d   1       0.881   1.450  -0.113  0.00  0.00     0.037 A 
ATOM      8  C   UNL d   1       2.171  -0.601  -0.063  0.00  0.00     0.014 A 
ATOM      9  C   UNL d   1       2.120   0.797  -0.090  0.00  0.00    -0.059 A 
ATOM     10  C   UNL d   1       1.157  -2.892  -0.070  0.00  0.00     0.049 C 
ATOM     11  C   UNL d   1       3.401   1.581  -0.138  0.00  0.00     0.048 C 
ATOM     12  H   UNL d   1      -1.928   1.989  -0.279  0.00  0.00     0.166 HD
ENDROOT
BRANCH   1  13
ATOM     13  C   UNL d   1      -3.815   0.069  -0.745  0.00  0.00     0.272 C 
ATOM     14  N   UNL d   1      -4.558  -1.077  -0.572  0.00  0.00    -0.320 N 
ATOM     15  H   UNL d   1      -4.238  -1.720   0.144  0.00  0.00     0.169 HD
ATOM     16  O   UNL d   1      -4.286   1.144  -1.115  0.00  0.00    -0.266 OA
BRANCH  14  17
ATOM     17  C   UNL d   1      -5.876  -1.262  -1.047  0.00  0.00     0.057 A 
ATOM     18  C   UNL d   1      -6.787  -2.031  -0.308  0.00  0.00     0.060 A 
ATOM     19 CL   UNL d   1      -6.378  -2.626   1.264  0.00  0.00    -0.082 Cl
ATOM     20  C   UNL d   1      -8.069  -2.287  -0.803  0.00  0.00     0.026 A 
ATOM     21  C   UNL d   1      -8.436  -1.813  -2.063  0.00  0.00     0.002 A 
ATOM     22  C   UNL d   1      -7.535  -1.056  -2.809  0.00  0.00     0.002 A 
ATOM     23  C   UNL d   1      -6.266  -0.765  -2.297  0.00  0.00     0.031 A 
ENDBRANCH  14  17
ENDBRANCH   1  13
TORSDOF 2
