REMARK  4 active torsions:
REMARK  status: ('A' for Active; 'I' for Inactive)
REMARK    1  A    between atoms: C_8  and  C_1 
REMARK    2  A    between atoms: N_5  and  C_2 
REMARK    3  A    between atoms: O_14  and  C_8 
REMARK    4  A    between atoms: N_13  and  C_10 
ROOT
ATOM      1  C   UNL d   1       1.293  -1.332  -0.008  0.00  0.00     0.108 A 
ATOM      2  C   UNL d   1      -0.100  -1.338   0.006  0.00  0.00     0.077 A 
ATOM      3  C   UNL d   1      -0.656  -0.018   0.019  0.00  0.00     0.079 A 
ATOM      4  S   UNL d   1       1.894   0.279  -0.046  0.00  0.00    -0.092 SA
ATOM      5  C   UNL d   1       0.328   0.949  -0.021  0.00  0.00     0.075 A 
ATOM      6  C   UNL d   1      -2.038   0.356   0.073  0.00  0.00     0.102 C 
ATOM      7  N   UNL d   1      -3.147   0.691   0.074  0.00  0.00    -0.191 NA
ENDROOT
BRANCH   2   8
ATOM      8  N   UNL d   1      -0.784  -2.558   0.135  0.00  0.00    -0.350 N 
ATOM      9  C   UNL d   1      -1.878  -2.736  -0.528  0.00  0.00     0.178 C 
ATOM     10  HN  UNL d   1      -0.422  -3.292   0.743  1.00  0.00     0.166 HD
BRANCH   9  11
ATOM     11  N   UNL d   1      -2.596  -3.911  -0.552  0.00  0.00    -0.386 N 
ATOM     12  C   UNL d   1      -2.063  -5.140   0.026  0.00  0.00     0.149 C 
ATOM     13  C   UNL d   1      -3.873  -4.038  -1.231  0.00  0.00     0.149 C 
ENDBRANCH   9  11
ENDBRANCH   2   8
BRANCH   1  14
ATOM     14  C   UNL d   1       2.197  -2.477   0.016  0.00  0.00     0.302 C 
ATOM     15  O   UNL d   1       1.873  -3.662   0.013  0.00  0.00    -0.259 OA
BRANCH  14  16
ATOM     16  O   UNL d   1       3.508  -2.077   0.034  0.00  0.00    -0.322 OA
ATOM     17  C   UNL d   1       4.445  -3.155   0.053  0.00  0.00     0.213 C 
ENDBRANCH  14  16
ENDBRANCH   1  14
TORSDOF 4
