REMARK  8 active torsions:
REMARK  status: ('A' for Active; 'I' for Inactive)
REMARK    1  A    between atoms: N_19  and  C_3 
REMARK    2  A    between atoms: C_6  and  C_4 
REMARK    3  A    between atoms: S_14  and  C_5 
REMARK    4  A    between atoms: O_22  and  C_6 
REMARK    5  A    between atoms: C_10  and  C_12 
REMARK    6  A    between atoms: C_12  and  C_17 
REMARK    7  A    between atoms: C_17  and  S_14 
REMARK    8  A    between atoms: C_25  and  O_22 
ROOT
ATOM      1  N   UNL d   1      -1.887  -0.228   0.534  0.00  0.00    -0.327 N 
ATOM      2  HN  UNL d   1      -2.876  -0.434   0.675  1.00  0.00     0.169 HD
ATOM      3  C   UNL d   1      -1.362   0.955   0.893  0.00  0.00     0.097 A 
ATOM      4  C   UNL d   1      -0.022   1.254   0.718  0.00  0.00     0.092 A 
ATOM      5  C   UNL d   1      -1.059  -1.131  -0.017  0.00  0.00     0.145 A 
ATOM      6  N   UNL d   1       0.252  -0.937  -0.227  0.00  0.00    -0.346 N 
ATOM      7  HN  UNL d   1       0.843  -1.657  -0.641  1.00  0.00     0.167 HD
ATOM      8  C   UNL d   1       0.745   0.266   0.143  0.00  0.00     0.111 A 
ENDROOT
BRANCH   5   9
ATOM      9  S   UNL d   1      -1.721  -2.720  -0.450  0.00  0.00    -0.086 SA
BRANCH   9  10
ATOM     10  C   UNL d   1      -3.451  -2.471   0.045  0.00  0.00     0.166 C 
BRANCH  10  11
ATOM     11  C   UNL d   1      -4.243  -3.741  -0.180  0.00  0.00     0.169 C 
ATOM     12  O   UNL d   1      -4.900  -3.900  -1.207  0.00  0.00    -0.291 OA
BRANCH  11  13
ATOM     13  C   UNL d   1      -4.244  -4.823   0.858  0.00  0.00     0.011 A 
ATOM     14  C   UNL d   1      -3.527  -4.736   2.059  0.00  0.00     0.023 A 
ATOM     15  C   UNL d   1      -3.533  -5.797   2.987  0.00  0.00    -0.039 A 
ATOM     16  C   UNL d   1      -2.725  -5.678   4.251  0.00  0.00     0.050 C 
ATOM     17  C   UNL d   1      -4.277  -6.950   2.693  0.00  0.00     0.040 A 
ATOM     18  C   UNL d   1      -5.007  -7.037   1.508  0.00  0.00     0.025 A 
ATOM     19 CL   UNL d   1      -4.312  -8.302   3.767  0.00  0.00    -0.084 Cl
ATOM     20  C   UNL d   1      -4.990  -5.980   0.595  0.00  0.00     0.017 A 
ENDBRANCH  11  13
ENDBRANCH  10  11
ENDBRANCH   9  10
ENDBRANCH   5   9
BRANCH   3  21
ATOM     21  N   UNL d   1      -2.291   1.891   1.344  0.00  0.00    -0.288 NA
ATOM     22  H   UNL d   1      -3.197   1.458   1.486  0.00  0.00     0.125 HD
ATOM     23  H   UNL d   1      -1.958   2.435   2.140  0.00  0.00     0.125 HD
ENDBRANCH   3  21
BRANCH   4  24
ATOM     24  C   UNL d   1       0.525   2.546   1.140  0.00  0.00     0.298 C 
ATOM     25  O   UNL d   1       0.078   3.204   2.064  0.00  0.00    -0.259 OA
BRANCH  24  26
ATOM     26  O   UNL d   1       1.508   2.917   0.282  0.00  0.00    -0.318 OA
BRANCH  26  27
ATOM     27  C   UNL d   1       1.830   4.316   0.304  0.00  0.00     0.174 C 
ATOM     28  C   UNL d   1       0.905   5.030  -0.667  0.00  0.00     0.034 C 
ENDBRANCH  26  27
ENDBRANCH  24  26
ENDBRANCH   4  24
TORSDOF 8
