REMARK  2 active torsions:
REMARK  status: ('A' for Active; 'I' for Inactive)
REMARK    1  A    between atoms: C_13  and  N_8 
REMARK    2  A    between atoms: C_16  and  C_13 
ROOT
ATOM      1  C   UNL d   1       0.067  -0.719   0.035  0.00  0.00     0.101 A 
ATOM      2  C   UNL d   1       0.032   0.625   0.056  0.00  0.00     0.077 A 
ATOM      3  N   UNL d   1       1.284  -1.370  -0.073  0.00  0.00    -0.293 N 
ATOM      4  N   UNL d   1       2.457   0.678  -0.021  0.00  0.00    -0.270 N 
ATOM      5  C   UNL d   1       2.509  -0.703  -0.104  0.00  0.00     0.332 A 
ATOM      6  C   UNL d   1       1.282   1.403   0.042  0.00  0.00     0.262 A 
ATOM      7  N   UNL d   1      -1.137  -1.410   0.128  0.00  0.00    -0.252 NA
ATOM      8  N   UNL d   1      -2.441   0.633  -0.350  0.00  0.00     0.110 N 
ATOM      9  C   UNL d   1      -1.255   1.409   0.078  0.00  0.00     0.322 C 
ATOM     10  C   UNL d   1      -2.379  -0.673   0.291  0.00  0.00     0.369 C 
ATOM     11  O   UNL d   1       3.574  -1.315  -0.193  0.00  0.00    -0.246 OA
ATOM     12  O   UNL d   1       1.248   2.632   0.098  0.00  0.00    -0.267 OA
ATOM     13  C   UNL d   1       1.367  -2.824  -0.102  0.00  0.00     0.162 C 
ATOM     14  C   UNL d   1       3.698   1.429   0.012  0.00  0.00     0.164 C 
ATOM     15  H   UNL d   1      -1.206  -2.125  -0.590  0.00  0.00     0.130 HD
ENDROOT
BRANCH   8  16
ATOM     16  C   UNL d   1      -3.701   1.316  -0.023  0.00  0.00     0.313 C 
BRANCH  16  17
ATOM     17  C   UNL d   1      -3.853   2.659  -0.709  0.00  0.00    -0.030 A 
ATOM     18  C   UNL d   1      -3.808   2.761  -2.110  0.00  0.00     0.012 A 
ATOM     19  C   UNL d   1      -3.856   4.011  -2.729  0.00  0.00     0.043 A 
ATOM     20  C   UNL d   1      -3.973   5.157  -1.952  0.00  0.00     0.116 A 
ATOM     21  C   UNL d   1      -4.063   5.077  -0.569  0.00  0.00     0.043 A 
ATOM     22  F   UNL d   1      -3.993   6.358  -2.545  0.00  0.00    -0.206 F 
ATOM     23  C   UNL d   1      -4.004   3.829   0.054  0.00  0.00     0.012 A 
ENDBRANCH  16  17
ENDBRANCH   8  16
TORSDOF 2
