REMARK  2 active torsions:
REMARK  status: ('A' for Active; 'I' for Inactive)
REMARK    1  A    between atoms: C_2  and  C_1 
REMARK       I    between atoms: N_9  and  C_2 
REMARK    2  A    between atoms: C_11  and  N_9 
ROOT
ATOM      1  C   UNL d   1      -0.284  -2.399   0.044  0.00  0.00     0.266 C 
ATOM      2  N   UNL d   1       0.768  -3.302  -0.058  0.00  0.00    -0.322 N 
ATOM      3  O   UNL d   1      -0.133  -1.213   0.322  0.00  0.00    -0.267 OA
ATOM      4  H   UNL d   1       0.525  -4.258  -0.277  0.00  0.00     0.169 HD
ENDROOT
BRANCH   1   5
ATOM      5  C   UNL d   1      -1.607  -2.941  -0.209  0.00  0.00     0.114 A 
ATOM      6  C   UNL d   1      -2.840  -2.296  -0.269  0.00  0.00     0.046 A 
ATOM      7  N   UNL d   1      -3.919  -3.136  -0.536  0.00  0.00    -0.298 N 
ATOM      8  C   UNL d   1      -3.148  -0.852  -0.093  0.00  0.00     0.071 C 
ATOM      9  N   UNL d   1      -3.547  -4.394  -0.680  0.00  0.00    -0.269 N 
ATOM     10  HN  UNL d   1      -4.885  -2.816  -0.611  1.00  0.00     0.187 HD
ATOM     11  S   UNL d   1      -1.906  -4.604  -0.501  0.00  0.00     0.009 SA
ATOM     12  HN  UNL d   1      -4.196  -5.155  -0.880  1.00  0.00     0.195 HD
ENDBRANCH   1   5
BRANCH   2  13
ATOM     13  C   UNL d   1       2.148  -3.035   0.084  0.00  0.00     0.035 A 
ATOM     14  C   UNL d   1       2.680  -1.773   0.359  0.00  0.00     0.029 A 
ATOM     15  C   UNL d   1       4.062  -1.586   0.463  0.00  0.00     0.002 A 
ATOM     16  C   UNL d   1       4.928  -2.661   0.294  0.00  0.00     0.000 A 
ATOM     17  C   UNL d   1       4.413  -3.926   0.025  0.00  0.00     0.002 A 
ATOM     18  C   UNL d   1       3.031  -4.112  -0.078  0.00  0.00     0.029 A 
ENDBRANCH   2  13
TORSDOF 2
