REMARK  3 active torsions:
REMARK  status: ('A' for Active; 'I' for Inactive)
REMARK    1  A    between atoms: N_9  and  C_6 
REMARK    2  A    between atoms: C_12  and  N_9 
REMARK    3  A    between atoms: C_14  and  C_12 
ROOT
ATOM      1  C   UNL d   1      -2.481  -0.725  -0.013  0.00  0.00     0.098 A 
ATOM      2  C   UNL d   1      -1.336  -1.673  -0.067  0.00  0.00     0.199 A 
ATOM      3  C   UNL d   1      -1.939   0.658   0.038  0.00  0.00     0.199 A 
ATOM      4  C   UNL d   1      -0.131  -0.841  -0.030  0.00  0.00     0.029 A 
ATOM      5  C   UNL d   1      -0.478   0.506   0.010  0.00  0.00     0.029 A 
ATOM      6  C   UNL d   1      -3.764  -1.118   0.020  0.00  0.00     0.108 C 
ATOM      7  N   UNL d   1      -5.721   0.578   0.240  0.00  0.00    -0.190 NA
ATOM      8  C   UNL d   1      -4.837  -0.164   0.134  0.00  0.00     0.112 C 
ATOM      9  O   UNL d   1      -2.539   1.707   0.090  0.00  0.00    -0.286 OA
ATOM     10  O   UNL d   1      -1.369  -2.885  -0.123  0.00  0.00    -0.286 OA
ATOM     11  C   UNL d   1       0.483   1.500   0.024  0.00  0.00     0.016 A 
ATOM     12  C   UNL d   1       1.189  -1.254  -0.035  0.00  0.00     0.016 A 
ATOM     13  C   UNL d   1       1.823   1.103   0.008  0.00  0.00     0.001 A 
ATOM     14  C   UNL d   1       2.173  -0.262  -0.015  0.00  0.00     0.001 A 
ENDROOT
BRANCH   6  15
ATOM     15  N   UNL d   1      -4.213  -2.442  -0.092  0.00  0.00    -0.279 NA
ATOM     16  H   UNL d   1      -3.588  -2.958  -0.720  0.00  0.00     0.128 HD
BRANCH  15  17
ATOM     17  C   UNL d   1      -4.356  -3.283   1.102  0.00  0.00     0.131 C 
BRANCH  17  18
ATOM     18  C   UNL d   1      -5.723  -3.912   1.095  0.00  0.00    -0.045 A 
ATOM     19  C   UNL d   1      -5.949  -5.135   0.445  0.00  0.00     0.010 A 
ATOM     20  C   UNL d   1      -7.238  -5.670   0.377  0.00  0.00     0.024 A 
ATOM     21  C   UNL d   1      -8.304  -4.985   0.956  0.00  0.00     0.034 A 
ATOM     22  C   UNL d   1      -8.092  -3.777   1.615  0.00  0.00     0.024 A 
ATOM     23 CL   UNL d   1      -9.897  -5.625   0.838  0.00  0.00    -0.084 Cl
ATOM     24  C   UNL d   1      -6.805  -3.241   1.683  0.00  0.00     0.010 A 
ENDBRANCH  17  18
ENDBRANCH  15  17
ENDBRANCH   6  15
TORSDOF 3
