REMARK  4 active torsions:
REMARK  status: ('A' for Active; 'I' for Inactive)
REMARK    1  A    between atoms: C_14  and  N_2 
REMARK    2  A    between atoms: N_7  and  C_19 
REMARK    3  A    between atoms: C_11  and  C_10 
REMARK    4  A    between atoms: C_19  and  C_14 
ROOT
ATOM      1  N   UNL d   1      -5.810 -10.159  -3.582  0.00  0.00    -0.191 NA
ATOM      2  C   UNL d   1      -5.369  -9.125  -3.290  0.00  0.00     0.099 C 
ATOM      3  C   UNL d   1      -4.832  -7.845  -2.925  0.00  0.00     0.044 A 
ATOM      4  C   UNL d   1      -3.807  -5.346  -2.185  0.00  0.00    -0.021 A 
ATOM      5  C   UNL d   1      -3.708  -7.764  -2.093  0.00  0.00     0.023 A 
ATOM      6  C   UNL d   1      -5.434  -6.671  -3.393  0.00  0.00     0.023 A 
ATOM      7  C   UNL d   1      -3.196  -6.517  -1.724  0.00  0.00     0.014 A 
ATOM      8  C   UNL d   1      -4.923  -5.421  -3.024  0.00  0.00     0.014 A 
ENDROOT
BRANCH   4   9
ATOM      9  C   UNL d   1      -3.296  -4.017  -1.790  0.00  0.00     0.094 C 
ATOM     10  N   UNL d   1      -2.291  -3.882  -0.994  0.00  0.00    -0.397 N 
ATOM     11  HN  UNL d   1      -1.797  -4.676  -0.586  1.00  0.00     0.158 HD
BRANCH  10  12
ATOM     12  C   UNL d   1      -1.917  -2.484  -0.723  0.00  0.00     0.139 C 
BRANCH  12  13
ATOM     13  C   UNL d   1      -0.411  -2.419  -0.454  0.00  0.00     0.147 C 
BRANCH  13  14
ATOM     14  N   UNL d   1       0.067  -1.089  -0.126  0.00  0.00    -0.331 N 
ATOM     15  C   UNL d   1       0.499  -0.150  -1.056  0.00  0.00     0.318 C 
ATOM     16  N   UNL d   1       0.803   1.014  -0.357  0.00  0.00    -0.341 N 
ATOM     17  O   UNL d   1       0.619  -0.290  -2.259  0.00  0.00    -0.247 OA
ATOM     18  C   UNL d   1       0.780   0.763   1.059  0.00  0.00     0.144 C 
ATOM     19  H   UNL d   1       1.336   1.735  -0.823  0.00  0.00     0.164 HD
ATOM     20  C   UNL d   1      -0.095  -0.479   1.175  0.00  0.00     0.147 C 
ENDBRANCH  13  14
ENDBRANCH  12  13
ENDBRANCH  10  12
ENDBRANCH   4   9
TORSDOF 4
