REMARK  3 active torsions:
REMARK  status: ('A' for Active; 'I' for Inactive)
REMARK    1  A    between atoms: C_2  and  C_1 
REMARK    2  A    between atoms: O_14  and  C_1 
REMARK    3  A    between atoms: C_8  and  C_7 
ROOT
ATOM      1  C   UNL d   1      -0.618   0.624   1.065  0.00  0.00     0.233 C 
ATOM      2  N   UNL d   1      -0.920   0.211  -0.311  0.00  0.00    -0.198 NA
ATOM      3  N   UNL d   1      -0.033  -0.701  -0.790  0.00  0.00    -0.322 N 
ATOM      4  HN  UNL d   1      -0.157  -1.311  -1.598  1.00  0.00     0.180 HD
ATOM      5  C   UNL d   1       0.886   0.375   1.097  0.00  0.00     0.124 C 
ATOM      6  C   UNL d   1       1.003  -0.639  -0.012  0.00  0.00     0.035 C 
ATOM      7  H   UNL d   1      -1.885  -0.102  -0.420  0.00  0.00     0.150 HD
ENDROOT
BRANCH   6   8
ATOM      8  C   UNL d   1       2.217  -1.465  -0.185  0.00  0.00    -0.010 A 
ATOM      9  C   UNL d   1       3.297  -1.357   0.699  0.00  0.00     0.053 A 
ATOM     10  C   UNL d   1       4.427  -2.157   0.519  0.00  0.00     0.102 A 
ATOM     11  O   UNL d   1       5.441  -1.984   1.427  0.00  0.00    -0.346 OA
ATOM     12  C   UNL d   1       4.480  -3.078  -0.526  0.00  0.00     0.102 A 
ATOM     13  C   UNL d   1       6.656  -2.592   0.977  0.00  0.00     0.202 C 
ATOM     14  C   UNL d   1       6.388  -3.982   0.421  0.00  0.00     0.202 C 
ATOM     15  O   UNL d   1       5.546  -3.917  -0.737  0.00  0.00    -0.346 OA
ATOM     16  C   UNL d   1       3.417  -3.175  -1.421  0.00  0.00     0.040 A 
ATOM     17  C   UNL d   1       2.284  -2.373  -1.251  0.00  0.00     0.016 A 
ENDBRANCH   6   8
BRANCH   1  18
ATOM     18  C   UNL d   1      -0.966   2.106   1.419  0.00  0.00     0.434 C 
ATOM     19  F   UNL d   1      -1.311   2.840   0.338  0.00  0.00    -0.166 F 
ATOM     20  F   UNL d   1      -2.032   2.138   2.264  0.00  0.00    -0.166 F 
ATOM     21  F   UNL d   1       0.050   2.747   2.042  0.00  0.00    -0.166 F 
ENDBRANCH   1  18
BRANCH   1  22
ATOM     22  O   UNL d   1      -1.232  -0.305   1.976  0.00  0.00    -0.366 OA
ATOM     23  H   UNL d   1      -2.151  -0.006   2.100  0.00  0.00     0.212 HD
ENDBRANCH   1  22
TORSDOF 3
