REMARK  3 active torsions:
REMARK  status: ('A' for Active; 'I' for Inactive)
REMARK    1  A    between atoms: C_2  and  S_1 
REMARK    2  A    between atoms: N_6  and  S_1 
REMARK    3  A    between atoms: C_8  and  C_9 
ROOT
ATOM      1  N   UNL d   1       0.146  -0.224   1.612  0.00  0.00    -0.281 N 
ATOM      2  C   UNL d   1      -0.154  -1.389   4.467  0.00  0.00     0.114 C 
ATOM      3  C   UNL d   1      -0.148  -2.086   3.141  0.00  0.00     0.052 C 
ATOM      4  C   UNL d   1       0.017  -1.610   1.905  0.00  0.00     0.105 C 
ATOM      5  N   UNL d   1      -0.561  -0.187   4.708  0.00  0.00    -0.384 N 
ATOM      6  HN  UNL d   1      -0.536   0.184   5.658  1.00  0.00     0.159 HD
ATOM      7  C   UNL d   1       0.044   0.884   2.584  0.00  0.00     0.160 C 
ATOM      8  C   UNL d   1      -1.056   0.636   3.610  0.00  0.00     0.141 C 
ENDROOT
BRANCH   1   9
ATOM      9  S   UNL d   1       0.928   0.148   0.130  0.00  0.00     0.271 S 
ATOM     10  O   UNL d   1       0.947  -1.009  -0.738  0.00  0.00    -0.200 OA
ATOM     11  O   UNL d   1       0.434   1.429  -0.336  0.00  0.00    -0.200 OA
BRANCH   9  12
ATOM     12  C   UNL d   1       2.635   0.466   0.527  0.00  0.00     0.123 A 
ATOM     13  S   UNL d   1       3.506  -0.826   1.244  0.00  0.00    -0.063 SA
ATOM     14  C   UNL d   1       4.884   0.144   1.439  0.00  0.00     0.093 A 
ATOM     15 CL   UNL d   1       6.274  -0.530   2.192  0.00  0.00    -0.075 Cl
ATOM     16  C   UNL d   1       4.705   1.414   0.962  0.00  0.00     0.041 A 
ATOM     17  C   UNL d   1       3.416   1.601   0.400  0.00  0.00     0.054 A 
ATOM     18 BR   UNL d   1       5.954   2.826   1.025  0.00  0.00    -0.049 Br
ENDBRANCH   9  12
ENDBRANCH   1   9
BRANCH   2  19
ATOM     19  C   UNL d   1       0.358  -2.236   5.651  0.00  0.00     0.432 C 
ATOM     20  F   UNL d   1       0.747  -3.489   5.276  0.00  0.00    -0.165 F 
ATOM     21  F   UNL d   1       1.438  -1.673   6.259  0.00  0.00    -0.165 F 
ATOM     22  F   UNL d   1      -0.591  -2.408   6.611  0.00  0.00    -0.165 F 
ENDBRANCH   2  19
TORSDOF 3
