REMARK  4 active torsions:
REMARK  status: ('A' for Active; 'I' for Inactive)
REMARK    1  A    between atoms: N_3  and  S_1 
REMARK    2  A    between atoms: C_8  and  S_1 
REMARK    3  A    between atoms: C_2  and  N_3 
REMARK    4  A    between atoms: C_12  and  C_13 
ROOT
ATOM      1  S   UNL d   1       0.900  -0.187  -0.240  0.00  0.00     0.247 S 
ATOM      2  O   UNL d   1       1.659  -0.029   0.981  0.00  0.00    -0.205 OA
ATOM      3  O   UNL d   1      -0.205  -1.118  -0.344  0.00  0.00    -0.205 OA
ENDROOT
BRANCH   1   4
ATOM      4  N   UNL d   1       2.060  -0.485  -1.474  0.00  0.00    -0.165 NA
ATOM      5  H   UNL d   1       2.954  -0.448  -0.978  0.00  0.00     0.147 HD
BRANCH   4   6
ATOM      6  C   UNL d   1       1.878  -1.732  -2.158  0.00  0.00     0.111 A 
ATOM      7  N   UNL d   1       1.108  -2.000  -3.261  0.00  0.00    -0.285 N 
ATOM      8  N   UNL d   1       1.219  -3.281  -3.678  0.00  0.00    -0.309 N 
ATOM      9  C   UNL d   1       0.347  -1.075  -4.063  0.00  0.00     0.179 C 
ATOM     10  C   UNL d   1       2.071  -3.824  -2.807  0.00  0.00     0.110 A 
ATOM     11  HN  UNL d   1       0.760  -3.726  -4.473  1.00  0.00     0.186 HD
ATOM     12  C   UNL d   1       2.528  -2.901  -1.848  0.00  0.00     0.063 A 
ENDBRANCH   4   6
ENDBRANCH   1   4
BRANCH   1  13
ATOM     13  C   UNL d   1       0.317   1.410  -0.739  0.00  0.00     0.074 A 
ATOM     14  C   UNL d   1      -0.841   1.511  -1.507  0.00  0.00     0.025 A 
ATOM     15  C   UNL d   1      -1.236   2.759  -1.992  0.00  0.00     0.009 A 
ATOM     16  C   UNL d   1      -0.491   3.923  -1.715  0.00  0.00    -0.051 A 
ATOM     17  C   UNL d   1       0.628   3.795  -0.871  0.00  0.00     0.009 A 
ATOM     18  C   UNL d   1       1.032   2.550  -0.382  0.00  0.00     0.025 A 
BRANCH  16  19
ATOM     19  C   UNL d   1      -0.884   5.264  -2.363  0.00  0.00    -0.024 C 
ATOM     20  C   UNL d   1       0.058   6.429  -1.985  0.00  0.00     0.019 C 
ATOM     21  C   UNL d   1      -0.833   5.119  -3.901  0.00  0.00     0.019 C 
ATOM     22  C   UNL d   1      -2.312   5.669  -1.944  0.00  0.00     0.019 C 
ENDBRANCH  16  19
ENDBRANCH   1  13
TORSDOF 4
