REMARK  3 active torsions:
REMARK  status: ('A' for Active; 'I' for Inactive)
REMARK    1  A    between atoms: N_2  and  C_1 
REMARK    2  A    between atoms: C_9  and  C_3 
REMARK    3  A    between atoms: C_16  and  C_11 
ROOT
ATOM      1  C   UNL d   1       1.732  -0.701   0.132  0.00  0.00     0.115 C 
ATOM      2  C   UNL d   1       2.308   0.607  -0.329  0.00  0.00     0.218 C 
ATOM      3  C   UNL d   1       0.464  -0.855   0.534  0.00  0.00     0.049 C 
ATOM      4  O   UNL d   1       1.624   1.740   0.278  0.00  0.00    -0.334 OA
ATOM      5  C   UNL d   1       0.261   1.602   0.369  0.00  0.00     0.080 A 
ATOM      6  C   UNL d   1      -0.363   0.352   0.473  0.00  0.00    -0.001 A 
ATOM      7  C   UNL d   1      -0.491   2.773   0.342  0.00  0.00     0.037 A 
ATOM      8  C   UNL d   1      -1.758   0.280   0.483  0.00  0.00     0.014 A 
ATOM      9  C   UNL d   1      -1.882   2.696   0.352  0.00  0.00     0.003 A 
ATOM     10  C   UNL d   1      -2.514   1.453   0.408  0.00  0.00     0.001 A 
ENDROOT
BRANCH   2  11
ATOM     11  C   UNL d   1       2.286   0.814  -1.847  0.00  0.00    -0.023 A 
ATOM     12  C   UNL d   1       1.272   0.280  -2.655  0.00  0.00     0.011 A 
ATOM     13  C   UNL d   1       1.245   0.512  -4.028  0.00  0.00     0.008 A 
ATOM     14  C   UNL d   1       2.233   1.288  -4.642  0.00  0.00    -0.055 A 
ATOM     15  C   UNL d   1       3.233   1.851  -3.838  0.00  0.00     0.008 A 
ATOM     16  C   UNL d   1       3.258   1.622  -2.456  0.00  0.00     0.011 A 
BRANCH  14  17
ATOM     17  C   UNL d   1       2.234   1.495  -6.146  0.00  0.00     0.010 C 
ATOM     18  C   UNL d   1       2.363   0.155  -6.878  0.00  0.00     0.015 C 
ATOM     19  C   UNL d   1       0.988   2.249  -6.617  0.00  0.00     0.015 C 
ENDBRANCH  14  17
ENDBRANCH   2  11
BRANCH   1  20
ATOM     20  N   UNL d   1       2.613  -1.851   0.103  0.00  0.00    -0.117 N 
ATOM     21  O   UNL d   1       3.790  -1.658  -0.221  0.00  0.00    -0.532 OA
ATOM     22  O   UNL d   1       2.141  -2.954   0.407  0.00  0.00    -0.532 OA
ENDBRANCH   1  20
TORSDOF 3
