REMARK  4 active torsions:
REMARK  status: ('A' for Active; 'I' for Inactive)
REMARK    1  A    between atoms: C_11  and  C_3 
REMARK    2  A    between atoms: C_5  and  C_13 
REMARK    3  A    between atoms: O_14  and  C_5 
REMARK    4  A    between atoms: C_13  and  C_11 
ROOT
ATOM      1  C   UNL d   1       0.717   0.167  -0.245  0.00  0.00     0.165 C 
ATOM      2  C   UNL d   1      -2.173  -0.104   0.065  0.00  0.00     0.131 C 
ATOM      3  C   UNL d   1      -1.492   1.119   0.665  0.00  0.00     0.061 C 
ATOM      4  C   UNL d   1      -0.192   1.393  -0.108  0.00  0.00     0.080 C 
ATOM      5  O   UNL d   1       1.832   0.488  -1.077  0.00  0.00    -0.353 OA
ATOM      6  O   UNL d   1       1.194  -0.213   1.043  0.00  0.00    -0.353 OA
ATOM      7  O   UNL d   1      -3.382  -0.117  -0.157  0.00  0.00    -0.298 OA
ATOM      8  C   UNL d   1      -1.322  -1.340  -0.145  0.00  0.00     0.084 C 
ATOM      9  C   UNL d   1      -0.051  -0.987  -0.902  0.00  0.00     0.076 C 
ATOM     10  C   UNL d   1       2.986  -0.055  -0.440  0.00  0.00     0.197 C 
ATOM     11  C   UNL d   1       2.513  -0.702   0.839  0.00  0.00     0.197 C 
ENDROOT
BRANCH   3  12
ATOM     12  C   UNL d   1      -1.361   0.912   2.182  0.00  0.00     0.022 C 
BRANCH  12  13
ATOM     13  C   UNL d   1      -0.757   2.103   2.925  0.00  0.00     0.112 C 
BRANCH  13  14
ATOM     14  C   UNL d   1      -0.623   1.815   4.403  0.00  0.00     0.258 C 
ATOM     15  O   UNL d   1      -0.942   0.769   4.955  0.00  0.00    -0.265 OA
BRANCH  14  16
ATOM     16  O   UNL d   1      -0.082   2.896   5.033  0.00  0.00    -0.326 OA
ATOM     17  C   UNL d   1       0.102   2.707   6.437  0.00  0.00     0.213 C 
ENDBRANCH  14  16
ENDBRANCH  13  14
ENDBRANCH  12  13
ENDBRANCH   3  12
TORSDOF 4
