REMARK  8 active torsions:
REMARK  status: ('A' for Active; 'I' for Inactive)
REMARK    1  A    between atoms: C_3  and  C_1 
REMARK    2  A    between atoms: N_4  and  C_2 
REMARK    3  A    between atoms: O_16  and  C_3 
REMARK       I    between atoms: C_6  and  N_4 
REMARK    4  A    between atoms: C_13  and  C_6 
REMARK    5  A    between atoms: C_9  and  C_15 
REMARK    6  A    between atoms: O_17  and  C_9 
REMARK    7  A    between atoms: C_10  and  C_13 
REMARK    8  A    between atoms: C_15  and  C_10 
ROOT
ATOM      1  N   UNL d   1       2.245   2.752   1.700  0.00  0.00    -0.326 N 
ATOM      2  C   UNL d   1       2.772   2.780   0.421  0.00  0.00     0.222 C 
ATOM      3  O   UNL d   1       2.337   2.139  -0.530  0.00  0.00    -0.273 OA
ATOM      4  H   UNL d   1       2.478   3.484   2.356  0.00  0.00     0.169 HD
ENDROOT
BRANCH   1   5
ATOM      5  C   UNL d   1       1.232   1.871   2.083  0.00  0.00     0.058 A 
ATOM      6  C   UNL d   1       0.261   2.175   3.029  0.00  0.00     0.106 A 
ATOM      7  S   UNL d   1      -0.802   0.841   3.275  0.00  0.00    -0.094 SA
ATOM      8  C   UNL d   1       0.012  -0.122   2.134  0.00  0.00     0.053 A 
ATOM      9  C   UNL d   1       1.070   0.546   1.567  0.00  0.00     0.038 A 
BRANCH   6  10
ATOM     10  C   UNL d   1       0.038   3.443   3.713  0.00  0.00     0.302 C 
ATOM     11  O   UNL d   1       0.769   4.428   3.611  0.00  0.00    -0.259 OA
BRANCH  10  12
ATOM     12  O   UNL d   1      -1.104   3.411   4.456  0.00  0.00    -0.322 OA
ATOM     13  C   UNL d   1      -1.485   4.606   5.141  0.00  0.00     0.213 C 
ENDBRANCH  10  12
ENDBRANCH   6  10
ENDBRANCH   1   5
BRANCH   2  14
ATOM     14  C   UNL d   1       3.957   3.721   0.236  0.00  0.00     0.112 C 
BRANCH  14  15
ATOM     15  C   UNL d   1       3.645   5.233   0.073  0.00  0.00    -0.030 C 
ATOM     16  C   UNL d   1       4.948   5.947  -0.360  0.00  0.00     0.016 C 
ATOM     17  C   UNL d   1       2.624   5.452  -1.067  0.00  0.00     0.016 C 
BRANCH  15  18
ATOM     18  C   UNL d   1       3.072   5.890   1.356  0.00  0.00     0.119 C 
BRANCH  18  19
ATOM     19  C   UNL d   1       3.894   5.673   2.613  0.00  0.00     0.140 C 
ATOM     20  O   UNL d   1       5.116   5.715   2.667  0.00  0.00    -0.650 OA
BRANCH  19  21
ATOM     21  O   UNL d   1       3.154   5.406   3.708  0.00  0.00    -0.776 OA
ATOM     22  H   UNL d   1       2.171   5.384   3.604  0.00  0.00     0.167 HD
ENDBRANCH  19  21
ENDBRANCH  18  19
ENDBRANCH  15  18
ENDBRANCH  14  15
ENDBRANCH   2  14
TORSDOF 8
