REMARK  4 active torsions:
REMARK  status: ('A' for Active; 'I' for Inactive)
REMARK       I    between atoms: N_2  and  C_1 
REMARK    1  A    between atoms: C_4  and  C_1 
REMARK       I    between atoms: C_3  and  N_2 
REMARK       I    between atoms: N_6  and  C_3 
REMARK    2  A    between atoms: C_8  and  N_6 
REMARK    3  A    between atoms: C_14  and  C_8 
REMARK    4  A    between atoms: C_15  and  C_8 
ROOT
ATOM      1  C   UNL d   1       4.243  -0.830  -1.840  0.00  0.00    -0.086 C 
ATOM      2  C   UNL d   1       5.151  -1.468  -2.301  0.00  0.00     0.015 C 
ATOM      3  C   UNL d   1       3.097  -0.081  -1.262  0.00  0.00     0.096 C 
ENDROOT
BRANCH   3   4
ATOM      4  N   UNL d   1       2.000  -0.146  -2.226  0.00  0.00    -0.323 N 
ATOM      5  C   UNL d   1       0.755   0.343  -1.999  0.00  0.00     0.324 C 
ATOM      6  N   UNL d   1      -0.147   0.229  -3.023  0.00  0.00    -0.275 N 
ATOM      7  O   UNL d   1       0.385   0.852  -0.949  0.00  0.00    -0.247 OA
ATOM      8  C   UNL d   1       0.033  -0.106  -4.353  0.00  0.00     0.261 C 
ATOM      9  H   UNL d   1      -1.047   0.592  -2.741  0.00  0.00     0.173 HD
ATOM     10  O   UNL d   1       1.085  -0.510  -4.838  0.00  0.00    -0.267 OA
ATOM     11  H   UNL d   1       2.221  -0.378  -3.192  0.00  0.00     0.166 HD
BRANCH   8  12
ATOM     12  C   UNL d   1      -1.209  -0.058  -5.173  0.00  0.00     0.054 A 
ATOM     13  C   UNL d   1      -2.146   0.984  -5.100  0.00  0.00     0.049 A 
ATOM     14 CL   UNL d   1      -1.877   2.431  -4.194  0.00  0.00    -0.083 Cl
ATOM     15  C   UNL d   1      -3.355   0.888  -5.797  0.00  0.00     0.025 A 
ATOM     16  C   UNL d   1      -3.626  -0.233  -6.582  0.00  0.00     0.002 A 
ATOM     17  C   UNL d   1      -2.677  -1.248  -6.697  0.00  0.00     0.001 A 
ATOM     18  C   UNL d   1      -1.469  -1.159  -6.002  0.00  0.00     0.019 A 
ENDBRANCH   8  12
ENDBRANCH   3   4
BRANCH   3  19
ATOM     19  C   UNL d   1       3.515   1.392  -0.984  0.00  0.00     0.040 C 
ATOM     20  C   UNL d   1       3.982   2.183  -2.202  0.00  0.00     0.009 C 
ENDBRANCH   3  19
BRANCH   3  21
ATOM     21  C   UNL d   1       2.724  -0.736   0.103  0.00  0.00     0.040 C 
ATOM     22  C   UNL d   1       2.168  -2.155   0.016  0.00  0.00     0.009 C 
ENDBRANCH   3  21
TORSDOF 4
