REMARK  5 active torsions:
REMARK  status: ('A' for Active; 'I' for Inactive)
REMARK    1  A    between atoms: S_2  and  C_1 
REMARK    2  A    between atoms: C_4  and  C_3 
REMARK    3  A    between atoms: C_9  and  N_5 
REMARK    4  A    between atoms: C_6  and  O_15 
REMARK    5  A    between atoms: O_15  and  C_21 
ROOT
ATOM      1  C   UNL d   1       1.036  -2.035   0.750  0.00  0.00     0.140 C 
ATOM      2  C   UNL d   1       0.277  -0.925   0.688  0.00  0.00     0.065 C 
ATOM      3  C   UNL d   1       0.551  -3.343   0.990  0.00  0.00     0.111 C 
ATOM      4  N   UNL d   1       0.148  -4.402   1.237  0.00  0.00    -0.191 NA
ENDROOT
BRANCH   1   5
ATOM      5  S   UNL d   1       2.757  -1.849   0.569  0.00  0.00     0.181 S 
ATOM      6  O   UNL d   1       3.335  -3.060   0.027  0.00  0.00    -0.222 OA
ATOM      7  O   UNL d   1       3.044  -0.571  -0.063  0.00  0.00    -0.222 OA
ATOM      8  C   UNL d   1       3.296  -1.715   2.256  0.00  0.00     0.168 C 
ENDBRANCH   1   5
BRANCH   2   9
ATOM      9  C   UNL d   1      -1.132  -0.942   0.863  0.00  0.00     0.041 A 
ATOM     10  N   UNL d   1      -2.042  -1.011  -0.203  0.00  0.00    -0.322 N 
ATOM     11  C   UNL d   1      -3.307  -1.094   0.365  0.00  0.00     0.097 A 
ATOM     12  C   UNL d   1      -3.214  -1.024   1.734  0.00  0.00     0.020 A 
ATOM     13  C   UNL d   1      -1.849  -0.930   2.048  0.00  0.00     0.031 A 
BRANCH  10  14
ATOM     14  C   UNL d   1      -1.808  -0.989  -1.620  0.00  0.00     0.039 A 
ATOM     15  C   UNL d   1      -2.750  -1.559  -2.495  0.00  0.00     0.033 A 
ATOM     16  C   UNL d   1      -2.561  -1.528  -3.887  0.00  0.00     0.039 A 
ATOM     17  C   UNL d   1      -1.420  -0.942  -4.425  0.00  0.00     0.078 A 
ATOM     18  C   UNL d   1      -0.499  -0.349  -3.560  0.00  0.00     0.039 A 
ATOM     19  C   UNL d   1      -0.684  -0.372  -2.172  0.00  0.00     0.033 A 
BRANCH  17  20
ATOM     20  O   UNL d   1      -1.075  -0.866  -5.740  0.00  0.00    -0.255 OA
BRANCH  20  21
ATOM     21  C   UNL d   1      -1.784  -1.649  -6.684  0.00  0.00     0.530 C 
ATOM     22  F   UNL d   1      -2.054  -2.890  -6.228  0.00  0.00    -0.144 F 
ATOM     23  F   UNL d   1      -2.936  -1.037  -7.031  0.00  0.00    -0.144 F 
ATOM     24  F   UNL d   1      -1.021  -1.773  -7.793  0.00  0.00    -0.144 F 
ENDBRANCH  20  21
ENDBRANCH  17  20
ENDBRANCH  10  14
ENDBRANCH   2   9
TORSDOF 5
