REMARK  5 active torsions:
REMARK  status: ('A' for Active; 'I' for Inactive)
REMARK    1  A    between atoms: C_3  and  C_1 
REMARK       I    between atoms: N_10  and  C_3 
REMARK    2  A    between atoms: C_5  and  C_14 
REMARK    3  A    between atoms: N_11  and  C_8 
REMARK    4  A    between atoms: C_13  and  N_10 
REMARK    5  A    between atoms: C_14  and  C_13 
ROOT
ATOM      1  C   UNL d   1       1.009   2.545  -0.118  0.00  0.00     0.253 C 
ATOM      2  O   UNL d   1       0.341   3.582  -0.101  0.00  0.00    -0.268 OA
ATOM      3  N   UNL d   1       2.381   2.566  -0.156  0.00  0.00    -0.357 N 
ATOM      4  H   UNL d   1       2.821   1.752  -0.577  0.00  0.00     0.162 HD
ENDROOT
BRANCH   3   5
ATOM      5  C   UNL d   1       3.111   3.817  -0.135  0.00  0.00     0.127 C 
BRANCH   5   6
ATOM      6  C   UNL d   1       4.628   3.627  -0.122  0.00  0.00     0.060 C 
BRANCH   6   7
ATOM      7  C   UNL d   1       5.145   2.881   1.073  0.00  0.00    -0.029 A 
ATOM      8  C   UNL d   1       5.028   3.252   2.400  0.00  0.00     0.096 A 
ATOM      9  N   UNL d   1       5.644   2.304   3.172  0.00  0.00    -0.365 N 
ATOM     10  C   UNL d   1       6.177   1.317   2.378  0.00  0.00     0.042 A 
ATOM     11  H   UNL d   1       5.706   2.323   4.181  0.00  0.00     0.165 HD
ATOM     12  C   UNL d   1       5.879   1.648   1.056  0.00  0.00    -0.002 A 
ATOM     13  C   UNL d   1       6.897   0.170   2.730  0.00  0.00     0.030 A 
ATOM     14  C   UNL d   1       6.321   0.783   0.034  0.00  0.00     0.014 A 
ATOM     15  C   UNL d   1       7.045  -0.367   0.367  0.00  0.00     0.001 A 
ATOM     16  C   UNL d   1       7.329  -0.667   1.697  0.00  0.00     0.002 A 
ENDBRANCH   6   7
ENDBRANCH   5   6
ENDBRANCH   3   5
BRANCH   1  17
ATOM     17  C   UNL d   1       0.337   1.205  -0.100  0.00  0.00     0.052 A 
ATOM     18  C   UNL d   1       1.011  -0.038  -0.078  0.00  0.00     0.021 A 
ATOM     19  C   UNL d   1       0.245  -1.218  -0.083  0.00  0.00     0.024 A 
ATOM     20  C   UNL d   1      -1.150  -1.179  -0.033  0.00  0.00     0.002 A 
ATOM     21  C   UNL d   1      -1.810   0.044  -0.022  0.00  0.00     0.001 A 
ATOM     22  C   UNL d   1      -1.071   1.226  -0.066  0.00  0.00     0.019 A 
BRANCH  18  23
ATOM     23  N   UNL d   1       2.420  -0.165  -0.128  0.00  0.00    -0.302 NA
ATOM     24  H   UNL d   1       2.863   0.399   0.603  0.00  0.00     0.124 HD
ATOM     25  H   UNL d   1       2.735  -1.128  -0.027  0.00  0.00     0.124 HD
ENDBRANCH  18  23
ENDBRANCH   1  17
TORSDOF 5
