REMARK  3 active torsions:
REMARK  status: ('A' for Active; 'I' for Inactive)
REMARK    1  A    between atoms: C_5  and  C_1 
REMARK       I    between atoms: C_2  and  N_3 
REMARK    2  A    between atoms: C_7  and  C_2 
REMARK    3  A    between atoms: N_3  and  C_4 
ROOT
ATOM      1  C   UNL d   1      -0.731  -0.811  -3.279  0.00  0.00     0.057 A 
ATOM      2  C   UNL d   1       0.350   0.095  -1.278  0.00  0.00     0.050 A 
ATOM      3  C   UNL d   1      -0.005  -0.994  -2.098  0.00  0.00     0.047 A 
ATOM      4  C   UNL d   1      -1.113   0.497  -3.632  0.00  0.00     0.060 A 
ATOM      5  C   UNL d   1      -0.011   1.390  -1.676  0.00  0.00     0.018 A 
ATOM      6  C   UNL d   1      -0.748   1.591  -2.844  0.00  0.00     0.027 A 
ATOM      7 CL   UNL d   1      -2.070   0.796  -5.045  0.00  0.00    -0.082 Cl
ENDROOT
BRANCH   1   8
ATOM      8  N   UNL d   1      -1.066  -1.877  -4.150  0.00  0.00    -0.323 N 
ATOM      9  C   UNL d   1      -0.891  -3.238  -3.947  0.00  0.00     0.255 C 
ATOM     10  O   UNL d   1      -0.512  -3.734  -2.882  0.00  0.00    -0.270 OA
ATOM     11  H   UNL d   1      -1.518  -1.600  -5.021  0.00  0.00     0.169 HD
BRANCH   9  12
ATOM     12  C   UNL d   1      -1.162  -4.140  -5.154  0.00  0.00     0.270 C 
ATOM     13 CL   UNL d   1      -2.106  -3.320  -6.418  0.00  0.00    -0.098 Cl
ATOM     14 CL   UNL d   1       0.400  -4.677  -5.811  0.00  0.00    -0.098 Cl
ENDBRANCH   9  12
ENDBRANCH   1   8
BRANCH   2  15
ATOM     15  C   UNL d   1       1.101  -0.122   0.013  0.00  0.00     0.417 C 
ATOM     16  F   UNL d   1       1.291  -1.431   0.328  0.00  0.00    -0.166 F 
ATOM     17  F   UNL d   1       0.456   0.428   1.079  0.00  0.00    -0.166 F 
ATOM     18  F   UNL d   1       2.340   0.444  -0.006  0.00  0.00    -0.166 F 
ENDBRANCH   2  15
TORSDOF 3
