REMARK  11 active torsions:
REMARK  status: ('A' for Active; 'I' for Inactive)
REMARK    1  A    between atoms: C_3  and  S_1 
REMARK    2  A    between atoms: C_5  and  S_1 
REMARK    3  A    between atoms: S_2  and  C_4 
REMARK    4  A    between atoms: C_6  and  S_2 
REMARK    5  A    between atoms: C_12  and  C_11 
REMARK    6  A    between atoms: O_21  and  C_27 
REMARK    7  A    between atoms: C_29  and  O_21 
REMARK    8  A    between atoms: O_22  and  C_28 
REMARK    9  A    between atoms: C_30  and  O_22 
REMARK   10  A    between atoms: O_45  and  C_31 
REMARK   11  A    between atoms: O_46  and  C_32 
ROOT
ATOM      1  C   UNL d   1       0.570  -1.041   1.325  0.00  0.00     0.064 A 
ATOM      2  C   UNL d   1      -0.053  -2.514   3.661  0.00  0.00    -0.026 A 
ATOM      3  C   UNL d   1       1.183  -2.271   1.552  0.00  0.00     0.025 A 
ATOM      4  C   UNL d   1      -0.322  -0.517   2.260  0.00  0.00     0.025 A 
ATOM      5  C   UNL d   1       0.865  -2.999   2.707  0.00  0.00     0.014 A 
ATOM      6  C   UNL d   1      -0.629  -1.252   3.410  0.00  0.00     0.014 A 
ENDROOT
BRANCH   2   7
ATOM      7  C   UNL d   1      -0.412  -3.294   4.874  0.00  0.00    -0.026 A 
ATOM      8  C   UNL d   1      -1.719  -3.257   5.402  0.00  0.00     0.014 A 
ATOM      9  C   UNL d   1      -2.088  -4.007   6.526  0.00  0.00     0.025 A 
ATOM     10  C   UNL d   1      -1.141  -4.819   7.149  0.00  0.00     0.064 A 
ATOM     11  C   UNL d   1       0.162  -4.880   6.656  0.00  0.00     0.025 A 
ATOM     12  C   UNL d   1       0.519  -4.119   5.533  0.00  0.00     0.014 A 
BRANCH  10  13
ATOM     13  S   UNL d   1      -1.650  -5.894   8.474  0.00  0.00     0.206 S 
ATOM     14  O   UNL d   1      -2.833  -6.587   8.004  0.00  0.00    -0.217 OA
ATOM     15  O   UNL d   1      -0.481  -6.650   8.890  0.00  0.00    -0.217 OA
BRANCH  13  16
ATOM     16  C   UNL d   1      -2.145  -4.904   9.874  0.00  0.00     0.064 A 
ATOM     17  C   UNL d   1      -3.490  -4.545  10.009  0.00  0.00     0.026 A 
ATOM     18  C   UNL d   1      -3.921  -3.902  11.172  0.00  0.00     0.039 A 
ATOM     19  C   UNL d   1      -3.009  -3.583  12.184  0.00  0.00     0.076 A 
ATOM     20  C   UNL d   1      -1.673  -3.975  12.059  0.00  0.00     0.039 A 
ATOM     21  C   UNL d   1      -1.237  -4.638  10.905  0.00  0.00     0.026 A 
BRANCH  19  22
ATOM     22  O   UNL d   1      -3.360  -2.948  13.358  0.00  0.00    -0.311 OA
BRANCH  22  23
ATOM     23  C   UNL d   1      -4.311  -1.951  13.316  0.00  0.00     0.076 A 
ATOM     24  C   UNL d   1      -5.129  -1.802  14.438  0.00  0.00     0.040 A 
ATOM     25  C   UNL d   1      -6.146  -0.836  14.449  0.00  0.00     0.039 A 
ATOM     26  C   UNL d   1      -6.346  -0.019  13.335  0.00  0.00     0.068 A 
ATOM     27  C   UNL d   1      -5.491  -0.139  12.239  0.00  0.00     0.039 A 
ATOM     28  C   UNL d   1      -4.459  -1.075  12.239  0.00  0.00     0.040 A 
BRANCH  26  29
ATOM     29  O   UNL d   1      -7.320   0.927  13.182  0.00  0.00    -0.356 OA
ATOM     30  C   UNL d   1      -8.223   1.110  14.262  0.00  0.00     0.210 C 
ENDBRANCH  26  29
ENDBRANCH  22  23
ENDBRANCH  19  22
ENDBRANCH  13  16
ENDBRANCH  10  13
ENDBRANCH   2   7
BRANCH   1  31
ATOM     31  S   UNL d   1       0.992  -0.082  -0.116  0.00  0.00     0.206 S 
ATOM     32  O   UNL d   1       2.319  -0.512  -0.523  0.00  0.00    -0.217 OA
ATOM     33  O   UNL d   1       0.729   1.307   0.197  0.00  0.00    -0.217 OA
BRANCH  31  34
ATOM     34  C   UNL d   1      -0.115  -0.506  -1.444  0.00  0.00     0.064 A 
ATOM     35  C   UNL d   1      -1.438  -0.863  -1.175  0.00  0.00     0.026 A 
ATOM     36  C   UNL d   1      -2.304  -1.130  -2.236  0.00  0.00     0.039 A 
ATOM     37  C   UNL d   1      -1.838  -1.104  -3.557  0.00  0.00     0.076 A 
ATOM     38  C   UNL d   1      -0.517  -0.735  -3.818  0.00  0.00     0.039 A 
ATOM     39  C   UNL d   1       0.350  -0.439  -2.763  0.00  0.00     0.026 A 
BRANCH  37  40
ATOM     40  O   UNL d   1      -2.628  -1.377  -4.654  0.00  0.00    -0.311 OA
BRANCH  40  41
ATOM     41  C   UNL d   1      -3.588  -2.361  -4.555  0.00  0.00     0.076 A 
ATOM     42  C   UNL d   1      -4.748  -2.188  -5.313  0.00  0.00     0.040 A 
ATOM     43  C   UNL d   1      -5.789  -3.123  -5.232  0.00  0.00     0.039 A 
ATOM     44  C   UNL d   1      -5.672  -4.229  -4.388  0.00  0.00     0.068 A 
ATOM     45  C   UNL d   1      -4.490  -4.420  -3.672  0.00  0.00     0.039 A 
ATOM     46  C   UNL d   1      -3.439  -3.511  -3.779  0.00  0.00     0.040 A 
BRANCH  44  47
ATOM     47  O   UNL d   1      -6.619  -5.188  -4.169  0.00  0.00    -0.356 OA
ATOM     48  C   UNL d   1      -7.838  -5.071  -4.888  0.00  0.00     0.210 C 
ENDBRANCH  44  47
ENDBRANCH  40  41
ENDBRANCH  37  40
ENDBRANCH  31  34
ENDBRANCH   1  31
TORSDOF 11
