REMARK  3 active torsions:
REMARK  status: ('A' for Active; 'I' for Inactive)
REMARK    1  A    between atoms: N_7  and  C_3 
REMARK    2  A    between atoms: C_8  and  C_4 
REMARK    3  A    between atoms: C_9  and  N_7 
ROOT
ATOM      1  N   UNL d   1       1.390  -0.574   0.051  0.00  0.00    -0.339 N 
ATOM      2  HN  UNL d   1       2.290  -1.042   0.160  1.00  0.00     0.168 HD
ATOM      3  C   UNL d   1       0.242  -1.203  -0.058  0.00  0.00     0.149 A 
ATOM      4  C   UNL d   1       1.234   0.801   0.002  0.00  0.00     0.025 A 
ATOM      5  S   UNL d   1      -1.121  -0.154  -0.181  0.00  0.00    -0.064 SA
ATOM      6  C   UNL d   1      -0.086   1.206  -0.058  0.00  0.00     0.079 A 
ENDROOT
BRANCH   3   7
ATOM      7  N   UNL d   1       0.085  -2.544  -0.121  0.00  0.00    -0.337 N 
ATOM      8  H   UNL d   1      -0.803  -2.916  -0.426  0.00  0.00     0.168 HD
BRANCH   7   9
ATOM      9  C   UNL d   1       0.979  -3.499   0.396  0.00  0.00     0.034 A 
ATOM     10  C   UNL d   1       1.827  -3.228   1.479  0.00  0.00     0.029 A 
ATOM     11  C   UNL d   1       2.724  -4.188   1.952  0.00  0.00     0.002 A 
ATOM     12  C   UNL d   1       2.813  -5.425   1.326  0.00  0.00     0.000 A 
ATOM     13  C   UNL d   1       1.999  -5.703   0.228  0.00  0.00     0.002 A 
ATOM     14  C   UNL d   1       1.087  -4.748  -0.229  0.00  0.00     0.029 A 
ENDBRANCH   7   9
ENDBRANCH   3   7
BRANCH   4  15
ATOM     15  C   UNL d   1       2.476   1.681  -0.004  0.00  0.00    -0.008 C 
ATOM     16  C   UNL d   1       3.765   0.830  -0.038  0.00  0.00     0.021 C 
ATOM     17  C   UNL d   1       2.474   2.581  -1.255  0.00  0.00     0.021 C 
ATOM     18  C   UNL d   1       2.518   2.562   1.257  0.00  0.00     0.021 C 
ENDBRANCH   4  15
TORSDOF 3
