REMARK  4 active torsions:
REMARK  status: ('A' for Active; 'I' for Inactive)
REMARK    1  A    between atoms: N_9  and  C_3 
REMARK    2  A    between atoms: C_14  and  N_9 
REMARK    3  A    between atoms: C_15  and  N_10 
REMARK    4  A    between atoms: C_20  and  C_15 
ROOT
ATOM      1  N   UNL d   1       1.347  -2.612  -0.797  0.00  0.00    -0.370 N 
ATOM      2  H   UNL d   1       1.130  -2.595  -1.789  0.00  0.00     0.161 HD
ENDROOT
BRANCH   1   3
ATOM      3  C   UNL d   1       2.705  -2.361  -0.581  0.00  0.00     0.122 A 
ATOM      4  C   UNL d   1       3.496  -1.672  -1.518  0.00  0.00     0.075 A 
ATOM      5  S   UNL d   1       3.082  -1.085  -3.082  0.00  0.00    -0.095 SA
ATOM      6  C   UNL d   1       4.821  -1.371  -1.213  0.00  0.00     0.060 A 
ATOM      7  C   UNL d   1       4.631  -0.409  -3.320  0.00  0.00     0.059 A 
ATOM      8  C   UNL d   1       5.470  -0.603  -2.240  0.00  0.00    -0.027 A 
ATOM      9  C   UNL d   1       6.857  -0.061  -2.147  0.00  0.00     0.051 C 
ATOM     10  N   UNL d   1       5.403  -1.754  -0.050  0.00  0.00    -0.351 N 
ATOM     11  C   UNL d   1       4.595  -2.440   0.762  0.00  0.00     0.182 A 
ATOM     12  HN  UNL d   1       6.372  -1.537   0.184  1.00  0.00     0.166 HD
ATOM     13  N   UNL d   1       3.307  -2.752   0.562  0.00  0.00    -0.338 N 
ATOM     14  HN  UNL d   1       2.789  -3.279   1.265  1.00  0.00     0.168 HD
ENDBRANCH   1   3
BRANCH   1  15
ATOM     15  C   UNL d   1       0.706  -3.676  -0.014  0.00  0.00     0.086 C 
ATOM     16  C   UNL d   1      -0.535  -4.196  -0.749  0.00  0.00     0.055 C 
ATOM     17  C   UNL d   1      -1.712  -3.223  -0.685  0.00  0.00     0.275 C 
ATOM     18  N   UNL d   1      -2.062  -2.830   0.693  0.00  0.00     0.092 N 
ATOM     19  C   UNL d   1      -0.888  -2.229   1.353  0.00  0.00     0.275 C 
ATOM     20  C   UNL d   1       0.298  -3.197   1.383  0.00  0.00     0.055 C 
BRANCH  18  21
ATOM     21  C   UNL d   1      -3.191  -1.869   0.627  0.00  0.00     0.311 C 
BRANCH  21  22
ATOM     22  C   UNL d   1      -3.786  -1.416   1.947  0.00  0.00    -0.030 A 
ATOM     23  C   UNL d   1      -4.253  -0.096   2.069  0.00  0.00     0.009 A 
ATOM     24  C   UNL d   1      -4.880   0.340   3.236  0.00  0.00     0.001 A 
ATOM     25  C   UNL d   1      -5.059  -0.541   4.301  0.00  0.00     0.000 A 
ATOM     26  C   UNL d   1      -4.612  -1.857   4.190  0.00  0.00     0.001 A 
ATOM     27  C   UNL d   1      -3.989  -2.296   3.020  0.00  0.00     0.009 A 
ENDBRANCH  21  22
ENDBRANCH  18  21
ENDBRANCH   1  15
TORSDOF 4
