REMARK  1 active torsions:
REMARK  status: ('A' for Active; 'I' for Inactive)
REMARK    1  A    between atoms: C_4  and  N_1 
ROOT
ATOM      1  N   UNL d   1       0.012  -0.937  -0.052  0.00  0.00    -0.252 N 
ATOM      2  C   UNL d   1      -1.234  -0.308   0.114  0.00  0.00     0.231 C 
ATOM      3  C   UNL d   1       1.253  -0.275  -0.061  0.00  0.00     0.231 C 
ATOM      4  O   UNL d   1      -2.324  -0.879   0.079  0.00  0.00    -0.273 OA
ATOM      5  O   UNL d   1       2.350  -0.839  -0.112  0.00  0.00    -0.273 OA
ATOM      6  C   UNL d   1       1.228   1.224   0.128  0.00  0.00     0.104 C 
ATOM      7  C   UNL d   1      -1.205   1.182   0.364  0.00  0.00     0.104 C 
ATOM      8  C   UNL d   1      -0.058   1.834  -0.372  0.00  0.00     0.019 C 
ENDROOT
BRANCH   1   9
ATOM      9  C   UNL d   1       0.020  -2.362  -0.229  0.00  0.00     0.045 A 
ATOM     10  C   UNL d   1       0.756  -2.949  -1.271  0.00  0.00     0.033 A 
ATOM     11  C   UNL d   1       0.751  -4.335  -1.450  0.00  0.00     0.044 A 
ATOM     12  C   UNL d   1       0.036  -5.137  -0.569  0.00  0.00     0.116 A 
ATOM     13  C   UNL d   1      -0.685  -4.581   0.477  0.00  0.00     0.044 A 
ATOM     14  F   UNL d   1       0.047  -6.467  -0.731  0.00  0.00    -0.206 F 
ATOM     15  C   UNL d   1      -0.708  -3.193   0.639  0.00  0.00     0.033 A 
ENDBRANCH   1   9
TORSDOF 1
