REMARK  5 active torsions:
REMARK  status: ('A' for Active; 'I' for Inactive)
REMARK    1  A    between atoms: C_2  and  C_1 
REMARK       I    between atoms: N_5  and  C_1 
REMARK    2  A    between atoms: C_3  and  C_8 
REMARK    3  A    between atoms: O_10  and  C_3 
REMARK    4  A    between atoms: C_9  and  C_4 
REMARK    5  A    between atoms: C_8  and  N_5 
ROOT
ATOM      1  C   UNL d   1       0.928   0.050   0.078  0.00  0.00     0.241 C 
ATOM      2  N   UNL d   1       0.107   0.706   0.954  0.00  0.00    -0.348 N 
ATOM      3  O   UNL d   1       2.150   0.062   0.153  0.00  0.00    -0.269 OA
ATOM      4  H   UNL d   1      -0.904   0.674   0.851  0.00  0.00     0.163 HD
ENDROOT
BRANCH   1   5
ATOM      5  C   UNL d   1       0.179  -0.667  -0.985  0.00  0.00     0.075 C 
ATOM      6  C   UNL d   1       0.827  -1.347  -1.945  0.00  0.00     0.017 C 
BRANCH   6   7
ATOM      7  C   UNL d   1       0.100  -2.027  -3.021  0.00  0.00    -0.036 A 
ATOM      8  C   UNL d   1      -0.211  -1.340  -4.200  0.00  0.00     0.011 A 
ATOM      9  C   UNL d   1      -0.917  -1.978  -5.225  0.00  0.00     0.001 A 
ATOM     10  C   UNL d   1      -1.316  -3.305  -5.078  0.00  0.00     0.000 A 
ATOM     11  C   UNL d   1      -1.008  -3.996  -3.906  0.00  0.00     0.001 A 
ATOM     12  C   UNL d   1      -0.304  -3.359  -2.879  0.00  0.00     0.011 A 
ENDBRANCH   6   7
ENDBRANCH   1   5
BRANCH   2  13
ATOM     13  C   UNL d   1       0.627   1.506   2.050  0.00  0.00     0.232 C 
BRANCH  13  14
ATOM     14  C   UNL d   1      -0.529   2.113   2.834  0.00  0.00     0.158 C 
ATOM     15  O   UNL d   1      -1.709   1.938   2.557  0.00  0.00    -0.649 OA
BRANCH  14  16
ATOM     16  O   UNL d   1      -0.138   2.878   3.879  0.00  0.00    -0.775 OA
ATOM     17  H   UNL d   1       0.829   2.942   3.996  0.00  0.00     0.167 HD
ENDBRANCH  14  16
ENDBRANCH  13  14
ENDBRANCH   2  13
TORSDOF 5
