REMARK  7 active torsions:
REMARK  status: ('A' for Active; 'I' for Inactive)
REMARK    1  A    between atoms: N_2  and  C_1 
REMARK    2  A    between atoms: C_3  and  C_1 
REMARK    3  A    between atoms: C_5  and  C_1 
REMARK    4  A    between atoms: O_8  and  C_1 
REMARK       I    between atoms: C_4  and  N_2 
REMARK    5  A    between atoms: C_6  and  C_4 
REMARK    6  A    between atoms: O_14  and  C_5 
REMARK    7  A    between atoms: C_19  and  O_14 
ROOT
ATOM      1  C   UNL d   1       0.982  -0.033  -0.023  0.00  0.00     0.325 C 
ENDROOT
BRANCH   1   2
ATOM      2  N   UNL d   1       0.612  -0.004  -1.444  0.00  0.00    -0.309 N 
ATOM      3  C   UNL d   1       1.125   0.931  -2.306  0.00  0.00     0.254 C 
ATOM      4  O   UNL d   1       1.873   1.810  -1.897  0.00  0.00    -0.268 OA
ATOM      5  H   UNL d   1      -0.126  -0.634  -1.724  0.00  0.00     0.166 HD
BRANCH   3   6
ATOM      6  C   UNL d   1       0.703   0.862  -3.743  0.00  0.00     0.032 A 
ATOM      7  C   UNL d   1      -0.038  -0.203  -4.282  0.00  0.00     0.023 A 
ATOM      8  C   UNL d   1      -0.384  -0.221  -5.644  0.00  0.00    -0.061 A 
ATOM      9  C   UNL d   1      -1.170  -1.359  -6.229  0.00  0.00     0.048 C 
ATOM     10  C   UNL d   1       0.009   0.842  -6.465  0.00  0.00     0.007 A 
ATOM     11  C   UNL d   1       0.749   1.900  -5.940  0.00  0.00     0.002 A 
ATOM     12  C   UNL d   1       1.097   1.908  -4.588  0.00  0.00     0.017 A 
ENDBRANCH   3   6
ENDBRANCH   1   2
BRANCH   1  13
ATOM     13  C   UNL d   1       2.490  -0.233   0.320  0.00  0.00     0.448 C 
ATOM     14  F   UNL d   1       3.275  -0.316  -0.782  0.00  0.00    -0.166 F 
ATOM     15  F   UNL d   1       2.962   0.803   1.062  0.00  0.00    -0.166 F 
ATOM     16  F   UNL d   1       2.732  -1.358   1.038  0.00  0.00    -0.166 F 
ENDBRANCH   1  13
BRANCH   1  17
ATOM     17  C   UNL d   1       0.262  -1.263   0.557  0.00  0.00     0.325 C 
ATOM     18  O   UNL d   1      -0.059  -2.240  -0.117  0.00  0.00    -0.259 OA
BRANCH  17  19
ATOM     19  O   UNL d   1      -0.077  -1.082   1.866  0.00  0.00    -0.318 OA
BRANCH  19  20
ATOM     20  C   UNL d   1      -1.109  -1.948   2.357  0.00  0.00     0.174 C 
ATOM     21  C   UNL d   1      -2.457  -1.357   1.982  0.00  0.00     0.034 C 
ENDBRANCH  19  20
ENDBRANCH  17  19
ENDBRANCH   1  17
BRANCH   1  22
ATOM     22  O   UNL d   1       0.426   1.173   0.512  0.00  0.00    -0.356 OA
ATOM     23  H   UNL d   1       0.990   1.883   0.143  0.00  0.00     0.213 HD
ENDBRANCH   1  22
TORSDOF 7
