REMARK  4 active torsions:
REMARK  status: ('A' for Active; 'I' for Inactive)
REMARK    1  A    between atoms: N_3  and  S_1 
REMARK    2  A    between atoms: C_12  and  S_1 
REMARK    3  A    between atoms: N_2  and  C_4 
REMARK    4  A    between atoms: C_6  and  N_5 
ROOT
ATOM      1  N   UNL d   1       0.583  -0.908  -1.426  0.00  0.00    -0.205 NA
ATOM      2  N   UNL d   1       0.984  -2.042  -4.181  0.00  0.00    -0.366 N 
ATOM      3  C   UNL d   1       1.116  -0.124  -2.609  0.00  0.00     0.127 C 
ATOM      4  C   UNL d   1       0.598  -0.643  -3.965  0.00  0.00     0.140 C 
ATOM      5  C   UNL d   1       0.162  -3.252  -2.174  0.00  0.00     0.035 C 
ATOM      6  C   UNL d   1       1.099  -2.316  -1.420  0.00  0.00     0.109 C 
ATOM      7  C   UNL d   1       0.070  -3.056  -3.684  0.00  0.00     0.125 C 
ENDROOT
BRANCH   2   8
ATOM      8  C   UNL d   1       2.090  -2.350  -4.940  0.00  0.00     0.103 A 
ATOM      9  N   UNL d   1       2.483  -1.479  -5.896  0.00  0.00    -0.350 N 
ATOM     10  C   UNL d   1       3.536  -1.802  -6.694  0.00  0.00     0.125 A 
ATOM     11  HN  UNL d   1       1.996  -0.591  -6.018  1.00  0.00     0.166 HD
ATOM     12  C   UNL d   1       4.267  -2.965  -6.546  0.00  0.00     0.118 A 
ATOM     13  C   UNL d   1       3.909  -3.849  -5.537  0.00  0.00     0.041 A 
ATOM     14  C   UNL d   1       2.804  -3.537  -4.740  0.00  0.00     0.051 A 
BRANCH  12  15
ATOM     15  N   UNL d   1       5.384  -3.248  -7.436  0.00  0.00    -0.114 N 
ATOM     16  O   UNL d   1       5.611  -2.444  -8.350  0.00  0.00    -0.532 OA
ATOM     17  O   UNL d   1       6.037  -4.279  -7.226  0.00  0.00    -0.532 OA
ENDBRANCH  12  15
ENDBRANCH   2   8
BRANCH   1  18
ATOM     18  S   UNL d   1       0.877  -0.121   0.086  0.00  0.00     0.243 S 
ATOM     19  O   UNL d   1       2.252   0.332   0.072  0.00  0.00    -0.206 OA
ATOM     20  O   UNL d   1       0.376  -0.971   1.144  0.00  0.00    -0.206 OA
BRANCH  18  21
ATOM     21  C   UNL d   1      -0.190   1.295   0.036  0.00  0.00     0.074 A 
ATOM     22  C   UNL d   1      -1.573   1.092  -0.003  0.00  0.00     0.025 A 
ATOM     23  C   UNL d   1      -2.428   2.193   0.029  0.00  0.00     0.002 A 
ATOM     24  C   UNL d   1      -1.901   3.483   0.105  0.00  0.00     0.000 A 
ATOM     25  C   UNL d   1      -0.519   3.679   0.149  0.00  0.00     0.002 A 
ATOM     26  C   UNL d   1       0.344   2.583   0.117  0.00  0.00     0.025 A 
ENDBRANCH  18  21
ENDBRANCH   1  18
TORSDOF 4
