REMARK  4 active torsions:
REMARK  status: ('A' for Active; 'I' for Inactive)
REMARK    1  A    between atoms: C_4  and  C_2 
REMARK    2  A    between atoms: C_9  and  C_3 
REMARK       I    between atoms: N_7  and  C_4 
REMARK    3  A    between atoms: C_10  and  N_7 
REMARK    4  A    between atoms: O_16  and  C_11 
ROOT
ATOM      1  C   UNL d   1      -0.136   2.669  -0.340  0.00  0.00     0.263 C 
ATOM      2  N   UNL d   1      -1.487   2.965  -0.223  0.00  0.00    -0.323 N 
ATOM      3  O   UNL d   1       0.745   3.516  -0.479  0.00  0.00    -0.267 OA
ATOM      4  H   UNL d   1      -2.111   2.170  -0.168  0.00  0.00     0.169 HD
ENDROOT
BRANCH   1   5
ATOM      5  C   UNL d   1       0.220   1.253  -0.276  0.00  0.00     0.073 A 
ATOM      6  S   UNL d   1      -0.905  -0.007  -0.011  0.00  0.00    -0.084 SA
ATOM      7  C   UNL d   1       0.322  -1.218   0.060  0.00  0.00     0.016 A 
ATOM      8  C   UNL d   1       1.560  -0.656  -0.202  0.00  0.00     0.021 A 
ATOM      9  C   UNL d   1       1.501   0.750  -0.391  0.00  0.00     0.026 A 
BRANCH   7  10
ATOM     10  C   UNL d   1       0.014  -2.631   0.372  0.00  0.00    -0.019 A 
ATOM     11  C   UNL d   1       0.882  -3.651  -0.058  0.00  0.00     0.013 A 
ATOM     12  C   UNL d   1       0.661  -4.987   0.290  0.00  0.00     0.001 A 
ATOM     13  C   UNL d   1      -0.439  -5.331   1.068  0.00  0.00     0.000 A 
ATOM     14  C   UNL d   1      -1.320  -4.339   1.492  0.00  0.00     0.001 A 
ATOM     15  C   UNL d   1      -1.094  -3.002   1.149  0.00  0.00     0.013 A 
ENDBRANCH   7  10
ENDBRANCH   1   5
BRANCH   2  16
ATOM     16  C   UNL d   1      -2.072   4.248  -0.120  0.00  0.00     0.035 A 
ATOM     17  C   UNL d   1      -1.339   5.436  -0.098  0.00  0.00     0.032 A 
ATOM     18  C   UNL d   1      -1.970   6.676   0.067  0.00  0.00     0.039 A 
ATOM     19  C   UNL d   1      -3.351   6.747   0.215  0.00  0.00     0.068 A 
ATOM     20  C   UNL d   1      -4.095   5.568   0.162  0.00  0.00     0.039 A 
ATOM     21  C   UNL d   1      -3.463   4.325  -0.001  0.00  0.00     0.032 A 
BRANCH  19  22
ATOM     22  O   UNL d   1      -4.074   7.891   0.414  0.00  0.00    -0.356 OA
ATOM     23  C   UNL d   1      -3.325   9.080   0.644  0.00  0.00     0.210 C 
ENDBRANCH  19  22
ENDBRANCH   2  16
TORSDOF 4
