REMARK  2 active torsions:
REMARK  status: ('A' for Active; 'I' for Inactive)
REMARK    1  A    between atoms: C_7  and  C_3 
REMARK    2  A    between atoms: C_12  and  C_4 
ROOT
ATOM      1  N   UNL d   1      -3.263   0.826   2.411  0.00  0.00    -0.197 NA
ATOM      2  C   UNL d   1      -2.413   0.060   2.222  0.00  0.00     0.065 C 
ATOM      3  C   UNL d   1      -1.322  -0.929   1.977  0.00  0.00     0.188 C 
ENDROOT
BRANCH   3   4
ATOM      4  C   UNL d   1      -0.382  -0.400   0.926  0.00  0.00     0.064 A 
ATOM      5  N   UNL d   1       0.669   0.360   1.171  0.00  0.00    -0.352 N 
ATOM      6  C   UNL d   1       1.282   0.736  -0.017  0.00  0.00     0.049 A 
ATOM      7  HN  UNL d   1       0.986   0.632   2.102  1.00  0.00     0.166 HD
ATOM      8  C   UNL d   1       0.676   0.242  -1.156  0.00  0.00     0.081 A 
ATOM      9  S   UNL d   1      -0.669  -0.733  -0.739  0.00  0.00    -0.085 SA
BRANCH   6  10
ATOM     10  C   UNL d   1       2.454   1.607  -0.026  0.00  0.00    -0.006 A 
ATOM     11  C   UNL d   1       3.397   1.556  -1.063  0.00  0.00     0.059 A 
ATOM     12  C   UNL d   1       4.501   2.405  -1.045  0.00  0.00     0.155 A 
ATOM     13  F   UNL d   1       5.390   2.339  -2.046  0.00  0.00    -0.203 F 
ATOM     14  C   UNL d   1       4.684   3.308  -0.007  0.00  0.00     0.154 A 
ATOM     15  C   UNL d   1       3.765   3.371   1.033  0.00  0.00     0.046 A 
ATOM     16  F   UNL d   1       5.747   4.123   0.000  0.00  0.00    -0.203 F 
ATOM     17  C   UNL d   1       2.654   2.519   1.025  0.00  0.00     0.017 A 
ENDBRANCH   6  10
ENDBRANCH   3   4
TORSDOF 2
