REMARK  5 active torsions:
REMARK  status: ('A' for Active; 'I' for Inactive)
REMARK    1  A    between atoms: N_8  and  C_1 
REMARK    2  A    between atoms: C_2  and  C_3 
REMARK    3  A    between atoms: O_14  and  C_2 
REMARK    4  A    between atoms: N_5  and  N_8 
REMARK    5  A    between atoms: C_9  and  C_11 
ROOT
ATOM      1  N   UNL d   1       2.836  -2.499  -0.099  0.00  0.00    -0.327 N 
ATOM      2  HN  UNL d   1       3.313  -1.602  -0.002  1.00  0.00     0.180 HD
ATOM      3  C   UNL d   1       3.471  -3.627  -0.013  0.00  0.00     0.114 C 
ENDROOT
BRANCH   1   4
ATOM      4  N   UNL d   1       1.497  -2.581  -0.327  0.00  0.00    -0.205 NA
ATOM      5  H   UNL d   1       0.938  -2.814   0.501  0.00  0.00     0.153 HD
BRANCH   4   6
ATOM      6  C   UNL d   1       0.960  -1.415  -0.950  0.00  0.00     0.051 A 
ATOM      7  C   UNL d   1       1.682  -0.780  -1.976  0.00  0.00     0.050 A 
ATOM      8  C   UNL d   1       1.165   0.339  -2.627  0.00  0.00     0.035 A 
ATOM      9 CL   UNL d   1       2.080   1.101  -3.869  0.00  0.00    -0.084 Cl
ATOM     10  C   UNL d   1      -0.086   0.840  -2.280  0.00  0.00     0.026 A 
ATOM     11  C   UNL d   1      -0.829   0.210  -1.279  0.00  0.00     0.027 A 
ATOM     12  C   UNL d   1      -0.314  -0.917  -0.628  0.00  0.00     0.057 A 
ATOM     13 CL   UNL d   1      -1.266  -1.654   0.614  0.00  0.00    -0.082 Cl
ENDBRANCH   4   6
ENDBRANCH   1   4
BRANCH   3  14
ATOM     14  C   UNL d   1       4.939  -3.612   0.226  0.00  0.00    -0.003 A 
ATOM     15  C   UNL d   1       5.739  -4.766   0.282  0.00  0.00     0.049 A 
ATOM     16  C   UNL d   1       7.117  -4.640   0.546  0.00  0.00     0.019 A 
ATOM     17  C   UNL d   1       7.703  -3.382   0.702  0.00  0.00     0.001 A 
ATOM     18  C   UNL d   1       6.919  -2.239   0.615  0.00  0.00     0.001 A 
ATOM     19  C   UNL d   1       5.550  -2.353   0.386  0.00  0.00     0.014 A 
BRANCH  15  20
ATOM     20  C   UNL d   1       5.177  -6.122   0.130  0.00  0.00     0.177 C 
ATOM     21  O   UNL d   1       4.125  -6.475   0.631  0.00  0.00    -0.646 OA
BRANCH  20  22
ATOM     22  O   UNL d   1       5.946  -6.943  -0.621  0.00  0.00    -0.773 OA
ATOM     23  H   UNL d   1       6.714  -6.526  -1.059  0.00  0.00     0.167 HD
ENDBRANCH  20  22
ENDBRANCH  15  20
ENDBRANCH   3  14
TORSDOF 5
