REMARK  2 active torsions:
REMARK  status: ('A' for Active; 'I' for Inactive)
REMARK    1  A    between atoms: N_3  and  C_1 
REMARK       I    between atoms: C_7  and  N_3 
REMARK       I    between atoms: N_9  and  C_7 
REMARK    2  A    between atoms: C_11  and  N_9 
ROOT
ATOM      1  N   UNL d   1       1.373  -2.213   0.056  0.00  0.00    -0.293 N 
ATOM      2  C   UNL d   1       0.795  -3.473   0.163  0.00  0.00     0.326 C 
ATOM      3  N   UNL d   1       1.669  -4.458  -0.265  0.00  0.00    -0.309 N 
ATOM      4  O   UNL d   1      -0.328  -3.673   0.603  0.00  0.00    -0.247 OA
ATOM      5  H   UNL d   1       2.380  -2.184   0.120  0.00  0.00     0.172 HD
ATOM      6  H   UNL d   1       2.563  -4.154  -0.610  0.00  0.00     0.170 HD
ENDROOT
BRANCH   1   7
ATOM      7  C   UNL d   1       0.716  -1.063   0.483  0.00  0.00     0.127 C 
ATOM      8  N   UNL d   1      -0.635  -0.784   0.443  0.00  0.00    -0.281 N 
ATOM      9  N   UNL d   1      -0.949   0.378   1.060  0.00  0.00    -0.302 N 
ATOM     10  C   UNL d   1      -1.693  -1.460  -0.273  0.00  0.00     0.179 C 
ATOM     11  C   UNL d   1       0.228   0.880   1.443  0.00  0.00     0.025 C 
ATOM     12  HN  UNL d   1      -1.876   0.781   1.202  1.00  0.00     0.186 HD
ATOM     13  C   UNL d   1       1.300   0.055   1.040  0.00  0.00     0.076 C 
ATOM     14  C   UNL d   1       0.279   2.139   2.221  0.00  0.00     0.070 C 
ENDBRANCH   1   7
BRANCH   3  15
ATOM     15  C   UNL d   1       1.448  -5.853  -0.237  0.00  0.00     0.036 A 
ATOM     16  C   UNL d   1       0.235  -6.446   0.124  0.00  0.00     0.029 A 
ATOM     17  C   UNL d   1       0.100  -7.837   0.152  0.00  0.00     0.002 A 
ATOM     18  C   UNL d   1       1.176  -8.651  -0.178  0.00  0.00     0.000 A 
ATOM     19  C   UNL d   1       2.388  -8.075  -0.549  0.00  0.00     0.002 A 
ATOM     20  C   UNL d   1       2.522  -6.685  -0.585  0.00  0.00     0.029 A 
ENDBRANCH   3  15
TORSDOF 2
