REMARK  5 active torsions:
REMARK  status: ('A' for Active; 'I' for Inactive)
REMARK    1  A    between atoms: C_2  and  C_1 
REMARK    2  A    between atoms: C_5  and  C_1 
REMARK    3  A    between atoms: N_6  and  C_2 
REMARK    4  A    between atoms: O_7  and  N_3 
REMARK    5  A    between atoms: O_8  and  N_6 
ROOT
ATOM      1  C   UNL d   1       1.088  -0.126   0.069  0.00  0.00     0.066 C 
ATOM      2  N   UNL d   1       0.532   1.026   0.354  0.00  0.00    -0.271 N 
ATOM      3  HN  UNL d   1       1.070   1.885   0.472  1.00  0.00     0.194 HD
ENDROOT
BRANCH   1   4
ATOM      4  C   UNL d   1       0.334  -1.486  -0.149  0.00  0.00     0.073 C 
ATOM      5  C   UNL d   1       1.142  -2.583  -0.867  0.00  0.00     0.041 C 
ATOM      6  C   UNL d   1      -0.125  -2.014   1.221  0.00  0.00     0.041 C 
BRANCH   4   7
ATOM      7  N   UNL d   1      -0.899  -1.252  -0.958  0.00  0.00    -0.194 NA
ATOM      8  H   UNL d   1      -1.312  -0.385  -0.582  0.00  0.00     0.154 HD
BRANCH   7   9
ATOM      9  O   UNL d   1      -0.483  -0.829  -2.287  0.00  0.00    -0.314 OA
ATOM     10  H   UNL d   1      -1.043  -1.393  -2.855  0.00  0.00     0.236 HD
ENDBRANCH   7   9
ENDBRANCH   4   7
ENDBRANCH   1   4
BRANCH   1  11
ATOM     11  C   UNL d   1       2.583  -0.101   0.009  0.00  0.00    -0.010 A 
ATOM     12  C   UNL d   1       3.205   0.891  -0.759  0.00  0.00     0.013 A 
ATOM     13  C   UNL d   1       4.596   0.993  -0.780  0.00  0.00     0.001 A 
ATOM     14  C   UNL d   1       5.372   0.110  -0.029  0.00  0.00     0.000 A 
ATOM     15  C   UNL d   1       4.756  -0.869   0.751  0.00  0.00     0.001 A 
ATOM     16  C   UNL d   1       3.363  -0.967   0.782  0.00  0.00     0.013 A 
ENDBRANCH   1  11
BRANCH   2  17
ATOM     17  O   UNL d   1      -0.855   0.981   0.481  0.00  0.00    -0.290 OA
ATOM     18  H   UNL d   1      -1.075   1.916   0.656  0.00  0.00     0.244 HD
ENDBRANCH   2  17
TORSDOF 5
