REMARK  3 active torsions:
REMARK  status: ('A' for Active; 'I' for Inactive)
REMARK    1  A    between atoms: N_2  and  S_1 
REMARK    2  A    between atoms: C_9  and  S_1 
REMARK    3  A    between atoms: C_4  and  N_2 
ROOT
ATOM      1  N   UNL d   1       0.476  -0.844  -1.464  0.00  0.00    -0.113 N 
ATOM      2  HN  UNL d   1       0.932  -0.427  -0.652  1.00  0.00     0.197 HD
ENDROOT
BRANCH   1   3
ATOM      3  S   UNL d   1      -0.396  -2.201  -1.323  0.00  0.00     0.276 S 
ATOM      4  O   UNL d   1       0.218  -3.269  -2.094  0.00  0.00    -0.200 OA
ATOM      5  O   UNL d   1      -1.798  -1.883  -1.531  0.00  0.00    -0.200 OA
BRANCH   3   6
ATOM      6  C   UNL d   1      -0.222  -2.661   0.389  0.00  0.00     0.080 A 
ATOM      7  C   UNL d   1      -1.353  -2.739   1.210  0.00  0.00     0.025 A 
ATOM      8  C   UNL d   1      -1.211  -3.156   2.533  0.00  0.00     0.002 A 
ATOM      9  C   UNL d   1       0.050  -3.493   3.028  0.00  0.00     0.000 A 
ATOM     10  C   UNL d   1       1.175  -3.409   2.205  0.00  0.00     0.002 A 
ATOM     11  C   UNL d   1       1.044  -2.992   0.880  0.00  0.00     0.025 A 
ENDBRANCH   3   6
ENDBRANCH   1   3
BRANCH   1  12
ATOM     12  C   UNL d   1       0.577  -0.308  -2.623  0.00  0.00     0.684 C 
ATOM     13  N   UNL d   1       0.113  -0.703  -3.846  0.00  0.00    -0.220 N 
ATOM     14  C   UNL d   1       0.279   0.278  -4.901  0.00  0.00     0.113 C 
ATOM     15  H   UNL d   1      -0.224  -1.641  -4.031  0.00  0.00     0.178 HD
ATOM     16  C   UNL d   1      -1.053   0.546  -5.580  0.00  0.00     0.034 C 
ATOM     17  C   UNL d   1       0.812   1.495  -4.115  0.00  0.00     0.163 C 
ATOM     18  N   UNL d   1       1.193   0.900  -2.841  0.00  0.00    -0.224 N 
ATOM     19  H   UNL d   1       1.326   1.492  -2.033  0.00  0.00     0.177 HD
ENDBRANCH   1  12
TORSDOF 3
