REMARK  2 active torsions:
REMARK  status: ('A' for Active; 'I' for Inactive)
REMARK    1  A    between atoms: N_10  and  C_7 
REMARK    2  A    between atoms: C_13  and  N_10 
ROOT
ATOM      1  S   UNL d   1      -1.161  -1.581   0.011  0.00  0.00     0.270 S 
ATOM      2  C   UNL d   1      -2.394  -0.487   0.468  0.00  0.00     0.146 C 
ATOM      3  N   UNL d   1      -1.718  -1.989  -1.543  0.00  0.00    -0.275 N 
ATOM      4  C   UNL d   1      -2.650   0.623  -0.458  0.00  0.00     0.209 C 
ATOM      5  C   UNL d   1      -2.379   0.393  -1.907  0.00  0.00     0.043 A 
ATOM      6  C   UNL d   1      -1.940  -0.852  -2.418  0.00  0.00     0.059 A 
ATOM      7  C   UNL d   1      -3.236  -0.795   1.462  0.00  0.00     0.118 C 
ATOM      8  O   UNL d   1       0.098  -0.876  -0.153  0.00  0.00    -0.200 OA
ATOM      9  O   UNL d   1      -1.214  -2.782   0.824  0.00  0.00    -0.200 OA
ATOM     10  O   UNL d   1      -3.143   1.679  -0.065  0.00  0.00    -0.286 OA
ATOM     11  C   UNL d   1      -1.329  -3.307  -2.063  0.00  0.00     0.170 C 
ATOM     12  C   UNL d   1      -2.665   1.456  -2.781  0.00  0.00     0.018 A 
ATOM     13  C   UNL d   1      -1.859  -1.005  -3.809  0.00  0.00     0.031 A 
ATOM     14  C   UNL d   1      -2.554   1.286  -4.158  0.00  0.00     0.001 A 
ATOM     15  C   UNL d   1      -2.157   0.056  -4.670  0.00  0.00     0.002 A 
ENDROOT
BRANCH   7  16
ATOM     16  N   UNL d   1      -4.375  -0.136   1.853  0.00  0.00    -0.362 N 
ATOM     17  H   UNL d   1      -4.511   0.807   1.474  0.00  0.00     0.165 HD
BRANCH  16  18
ATOM     18  C   UNL d   1      -5.351  -0.576   2.764  0.00  0.00     0.071 A 
ATOM     19  C   UNL d   1      -6.192   0.366   3.381  0.00  0.00     0.145 A 
ATOM     20  C   UNL d   1      -7.096   0.007   4.374  0.00  0.00     0.086 A 
ATOM     21  F   UNL d   1      -6.114   1.656   3.016  0.00  0.00    -0.204 F 
ATOM     22  C   UNL d   1      -7.174  -1.322   4.759  0.00  0.00     0.119 A 
ATOM     23  C   UNL d   1      -6.381  -2.291   4.152  0.00  0.00     0.044 A 
ATOM     24  F   UNL d   1      -8.017  -1.682   5.734  0.00  0.00    -0.206 F 
ATOM     25  C   UNL d   1      -5.474  -1.917   3.158  0.00  0.00     0.036 A 
ENDBRANCH  16  18
ENDBRANCH   7  16
TORSDOF 2
