REMARK  3 active torsions:
REMARK  status: ('A' for Active; 'I' for Inactive)
REMARK    1  A    between atoms: S_7  and  C_2 
REMARK    2  A    between atoms: C_11  and  C_6 
REMARK    3  A    between atoms: C_12  and  S_7 
ROOT
ATOM      1  N   UNL d   1       0.573   0.854   0.028  0.00  0.00    -0.294 N 
ATOM      2  C   UNL d   1       1.940   0.973   0.043  0.00  0.00     0.111 A 
ATOM      3  C   UNL d   1       0.290  -0.479   0.042  0.00  0.00     0.156 A 
ATOM      4  N   UNL d   1       1.342  -1.244   0.076  0.00  0.00    -0.333 N 
ATOM      5  HN  UNL d   1       1.380  -2.263   0.099  1.00  0.00     0.168 HD
ATOM      6  C   UNL d   1       2.406  -0.343   0.073  0.00  0.00     0.079 A 
ATOM      7  S   UNL d   1      -1.420  -0.769   0.003  0.00  0.00    -0.064 SA
ATOM      8  C   UNL d   1      -0.532   1.681  -0.009  0.00  0.00     0.107 A 
ATOM      9  C   UNL d   1      -1.679   0.983  -0.028  0.00  0.00     0.071 A 
ENDROOT
BRANCH   2  10
ATOM     10  S   UNL d   1       2.686   2.534   0.091  0.00  0.00    -0.070 SA
BRANCH  10  11
ATOM     11  C   UNL d   1       2.878   2.941  -1.644  0.00  0.00     0.007 A 
ATOM     12  C   UNL d   1       2.594   2.077  -2.711  0.00  0.00     0.020 A 
ATOM     13  C   UNL d   1       2.835   2.467  -4.034  0.00  0.00     0.025 A 
ATOM     14  C   UNL d   1       3.358   3.729  -4.302  0.00  0.00     0.034 A 
ATOM     15  C   UNL d   1       3.635   4.606  -3.259  0.00  0.00     0.025 A 
ATOM     16 CL   UNL d   1       3.675   4.196  -5.926  0.00  0.00    -0.084 Cl
ATOM     17  C   UNL d   1       3.396   4.213  -1.938  0.00  0.00     0.020 A 
ENDBRANCH  10  11
ENDBRANCH   2  10
BRANCH   6  18
ATOM     18  C   UNL d   1       3.780  -0.831   0.091  0.00  0.00    -0.007 A 
ATOM     19  C   UNL d   1       4.053  -2.054   0.725  0.00  0.00     0.014 A 
ATOM     20  C   UNL d   1       5.332  -2.614   0.691  0.00  0.00     0.001 A 
ATOM     21  C   UNL d   1       6.360  -1.959   0.019  0.00  0.00     0.000 A 
ATOM     22  C   UNL d   1       6.110  -0.741  -0.608  0.00  0.00     0.001 A 
ATOM     23  C   UNL d   1       4.828  -0.181  -0.572  0.00  0.00     0.014 A 
ENDBRANCH   6  18
TORSDOF 3
