REMARK  6 active torsions:
REMARK  status: ('A' for Active; 'I' for Inactive)
REMARK       I    between atoms: C_3  and  N_4 
REMARK    1  A    between atoms: C_16  and  C_3 
REMARK    2  A    between atoms: N_4  and  C_5 
REMARK    3  A    between atoms: C_6  and  C_17 
REMARK    4  A    between atoms: O_15  and  C_6 
REMARK    5  A    between atoms: S_11  and  C_16 
REMARK    6  A    between atoms: C_17  and  S_11 
ROOT
ATOM      1  C   UNL d   1      -4.359   2.326   0.021  0.00  0.00     0.231 C 
ATOM      2  N   UNL d   1      -2.979   2.375   0.084  0.00  0.00    -0.326 N 
ATOM      3  O   UNL d   1      -5.050   1.306  -0.019  0.00  0.00    -0.272 OA
ATOM      4  H   UNL d   1      -2.551   3.284   0.222  0.00  0.00     0.169 HD
ENDROOT
BRANCH   2   5
ATOM      5  C   UNL d   1      -2.100   1.270   0.040  0.00  0.00     0.036 A 
ATOM      6  C   UNL d   1      -2.505  -0.021  -0.325  0.00  0.00     0.056 A 
ATOM      7  C   UNL d   1      -1.588  -1.073  -0.333  0.00  0.00     0.074 A 
ATOM      8  C   UNL d   1      -0.264  -0.847   0.022  0.00  0.00     0.138 A 
ATOM      9 CL   UNL d   1      -2.116  -2.647  -0.795  0.00  0.00    -0.081 Cl
ATOM     10  C   UNL d   1       0.160   0.431   0.369  0.00  0.00     0.046 A 
ATOM     11  F   UNL d   1       0.627  -1.848   0.035  0.00  0.00    -0.204 F 
ATOM     12  C   UNL d   1      -0.754   1.492   0.366  0.00  0.00     0.032 A 
ENDBRANCH   2   5
BRANCH   1  13
ATOM     13  C   UNL d   1      -5.039   3.683  -0.051  0.00  0.00     0.177 C 
BRANCH  13  14
ATOM     14  S   UNL d   1      -5.376   4.128  -1.787  0.00  0.00    -0.149 SA
BRANCH  14  15
ATOM     15  C   UNL d   1      -6.338   2.681  -2.360  0.00  0.00     0.184 C 
BRANCH  15  16
ATOM     16  C   UNL d   1      -7.631   2.495  -1.597  0.00  0.00     0.149 C 
ATOM     17  O   UNL d   1      -8.669   3.084  -1.865  0.00  0.00    -0.649 OA
BRANCH  16  18
ATOM     18  O   UNL d   1      -7.554   1.625  -0.564  0.00  0.00    -0.776 OA
ATOM     19  H   UNL d   1      -6.658   1.237  -0.408  0.00  0.00     0.167 HD
ENDBRANCH  16  18
ENDBRANCH  15  16
ENDBRANCH  14  15
ENDBRANCH  13  14
ENDBRANCH   1  13
TORSDOF 6
