REMARK  3 active torsions:
REMARK  status: ('A' for Active; 'I' for Inactive)
REMARK    1  A    between atoms: N_17  and  C_7 
REMARK    2  A    between atoms: N_15  and  N_17 
REMARK    3  A    between atoms: C_20  and  C_18 
ROOT
ATOM      1  N   UNL d   1       2.391  10.364  -0.804  0.00  0.00    -0.191 NA
ATOM      2  C   UNL d   1       1.696   9.445  -0.660  0.00  0.00     0.099 C 
ATOM      3  C   UNL d   1       0.839   8.304  -0.495  0.00  0.00     0.044 A 
ATOM      4  C   UNL d   1      -0.838   6.066  -0.239  0.00  0.00    -0.019 A 
ATOM      5  C   UNL d   1       1.389   7.022  -0.421  0.00  0.00     0.023 A 
ATOM      6  C   UNL d   1      -0.552   8.464  -0.420  0.00  0.00     0.023 A 
ATOM      7  C   UNL d   1       0.553   5.910  -0.292  0.00  0.00     0.014 A 
ATOM      8  C   UNL d   1      -1.392   7.348  -0.292  0.00  0.00     0.014 A 
ENDROOT
BRANCH   4   9
ATOM      9  C   UNL d   1      -1.722   4.879  -0.145  0.00  0.00     0.118 C 
ATOM     10  N   UNL d   1      -1.214   3.690  -0.131  0.00  0.00    -0.309 N 
ATOM     11  HN  UNL d   1      -0.205   3.544  -0.178  1.00  0.00     0.186 HD
BRANCH  10  12
ATOM     12  N   UNL d   1      -2.070   2.648  -0.051  0.00  0.00    -0.285 N 
ATOM     13  H   UNL d   1      -3.081   2.717  -0.021  0.00  0.00     0.188 HD
BRANCH  12  14
ATOM     14  C   UNL d   1      -1.575   1.335  -0.031  0.00  0.00     0.136 A 
ATOM     15  C   UNL d   1      -0.216   0.998  -0.114  0.00  0.00     0.072 A 
ATOM     16  C   UNL d   1       0.123  -0.342  -0.091  0.00  0.00     0.138 A 
ATOM     17  C   UNL d   1       1.021   1.663  -0.230  0.00  0.00     0.126 A 
ATOM     18  N   UNL d   1       1.488  -0.386  -0.200  0.00  0.00    -0.281 N 
ATOM     19  N   UNL d   1      -0.728  -1.379   0.013  0.00  0.00    -0.337 N 
ATOM     20  C   UNL d   1       2.328  -1.555  -0.251  0.00  0.00     0.179 C 
ATOM     21  N   UNL d   1       2.065   0.833  -0.283  0.00  0.00    -0.307 N 
ATOM     22  HN  UNL d   1       3.055   1.063  -0.367  1.00  0.00     0.186 HD
ATOM     23  C   UNL d   1      -2.001  -0.955   0.093  0.00  0.00     0.183 A 
ATOM     24  HN  UNL d   1      -0.444  -2.359   0.029  1.00  0.00     0.168 HD
ATOM     25  N   UNL d   1      -2.469   0.313   0.073  0.00  0.00    -0.337 N 
ATOM     26  HN  UNL d   1      -3.469   0.500   0.134  1.00  0.00     0.168 HD
ENDBRANCH  12  14
ENDBRANCH  10  12
ENDBRANCH   4   9
TORSDOF 3
