REMARK  7 active torsions:
REMARK  status: ('A' for Active; 'I' for Inactive)
REMARK    1  A    between atoms: O_5  and  C_1 
REMARK       I    between atoms: N_6  and  C_1 
REMARK    2  A    between atoms: C_12  and  C_2 
REMARK    3  A    between atoms: N_13  and  C_2 
REMARK    4  A    between atoms: N_3  and  O_5 
REMARK    5  A    between atoms: C_7  and  C_8 
REMARK    6  A    between atoms: O_14  and  C_12 
REMARK    7  A    between atoms: C_15  and  O_14 
ROOT
ATOM      1  C   UNL d   1      -1.259   0.809  -1.706  0.00  0.00     0.100 C 
ATOM      2  N   UNL d   1      -0.728   0.868  -0.524  0.00  0.00    -0.247 N 
ATOM      3  HN  UNL d   1       0.240   1.131  -0.340  1.00  0.00     0.196 HD
ENDROOT
BRANCH   1   4
ATOM      4  C   UNL d   1      -0.425   1.318  -2.877  0.00  0.00     0.247 C 
BRANCH   4   5
ATOM      5  O   UNL d   1       0.391   0.258  -3.357  0.00  0.00    -0.344 OA
BRANCH   5   6
ATOM      6  C   UNL d   1       1.288   0.615  -4.328  0.00  0.00     0.069 A 
ATOM      7  C   UNL d   1       2.438  -0.165  -4.405  0.00  0.00     0.037 A 
ATOM      8  C   UNL d   1       3.401   0.084  -5.389  0.00  0.00     0.011 A 
ATOM      9  C   UNL d   1       3.233   1.107  -6.341  0.00  0.00    -0.050 A 
ATOM     10  C   UNL d   1       2.068   1.885  -6.240  0.00  0.00     0.011 A 
ATOM     11  C   UNL d   1       1.107   1.643  -5.249  0.00  0.00     0.037 A 
BRANCH   9  12
ATOM     12  C   UNL d   1       4.288   1.332  -7.439  0.00  0.00    -0.024 C 
ATOM     13  C   UNL d   1       3.912   2.450  -8.439  0.00  0.00     0.019 C 
ATOM     14  C   UNL d   1       5.636   1.722  -6.797  0.00  0.00     0.019 C 
ATOM     15  C   UNL d   1       4.478   0.037  -8.260  0.00  0.00     0.019 C 
ENDBRANCH   9  12
ENDBRANCH   5   6
ENDBRANCH   4   5
ENDBRANCH   1   4
BRANCH   1  16
ATOM     16  N   UNL d   1      -2.521   0.313  -1.976  0.00  0.00    -0.289 NA
ATOM     17  H   UNL d   1      -2.896  -0.246  -1.214  0.00  0.00     0.125 HD
ATOM     18  H   UNL d   1      -2.631  -0.132  -2.880  0.00  0.00     0.125 HD
ENDBRANCH   1  16
BRANCH   2  19
ATOM     19  O   UNL d   1      -1.656   0.523   0.463  0.00  0.00    -0.180 OA
BRANCH  19  20
ATOM     20  C   UNL d   1      -1.177   0.434   1.762  0.00  0.00     0.384 C 
ATOM     21  N   UNL d   1       0.086   0.918   2.135  0.00  0.00    -0.335 N 
ATOM     22  C   UNL d   1       0.592   0.536   3.443  0.00  0.00     0.154 C 
ATOM     23  C   UNL d   1       0.969   1.787   1.374  0.00  0.00     0.154 C 
ATOM     24  O   UNL d   1      -1.916  -0.102   2.592  0.00  0.00    -0.236 OA
ENDBRANCH  19  20
ENDBRANCH   2  19
TORSDOF 7
