REMARK  5 active torsions:
REMARK  status: ('A' for Active; 'I' for Inactive)
REMARK    1  A    between atoms: C_3  and  C_1 
REMARK    2  A    between atoms: N_4  and  C_2 
REMARK    3  A    between atoms: S_15  and  C_2 
REMARK    4  A    between atoms: C_5  and  C_3 
REMARK    5  A    between atoms: C_8  and  N_4 
ROOT
ATOM      1  C   UNL d   1       0.990  -0.008   0.065  0.00  0.00     0.129 C 
ATOM      2  C   UNL d   1       0.285   0.012   1.236  0.00  0.00     0.095 C 
ATOM      3  C   UNL d   1       0.279  -0.103  -1.173  0.00  0.00     0.106 C 
ATOM      4  N   UNL d   1      -0.283  -0.130  -2.187  0.00  0.00    -0.191 NA
ENDROOT
BRANCH   1   5
ATOM      5  C   UNL d   1       2.499  -0.096  -0.037  0.00  0.00     0.212 C 
ATOM      6  O   UNL d   1       3.122  -0.688   0.846  0.00  0.00    -0.285 OA
BRANCH   5   7
ATOM      7  C   UNL d   1       3.186   0.404  -1.234  0.00  0.00     0.056 A 
ATOM      8  S   UNL d   1       4.697  -0.318  -1.645  0.00  0.00    -0.098 SA
ATOM      9  C   UNL d   1       4.857   0.625  -3.054  0.00  0.00     0.050 A 
ATOM     10  C   UNL d   1       3.810   1.503  -3.205  0.00  0.00     0.009 A 
ATOM     11  C   UNL d   1       2.855   1.391  -2.147  0.00  0.00     0.023 A 
ENDBRANCH   5   7
ENDBRANCH   1   5
BRANCH   2  12
ATOM     12  N   UNL d   1      -1.097  -0.184   1.221  0.00  0.00    -0.348 N 
ATOM     13  H   UNL d   1      -1.395  -0.898   1.888  0.00  0.00     0.166 HD
BRANCH  12  14
ATOM     14  C   UNL d   1      -2.105   0.814   1.107  0.00  0.00     0.056 A 
ATOM     15  C   UNL d   1      -3.468   0.431   1.178  0.00  0.00     0.082 A 
ATOM     16  C   UNL d   1      -4.485   1.366   0.940  0.00  0.00     0.058 A 
ATOM     17 CL   UNL d   1      -3.849  -1.217   1.590  0.00  0.00    -0.080 Cl
ATOM     18 CL   UNL d   1      -6.162   0.951   0.991  0.00  0.00    -0.082 Cl
ATOM     19  C   UNL d   1      -4.156   2.689   0.641  0.00  0.00     0.026 A 
ATOM     20  C   UNL d   1      -2.820   3.080   0.581  0.00  0.00     0.004 A 
ATOM     21  C   UNL d   1      -1.802   2.148   0.799  0.00  0.00     0.031 A 
ENDBRANCH  12  14
ENDBRANCH   2  12
BRANCH   2  22
ATOM     22  S   UNL d   1       1.133   0.182   2.783  0.00  0.00    -0.115 SA
ATOM     23  C   UNL d   1      -0.170   0.128   4.026  0.00  0.00     0.097 C 
ENDBRANCH   2  22
TORSDOF 5
