REMARK  2 active torsions:
REMARK  status: ('A' for Active; 'I' for Inactive)
REMARK    1  A    between atoms: N_3  and  C_1 
REMARK       I    between atoms: C_7  and  N_3 
REMARK       I    between atoms: N_9  and  C_7 
REMARK    2  A    between atoms: C_11  and  N_9 
ROOT
ATOM      1  N   UNL d   1       1.422  -2.187  -0.007  0.00  0.00    -0.293 N 
ATOM      2  C   UNL d   1       0.859  -3.442   0.164  0.00  0.00     0.326 C 
ATOM      3  N   UNL d   1       1.696  -4.452  -0.272  0.00  0.00    -0.309 N 
ATOM      4  O   UNL d   1      -0.258  -3.635   0.639  0.00  0.00    -0.247 OA
ATOM      5  H   UNL d   1       2.430  -2.131   0.006  0.00  0.00     0.172 HD
ATOM      6  H   UNL d   1       2.684  -4.248  -0.309  0.00  0.00     0.170 HD
ENDROOT
BRANCH   1   7
ATOM      7  C   UNL d   1       0.735  -1.034   0.352  0.00  0.00     0.127 C 
ATOM      8  N   UNL d   1      -0.624  -0.802   0.286  0.00  0.00    -0.281 N 
ATOM      9  N   UNL d   1      -0.988   0.352   0.891  0.00  0.00    -0.302 N 
ATOM     10  C   UNL d   1      -1.643  -1.502  -0.461  0.00  0.00     0.179 C 
ATOM     11  C   UNL d   1       0.167   0.906   1.266  0.00  0.00     0.025 C 
ATOM     12  HN  UNL d   1      -1.931   0.715   1.030  1.00  0.00     0.186 HD
ATOM     13  C   UNL d   1       1.275   0.133   0.851  0.00  0.00     0.076 C 
ATOM     14  C   UNL d   1       0.170   2.166   2.046  0.00  0.00     0.070 C 
ENDBRANCH   1   7
BRANCH   3  15
ATOM     15  C   UNL d   1       1.312  -5.798  -0.467  0.00  0.00     0.036 A 
ATOM     16  C   UNL d   1      -0.025  -6.191  -0.605  0.00  0.00     0.031 A 
ATOM     17  C   UNL d   1      -0.358  -7.526  -0.848  0.00  0.00     0.026 A 
ATOM     18  C   UNL d   1       0.647  -8.479  -0.954  0.00  0.00     0.034 A 
ATOM     19  C   UNL d   1       1.983  -8.107  -0.814  0.00  0.00     0.026 A 
ATOM     20 CL   UNL d   1       0.239 -10.118  -1.275  0.00  0.00    -0.084 Cl
ATOM     21  C   UNL d   1       2.316  -6.768  -0.580  0.00  0.00     0.031 A 
ENDBRANCH   3  15
TORSDOF 2
