REMARK  8 active torsions:
REMARK  status: ('A' for Active; 'I' for Inactive)
REMARK    1  A    between atoms: N_5  and  C_1 
REMARK    2  A    between atoms: C_9  and  N_5 
REMARK    3  A    between atoms: C_8  and  C_7 
REMARK    4  A    between atoms: C_11  and  C_8 
REMARK    5  A    between atoms: C_10  and  O_16 
REMARK       I    between atoms: N_13  and  C_11 
REMARK    6  A    between atoms: C_23  and  N_13 
REMARK    7  A    between atoms: O_29  and  C_14 
REMARK    8  A    between atoms: O_16  and  C_24 
ROOT
ATOM      1  C   UNL d   1       1.134   0.755   0.304  0.00  0.00     0.148 C 
ATOM      2  N   UNL d   1       1.334  -0.287   1.149  0.00  0.00    -0.306 N 
ATOM      3  C   UNL d   1       0.291  -1.129   1.378  0.00  0.00     0.238 C 
ATOM      4  S   UNL d   1      -0.570   0.961  -0.011  0.00  0.00    -0.079 SA
ATOM      5  C   UNL d   1      -0.946  -0.720   0.601  0.00  0.00     0.156 C 
ATOM      6  O   UNL d   1       0.373  -2.152   2.045  0.00  0.00    -0.272 OA
ATOM      7  H   UNL d   1       2.233  -0.498   1.546  0.00  0.00     0.171 HD
ENDROOT
BRANCH   5   8
ATOM      8  C   UNL d   1      -2.223  -0.912   1.403  0.00  0.00     0.128 C 
BRANCH   8   9
ATOM      9  C   UNL d   1      -2.107  -0.431   2.840  0.00  0.00     0.223 C 
ATOM     10  N   UNL d   1      -2.761  -1.256   3.739  0.00  0.00    -0.327 N 
ATOM     11  H   UNL d   1      -3.124  -2.133   3.386  0.00  0.00     0.169 HD
ATOM     12  O   UNL d   1      -1.499   0.600   3.109  0.00  0.00    -0.273 OA
BRANCH  10  13
ATOM     13  C   UNL d   1      -2.896  -1.062   5.130  0.00  0.00     0.034 A 
ATOM     14  C   UNL d   1      -2.506   0.101   5.795  0.00  0.00     0.032 A 
ATOM     15  C   UNL d   1      -2.701   0.242   7.175  0.00  0.00     0.039 A 
ATOM     16  C   UNL d   1      -3.299  -0.779   7.910  0.00  0.00     0.078 A 
ATOM     17  C   UNL d   1      -3.667  -1.955   7.253  0.00  0.00     0.039 A 
ATOM     18  C   UNL d   1      -3.474  -2.094   5.875  0.00  0.00     0.032 A 
BRANCH  16  19
ATOM     19  O   UNL d   1      -3.580  -0.760   9.245  0.00  0.00    -0.255 OA
BRANCH  19  20
ATOM     20  C   UNL d   1      -3.376   0.457   9.944  0.00  0.00     0.530 C 
ATOM     21  F   UNL d   1      -4.028   1.483   9.356  0.00  0.00    -0.144 F 
ATOM     22  F   UNL d   1      -3.860   0.321  11.199  0.00  0.00    -0.144 F 
ATOM     23  F   UNL d   1      -2.060   0.747  10.030  0.00  0.00    -0.144 F 
ENDBRANCH  19  20
ENDBRANCH  16  19
ENDBRANCH  10  13
ENDBRANCH   8   9
ENDBRANCH   5   8
BRANCH   1  24
ATOM     24  N   UNL d   1       2.029   1.495  -0.258  0.00  0.00    -0.334 N 
ATOM     25  HN  UNL d   1       1.744   2.294  -0.823  1.00  0.00     0.168 HD
BRANCH  24  26
ATOM     26  C   UNL d   1       3.401   1.206  -0.094  0.00  0.00     0.069 A 
ATOM     27  C   UNL d   1       3.869  -0.072  -0.457  0.00  0.00     0.056 A 
ATOM     28  C   UNL d   1       5.192  -0.448  -0.241  0.00  0.00     0.036 A 
ATOM     29 CL   UNL d   1       5.690  -2.054  -0.599  0.00  0.00    -0.084 Cl
ATOM     30  C   UNL d   1       6.098   0.461   0.286  0.00  0.00     0.026 A 
ATOM     31  C   UNL d   1       5.670   1.755   0.580  0.00  0.00     0.041 A 
ATOM     32  C   UNL d   1       4.334   2.145   0.383  0.00  0.00     0.095 A 
BRANCH  32  33
ATOM     33  O   UNL d   1       4.116   3.452   0.731  0.00  0.00    -0.354 OA
ATOM     34  C   UNL d   1       2.966   4.096   0.198  0.00  0.00     0.210 C 
ENDBRANCH  32  33
ENDBRANCH  24  26
ENDBRANCH   1  24
TORSDOF 8
