REMARK  7 active torsions:
REMARK  status: ('A' for Active; 'I' for Inactive)
REMARK    1  A    between atoms: C_2  and  C_1 
REMARK    2  A    between atoms: C_3  and  C_1 
REMARK    3  A    between atoms: C_8  and  C_1 
REMARK    4  A    between atoms: C_7  and  C_2 
REMARK    5  A    between atoms: C_4  and  C_3 
REMARK    6  A    between atoms: C_5  and  C_4 
REMARK    7  A    between atoms: O_26  and  C_20 
ROOT
ATOM      1  C   UNL d   1       1.157  -0.006   0.286  0.00  0.00     0.101 C 
ENDROOT
BRANCH   1   2
ATOM      2  C   UNL d   1       0.903  -0.264   1.779  0.00  0.00     0.168 C 
ATOM      3  O   UNL d   1       0.642   0.658   2.557  0.00  0.00    -0.292 OA
BRANCH   2   4
ATOM      4  C   UNL d   1       1.079  -1.644   2.338  0.00  0.00     0.011 A 
ATOM      5  C   UNL d   1       1.395  -1.764   3.704  0.00  0.00     0.018 A 
ATOM      6  C   UNL d   1       1.568  -3.021   4.288  0.00  0.00     0.043 A 
ATOM      7  C   UNL d   1       1.417  -4.162   3.511  0.00  0.00     0.116 A 
ATOM      8  C   UNL d   1       1.097  -4.066   2.162  0.00  0.00     0.043 A 
ATOM      9  F   UNL d   1       1.575  -5.369   4.069  0.00  0.00    -0.206 F 
ATOM     10  C   UNL d   1       0.926  -2.807   1.572  0.00  0.00     0.018 A 
ENDBRANCH   2   4
ENDBRANCH   1   2
BRANCH   1  11
ATOM     11  C   UNL d   1       0.415   1.260  -0.203  0.00  0.00     0.101 C 
BRANCH  11  12
ATOM     12  C   UNL d   1      -1.089   1.056  -0.255  0.00  0.00     0.160 C 
ATOM     13  O   UNL d   1      -1.605  -0.020   0.041  0.00  0.00    -0.292 OA
BRANCH  12  14
ATOM     14  C   UNL d   1      -1.961   2.188  -0.714  0.00  0.00     0.011 A 
ATOM     15  C   UNL d   1      -3.349   2.058  -0.561  0.00  0.00     0.027 A 
ATOM     16  C   UNL d   1      -4.231   3.054  -1.016  0.00  0.00    -0.025 A 
ATOM     17  C   UNL d   1      -5.621   2.921  -0.870  0.00  0.00     0.012 A 
ATOM     18  C   UNL d   1      -3.712   4.209  -1.641  0.00  0.00    -0.026 A 
ATOM     19  C   UNL d   1      -6.489   3.909  -1.340  0.00  0.00     0.001 A 
ATOM     20  C   UNL d   1      -5.977   5.045  -1.963  0.00  0.00     0.001 A 
ATOM     21  C   UNL d   1      -4.597   5.195  -2.110  0.00  0.00     0.012 A 
ATOM     22  C   UNL d   1      -2.318   4.339  -1.780  0.00  0.00     0.013 A 
ATOM     23  C   UNL d   1      -1.448   3.341  -1.319  0.00  0.00     0.016 A 
ENDBRANCH  12  14
ENDBRANCH  11  12
ENDBRANCH   1  11
BRANCH   1  24
ATOM     24  C   UNL d   1       2.652   0.146   0.024  0.00  0.00    -0.046 A 
ATOM     25  C   UNL d   1       3.311  -0.707  -0.873  0.00  0.00     0.011 A 
ATOM     26  C   UNL d   1       4.673  -0.535  -1.156  0.00  0.00     0.037 A 
ATOM     27  C   UNL d   1       5.392   0.492  -0.547  0.00  0.00     0.068 A 
ATOM     28  C   UNL d   1       4.744   1.341   0.349  0.00  0.00     0.037 A 
ATOM     29  C   UNL d   1       3.392   1.164   0.644  0.00  0.00     0.011 A 
BRANCH  27  30
ATOM     30  O   UNL d   1       6.705   0.796  -0.778  0.00  0.00    -0.356 OA
ATOM     31  C   UNL d   1       7.522  -0.267  -1.252  0.00  0.00     0.210 C 
ENDBRANCH  27  30
ENDBRANCH   1  24
TORSDOF 7
