REMARK  3 active torsions:
REMARK  status: ('A' for Active; 'I' for Inactive)
REMARK    1  A    between atoms: C_9  and  C_1 
REMARK    2  A    between atoms: N_5  and  C_4 
REMARK    3  A    between atoms: C_10  and  C_9 
ROOT
ATOM      1  C   UNL d   1       1.773  -0.135   0.026  0.00  0.00     0.067 A 
ATOM      2  C   UNL d   1       0.853  -1.302   0.054  0.00  0.00     0.197 A 
ATOM      3  C   UNL d   1       0.961   1.112   0.025  0.00  0.00     0.197 A 
ATOM      4  C   UNL d   1      -0.497  -0.727   0.040  0.00  0.00     0.029 A 
ATOM      5  C   UNL d   1      -0.438   0.664   0.019  0.00  0.00     0.029 A 
ATOM      6  O   UNL d   1       1.115  -2.485   0.094  0.00  0.00    -0.286 OA
ATOM      7  O   UNL d   1       1.356   2.259   0.025  0.00  0.00    -0.286 OA
ATOM      8  C   UNL d   1      -1.587   1.435  -0.011  0.00  0.00     0.016 A 
ATOM      9  C   UNL d   1      -1.702  -1.406   0.042  0.00  0.00     0.016 A 
ATOM     10  C   UNL d   1      -2.872  -0.643   0.014  0.00  0.00     0.001 A 
ATOM     11  C   UNL d   1      -2.815   0.765  -0.015  0.00  0.00     0.001 A 
ENDROOT
BRANCH   1  12
ATOM     12  C   UNL d   1       3.111  -0.113  -0.029  0.00  0.00     0.038 C 
BRANCH  12  13
ATOM     13  C   UNL d   1       3.887  -1.298  -0.104  0.00  0.00     0.008 A 
ATOM     14  S   UNL d   1       4.372  -1.893  -1.646  0.00  0.00    -0.067 SA
ATOM     15  C   UNL d   1       5.198  -3.203  -0.954  0.00  0.00     0.144 A 
ATOM     16  C   UNL d   1       5.133  -3.209   0.422  0.00  0.00     0.045 A 
ATOM     17  C   UNL d   1       4.372  -2.103   0.912  0.00  0.00     0.022 A 
BRANCH  15  18
ATOM     18  N   UNL d   1       5.886  -4.157  -1.784  0.00  0.00    -0.108 N 
ATOM     19  O   UNL d   1       6.500  -5.057  -1.193  0.00  0.00    -0.531 OA
ATOM     20  O   UNL d   1       5.832  -4.017  -3.013  0.00  0.00    -0.531 OA
ENDBRANCH  15  18
ENDBRANCH  12  13
ENDBRANCH   1  12
TORSDOF 3
