REMARK  4 active torsions:
REMARK  status: ('A' for Active; 'I' for Inactive)
REMARK    1  A    between atoms: C_3  and  C_1 
REMARK    2  A    between atoms: O_4  and  C_1 
REMARK    3  A    between atoms: C_5  and  C_3 
REMARK    4  A    between atoms: C_6  and  C_5 
ROOT
ATOM      1  C   UNL d   1      -1.799  -2.140  -1.228  0.00  0.00    -0.014 C 
ATOM      2  C   UNL d   1      -2.961  -1.401  -1.964  0.00  0.00     0.004 C 
ATOM      3  C   UNL d   1      -2.366  -3.039  -0.087  0.00  0.00     0.004 C 
ATOM      4  C   UNL d   1      -3.089  -2.340   1.089  0.00  0.00     0.000 C 
ATOM      5  C   UNL d   1      -2.676  -0.099  -2.737  0.00  0.00     0.000 C 
ATOM      6  C   UNL d   1      -2.357   1.185  -1.940  0.00  0.00     0.000 C 
ATOM      7  C   UNL d   1      -2.173  -1.814   2.202  0.00  0.00     0.000 C 
ATOM      8  C   UNL d   1      -3.317   1.527  -0.792  0.00  0.00     0.000 C 
ATOM      9  C   UNL d   1      -2.699  -0.636   3.035  0.00  0.00     0.000 C 
ATOM     10  C   UNL d   1      -2.658   2.281   0.383  0.00  0.00     0.000 C 
ATOM     11  C   UNL d   1      -3.201   0.595   2.265  0.00  0.00     0.000 C 
ATOM     12  C   UNL d   1      -2.121   1.416   1.544  0.00  0.00     0.000 C 
ENDROOT
BRANCH   1  13
ATOM     13  C   UNL d   1      -0.649  -1.218  -0.812  0.00  0.00     0.015 C 
BRANCH  13  14
ATOM     14  C   UNL d   1       0.532  -1.830  -0.060  0.00  0.00     0.110 C 
BRANCH  14  15
ATOM     15  C   UNL d   1       1.440  -2.653  -0.927  0.00  0.00     0.139 C 
ATOM     16  O   UNL d   1       1.524  -2.578  -2.137  0.00  0.00    -0.650 OA
BRANCH  15  17
ATOM     17  O   UNL d   1       2.224  -3.489  -0.193  0.00  0.00    -0.776 OA
ATOM     18  H   UNL d   1       2.063  -3.432   0.771  0.00  0.00     0.167 HD
ENDBRANCH  15  17
ENDBRANCH  14  15
ENDBRANCH  13  14
ENDBRANCH   1  13
TORSDOF 4
