REMARK  9 active torsions:
REMARK  status: ('A' for Active; 'I' for Inactive)
REMARK    1  A    between atoms: C_9  and  C_4 
REMARK    2  A    between atoms: N_7  and  C_10 
REMARK    3  A    between atoms: N_8  and  C_14 
REMARK       I    between atoms: N_16  and  C_9 
REMARK    4  A    between atoms: C_26  and  N_16 
REMARK    5  A    between atoms: C_27  and  N_16 
REMARK    6  A    between atoms: O_24  and  C_28 
REMARK    7  A    between atoms: O_25  and  C_29 
REMARK    8  A    between atoms: C_29  and  C_26 
REMARK    9  A    between atoms: C_28  and  C_27 
ROOT
ATOM      1  C   UNL d   1      -0.685   0.705  -0.276  0.00  0.00     0.005 C 
ATOM      2  C   UNL d   1      -1.165  -0.608  -0.061  0.00  0.00     0.029 C 
ATOM      3  C   UNL d   1       1.196  -0.689  -0.126  0.00  0.00     0.028 A 
ATOM      4  C   UNL d   1      -1.626   1.737  -0.278  0.00  0.00     0.046 C 
ATOM      5  C   UNL d   1       0.772   0.624  -0.413  0.00  0.00    -0.010 A 
ATOM      6  C   UNL d   1      -0.005  -1.511   0.096  0.00  0.00     0.194 C 
ATOM      7  C   UNL d   1      -3.422   0.065  -0.150  0.00  0.00     0.104 C 
ATOM      8  C   UNL d   1      -2.499  -0.966   0.013  0.00  0.00     0.052 C 
ATOM      9  C   UNL d   1      -2.995   1.400  -0.313  0.00  0.00     0.054 C 
ATOM     10  C   UNL d   1       2.513  -1.117  -0.137  0.00  0.00     0.052 A 
ATOM     11  C   UNL d   1       3.467  -0.172  -0.515  0.00  0.00     0.103 A 
ATOM     12  C   UNL d   1       1.728   1.523  -0.859  0.00  0.00     0.016 A 
ATOM     13  O   UNL d   1      -0.038  -2.692   0.339  0.00  0.00    -0.287 OA
ATOM     14  C   UNL d   1       3.078   1.125  -0.914  0.00  0.00     0.037 A 
ENDROOT
BRANCH   4  15
ATOM     15  C   UNL d   1      -1.272   3.180  -0.243  0.00  0.00     0.254 C 
ATOM     16  N   UNL d   1      -1.782   4.021   0.765  0.00  0.00    -0.344 N 
ATOM     17  O   UNL d   1      -0.554   3.594  -1.151  0.00  0.00    -0.267 OA
BRANCH  16  18
ATOM     18  C   UNL d   1      -1.350   5.434   0.752  0.00  0.00     0.152 C 
BRANCH  18  19
ATOM     19  C   UNL d   1      -2.420   6.410   0.248  0.00  0.00     0.184 C 
BRANCH  19  20
ATOM     20  O   UNL d   1      -3.434   6.609   1.233  0.00  0.00    -0.399 OA
ATOM     21  H   UNL d   1      -4.083   7.224   0.847  0.00  0.00     0.209 HD
ENDBRANCH  19  20
ENDBRANCH  18  19
ENDBRANCH  16  18
BRANCH  16  22
ATOM     22  C   UNL d   1      -2.680   3.622   1.877  0.00  0.00     0.152 C 
BRANCH  22  23
ATOM     23  C   UNL d   1      -2.018   3.601   3.256  0.00  0.00     0.184 C 
BRANCH  23  24
ATOM     24  O   UNL d   1      -1.043   2.562   3.307  0.00  0.00    -0.399 OA
ATOM     25  H   UNL d   1      -0.617   2.625   4.179  0.00  0.00     0.209 HD
ENDBRANCH  23  24
ENDBRANCH  22  23
ENDBRANCH  16  22
ENDBRANCH   4  15
BRANCH   7  26
ATOM     26  N   UNL d   1      -4.856  -0.227  -0.091  0.00  0.00    -0.116 N 
ATOM     27  O   UNL d   1      -5.201  -1.418  -0.108  0.00  0.00    -0.532 OA
ATOM     28  O   UNL d   1      -5.633   0.735  -0.020  0.00  0.00    -0.532 OA
ENDBRANCH   7  26
BRANCH  11  29
ATOM     29  N   UNL d   1       4.891  -0.530  -0.495  0.00  0.00    -0.116 N 
ATOM     30  O   UNL d   1       5.204  -1.614   0.016  0.00  0.00    -0.532 OA
ATOM     31  O   UNL d   1       5.696   0.281  -0.975  0.00  0.00    -0.532 OA
ENDBRANCH  11  29
TORSDOF 9
