REMARK  3 active torsions:
REMARK  status: ('A' for Active; 'I' for Inactive)
REMARK    1  A    between atoms: C_5  and  N_1 
REMARK    2  A    between atoms: C_12  and  C_4 
REMARK    3  A    between atoms: C_14  and  C_7 
ROOT
ATOM      1  N   UNL d   1       0.974  -0.638  -0.028  0.00  0.00    -0.242 N 
ATOM      2  N   UNL d   1       0.965   0.724  -0.132  0.00  0.00    -0.296 N 
ATOM      3  HN  UNL d   1       1.770   1.335  -0.270  1.00  0.00     0.187 HD
ATOM      4  C   UNL d   1      -0.331  -1.155   0.008  0.00  0.00     0.045 A 
ATOM      5  C   UNL d   1      -1.151  -0.036   0.026  0.00  0.00     0.055 A 
ATOM      6  C   UNL d   1      -0.312   1.093  -0.017  0.00  0.00     0.036 A 
ENDROOT
BRANCH   1   7
ATOM      7  C   UNL d   1       2.236  -1.307   0.046  0.00  0.00     0.143 A 
ATOM      8  N   UNL d   1       2.297  -2.584   0.483  0.00  0.00    -0.338 N 
ATOM      9  C   UNL d   1       3.497  -3.177   0.543  0.00  0.00     0.060 A 
ATOM     10  HN  UNL d   1       1.452  -3.084   0.759  1.00  0.00     0.167 HD
ATOM     11  C   UNL d   1       3.569  -4.479   1.011  0.00  0.00     0.032 A 
ATOM     12  C   UNL d   1       4.671  -2.502   0.142  0.00  0.00     0.059 A 
ATOM     13  C   UNL d   1       4.787  -5.151   1.088  0.00  0.00     0.002 A 
ATOM     14  C   UNL d   1       5.946  -4.504   0.678  0.00  0.00     0.002 A 
ATOM     15  C   UNL d   1       5.879  -3.190   0.207  0.00  0.00     0.032 A 
ATOM     16  N   UNL d   1       4.622  -1.227  -0.293  0.00  0.00    -0.360 N 
ATOM     17  C   UNL d   1       3.393  -0.638  -0.318  0.00  0.00     0.139 A 
ATOM     18  HN  UNL d   1       5.461  -0.728  -0.588  1.00  0.00     0.165 HD
ENDBRANCH   1   7
BRANCH   4  19
ATOM     19  C   UNL d   1      -0.757  -2.628  -0.013  0.00  0.00    -0.007 C 
ATOM     20  C   UNL d   1      -0.502  -3.310   1.346  0.00  0.00     0.021 C 
ATOM     21  C   UNL d   1      -2.293  -2.740  -0.238  0.00  0.00     0.021 C 
ATOM     22  C   UNL d   1      -0.135  -3.395  -1.200  0.00  0.00     0.021 C 
ENDBRANCH   4  19
BRANCH   6  23
ATOM     23  C   UNL d   1      -0.727   2.556   0.001  0.00  0.00    -0.007 C 
ATOM     24  C   UNL d   1       0.483   3.501   0.171  0.00  0.00     0.021 C 
ATOM     25  C   UNL d   1      -1.437   2.908  -1.320  0.00  0.00     0.021 C 
ATOM     26  C   UNL d   1      -1.696   2.827   1.173  0.00  0.00     0.021 C 
ENDBRANCH   6  23
TORSDOF 3
