REMARK  4 active torsions:
REMARK  status: ('A' for Active; 'I' for Inactive)
REMARK    1  A    between atoms: C_3  and  C_1 
REMARK       I    between atoms: N_5  and  C_3 
REMARK    2  A    between atoms: O_20  and  C_13 
REMARK    3  A    between atoms: C_14  and  C_18 
REMARK    4  A    between atoms: C_19  and  C_14 
ROOT
ATOM      1  C   UNL d   1      -3.842  -0.144  -0.049  0.00  0.00     0.270 C 
ATOM      2  N   UNL d   1      -4.560  -1.321  -0.275  0.00  0.00    -0.347 N 
ATOM      3  O   UNL d   1      -3.974   0.833  -0.787  0.00  0.00    -0.266 OA
ATOM      4  C   UNL d   1      -5.185  -1.503  -1.583  0.00  0.00     0.126 C 
ATOM      5  C   UNL d   1      -4.660  -2.448   0.654  0.00  0.00     0.126 C 
ATOM      6  C   UNL d   1      -6.624  -1.997  -1.460  0.00  0.00     0.025 C 
ATOM      7  C   UNL d   1      -6.088  -2.978   0.767  0.00  0.00     0.025 C 
ATOM      8  C   UNL d   1      -6.734  -3.264  -0.597  0.00  0.00    -0.007 C 
ENDROOT
BRANCH   1   9
ATOM      9  C   UNL d   1      -2.943  -0.059   1.084  0.00  0.00     0.102 A 
ATOM     10  N   UNL d   1      -2.702   1.146   1.711  0.00  0.00    -0.351 N 
ATOM     11  C   UNL d   1      -1.792   1.002   2.728  0.00  0.00     0.043 A 
ATOM     12  H   UNL d   1      -3.139   2.015   1.435  0.00  0.00     0.166 HD
ATOM     13  C   UNL d   1      -1.266   1.944   3.620  0.00  0.00     0.033 A 
ATOM     14  C   UNL d   1      -1.405  -0.334   2.740  0.00  0.00    -0.004 A 
ATOM     15  C   UNL d   1      -0.314   1.500   4.548  0.00  0.00     0.039 A 
ATOM     16  C   UNL d   1       0.092   0.166   4.587  0.00  0.00     0.069 A 
ATOM     17  C   UNL d   1      -0.456  -0.758   3.688  0.00  0.00     0.050 A 
ATOM     18  C   UNL d   1      -2.110  -0.982   1.692  0.00  0.00     0.049 A 
BRANCH  16  19
ATOM     19  O   UNL d   1       1.014  -0.370   5.446  0.00  0.00    -0.356 OA
ATOM     20  C   UNL d   1       1.669   0.528   6.330  0.00  0.00     0.210 C 
ENDBRANCH  16  19
ENDBRANCH   1   9
BRANCH   8  21
ATOM     21  C   UNL d   1      -6.130  -4.489  -1.319  0.00  0.00     0.043 C 
BRANCH  21  22
ATOM     22  C   UNL d   1      -6.275  -5.795  -0.572  0.00  0.00    -0.058 A 
ATOM     23  C   UNL d   1      -7.540  -6.295  -0.233  0.00  0.00     0.007 A 
ATOM     24  C   UNL d   1      -7.665  -7.501   0.457  0.00  0.00     0.001 A 
ATOM     25  C   UNL d   1      -6.527  -8.227   0.806  0.00  0.00     0.000 A 
ATOM     26  C   UNL d   1      -5.266  -7.748   0.462  0.00  0.00     0.001 A 
ATOM     27  C   UNL d   1      -5.140  -6.539  -0.225  0.00  0.00     0.007 A 
ENDBRANCH  21  22
ENDBRANCH   8  21
TORSDOF 4
