REMARK  4 active torsions:
REMARK  status: ('A' for Active; 'I' for Inactive)
REMARK    1  A    between atoms: C_2  and  N_1 
REMARK    2  A    between atoms: C_3  and  C_7 
REMARK       I    between atoms: C_4  and  N_5 
REMARK    3  A    between atoms: C_9  and  C_4 
REMARK    4  A    between atoms: N_5  and  C_11 
ROOT
ATOM      1  C   UNL d   1      -2.826   0.510  -3.315  0.00  0.00     0.256 C 
ATOM      2  N   UNL d   1      -2.395  -0.804  -3.276  0.00  0.00    -0.323 N 
ATOM      3  O   UNL d   1      -2.514   1.392  -2.517  0.00  0.00    -0.267 OA
ATOM      4  H   UNL d   1      -2.849  -1.465  -3.897  0.00  0.00     0.169 HD
ENDROOT
BRANCH   1   5
ATOM      5  C   UNL d   1      -3.754   0.891  -4.419  0.00  0.00     0.032 A 
ATOM      6  C   UNL d   1      -4.610   1.978  -4.196  0.00  0.00     0.018 A 
ATOM      7  C   UNL d   1      -5.400   2.490  -5.227  0.00  0.00     0.017 A 
ATOM      8  C   UNL d   1      -5.340   1.929  -6.509  0.00  0.00     0.048 A 
ATOM      9  C   UNL d   1      -4.506   0.817  -6.723  0.00  0.00     0.017 A 
ATOM     10  C   UNL d   1      -3.712   0.301  -5.686  0.00  0.00     0.018 A 
BRANCH   8  11
ATOM     11  C   UNL d   1      -6.118   2.535  -7.654  0.00  0.00     0.417 C 
ATOM     12  F   UNL d   1      -6.869   3.612  -7.294  0.00  0.00    -0.166 F 
ATOM     13  F   UNL d   1      -5.304   2.967  -8.657  0.00  0.00    -0.166 F 
ATOM     14  F   UNL d   1      -6.981   1.651  -8.227  0.00  0.00    -0.166 F 
ENDBRANCH   8  11
ENDBRANCH   1   5
BRANCH   2  15
ATOM     15  C   UNL d   1      -1.378  -1.323  -2.438  0.00  0.00     0.037 A 
ATOM     16  C   UNL d   1      -0.609  -0.535  -1.581  0.00  0.00     0.066 A 
ATOM     17  C   UNL d   1       0.455  -1.109  -0.869  0.00  0.00     0.111 A 
ATOM     18  C   UNL d   1       0.751  -2.478  -0.935  0.00  0.00    -0.029 A 
ATOM     19  C   UNL d   1      -0.049  -3.262  -1.780  0.00  0.00     0.011 A 
ATOM     20  C   UNL d   1       1.861  -3.140  -0.170  0.00  0.00     0.050 C 
ATOM     21  C   UNL d   1      -1.090  -2.690  -2.528  0.00  0.00     0.030 A 
BRANCH  17  22
ATOM     22  N   UNL d   1       1.303  -0.197  -0.120  0.00  0.00    -0.115 N 
ATOM     23  O   UNL d   1       0.790   0.398   0.837  0.00  0.00    -0.532 OA
ATOM     24  O   UNL d   1       2.474  -0.077  -0.503  0.00  0.00    -0.532 OA
ENDBRANCH  17  22
ENDBRANCH   2  15
TORSDOF 4
