REMARK  7 active torsions:
REMARK  status: ('A' for Active; 'I' for Inactive)
REMARK    1  A    between atoms: N_3  and  S_1 
REMARK    2  A    between atoms: C_11  and  S_1 
REMARK    3  A    between atoms: S_2  and  N_9 
REMARK    4  A    between atoms: C_12  and  S_2 
REMARK    5  A    between atoms: C_4  and  N_3 
REMARK    6  A    between atoms: N_5  and  C_14 
REMARK    7  A    between atoms: N_9  and  C_27 
ROOT
ATOM      1  C   UNL d   1       0.494  -1.659   0.102  0.00  0.00     0.075 A 
ATOM      2  C   UNL d   1       1.408  -2.708  -0.055  0.00  0.00     0.027 A 
ATOM      3  C   UNL d   1      -0.865  -1.923   0.294  0.00  0.00     0.027 A 
ATOM      4  C   UNL d   1      -0.413  -4.286   0.082  0.00  0.00     0.042 A 
ATOM      5  C   UNL d   1      -1.314  -3.243   0.290  0.00  0.00     0.031 A 
ATOM      6  C   UNL d   1       0.950  -4.029  -0.067  0.00  0.00     0.031 A 
ENDROOT
BRANCH   4   7
ATOM      7  N   UNL d   1      -0.921  -5.603   0.050  0.00  0.00    -0.281 N 
ATOM      8  H   UNL d   1      -0.928  -6.180   0.889  0.00  0.00     0.179 HD
BRANCH   7   9
ATOM      9  S   UNL d   1      -1.139  -6.394  -1.409  0.00  0.00     0.263 S 
ATOM     10  O   UNL d   1       0.058  -6.260  -2.214  0.00  0.00    -0.200 OA
ATOM     11  O   UNL d   1      -1.677  -7.698  -1.083  0.00  0.00    -0.200 OA
BRANCH   9  12
ATOM     12  C   UNL d   1      -2.443  -5.462  -2.192  0.00  0.00     0.080 A 
ATOM     13  C   UNL d   1      -2.112  -4.435  -3.087  0.00  0.00     0.028 A 
ATOM     14  C   UNL d   1      -3.122  -3.774  -3.794  0.00  0.00     0.037 A 
ATOM     15  C   UNL d   1      -4.459  -4.153  -3.605  0.00  0.00     0.102 A 
ATOM     16  C   UNL d   1      -4.792  -5.171  -2.699  0.00  0.00     0.037 A 
ATOM     17  C   UNL d   1      -3.779  -5.830  -1.993  0.00  0.00     0.028 A 
BRANCH  15  18
ATOM     18  N   UNL d   1      -5.519  -3.494  -4.384  0.00  0.00    -0.116 N 
ATOM     19  O   UNL d   1      -6.687  -3.858  -4.188  0.00  0.00    -0.532 OA
ATOM     20  O   UNL d   1      -5.181  -2.615  -5.189  0.00  0.00    -0.532 OA
ENDBRANCH  15  18
ENDBRANCH   9  12
ENDBRANCH   7   9
ENDBRANCH   4   7
BRANCH   1  21
ATOM     21  S   UNL d   1       1.083   0.013   0.171  0.00  0.00     0.247 S 
ATOM     22  O   UNL d   1       0.038   0.826   0.759  0.00  0.00    -0.205 OA
ATOM     23  O   UNL d   1       2.416   0.015   0.734  0.00  0.00    -0.205 OA
BRANCH  21  24
ATOM     24  N   UNL d   1       1.145   0.481  -1.451  0.00  0.00    -0.165 NA
ATOM     25  H   UNL d   1       0.758   1.422  -1.509  0.00  0.00     0.147 HD
BRANCH  24  26
ATOM     26  C   UNL d   1       2.336   0.260  -2.129  0.00  0.00     0.117 A 
ATOM     27  N   UNL d   1       2.581  -0.883  -2.772  0.00  0.00    -0.249 N 
ATOM     28  O   UNL d   1       3.841  -0.736  -3.326  0.00  0.00    -0.241 OA
ATOM     29  HN  UNL d   1       1.968  -1.695  -2.841  1.00  0.00     0.196 HD
ATOM     30  C   UNL d   1       4.335   0.490  -3.003  0.00  0.00     0.075 A 
ATOM     31  C   UNL d   1       3.399   1.174  -2.266  0.00  0.00     0.079 A 
ATOM     32  C   UNL d   1       5.698   0.790  -3.476  0.00  0.00     0.079 C 
ENDBRANCH  24  26
ENDBRANCH  21  24
ENDBRANCH   1  21
TORSDOF 7
