REMARK  3 active torsions:
REMARK  status: ('A' for Active; 'I' for Inactive)
REMARK    1  A    between atoms: N_6  and  C_2 
REMARK    2  A    between atoms: C_11  and  C_3 
REMARK       I    between atoms: C_9  and  N_6 
REMARK    3  A    between atoms: C_10  and  C_9 
ROOT
ATOM      1  S   UNL d   1       1.018  -0.311  -0.028  0.00  0.00    -0.037 SA
ATOM      2  C   UNL d   1      -0.034   1.029  -0.028  0.00  0.00     0.168 A 
ATOM      3  C   UNL d   1      -0.373  -1.306   0.042  0.00  0.00     0.074 A 
ATOM      4  N   UNL d   1      -1.512  -0.644   0.063  0.00  0.00    -0.296 N 
ATOM      5  HN  UNL d   1      -2.431  -1.086   0.093  1.00  0.00     0.187 HD
ATOM      6  N   UNL d   1      -1.309   0.720   0.040  0.00  0.00    -0.279 N 
ATOM      7  HN  UNL d   1      -2.061   1.408   0.071  1.00  0.00     0.189 HD
ENDROOT
BRANCH   2   8
ATOM      8  N   UNL d   1       0.385   2.333  -0.061  0.00  0.00    -0.298 N 
ATOM      9  C   UNL d   1       1.676   2.805  -0.238  0.00  0.00     0.331 C 
ATOM     10  O   UNL d   1       2.673   2.109  -0.426  0.00  0.00    -0.263 OA
ATOM     11  H   UNL d   1      -0.374   3.005   0.014  0.00  0.00     0.171 HD
BRANCH   9  12
ATOM     12  C   UNL d   1       1.739   4.345  -0.194  0.00  0.00     0.472 C 
ATOM     13  F   UNL d   1       0.516   4.889   0.085  0.00  0.00    -0.162 F 
ATOM     14  F   UNL d   1       2.589   4.812   0.758  0.00  0.00    -0.162 F 
ATOM     15  F   UNL d   1       2.130   4.886  -1.379  0.00  0.00    -0.162 F 
ENDBRANCH   9  12
ENDBRANCH   2   8
BRANCH   3  16
ATOM     16  C   UNL d   1      -0.308  -2.833   0.082  0.00  0.00     0.044 A 
ATOM     17  C   UNL d   1      -1.384  -3.617  -0.647  0.00  0.00     0.012 A 
ATOM     18  C   UNL d   1      -1.391  -3.577   0.842  0.00  0.00     0.012 A 
ENDBRANCH   3  16
TORSDOF 3
