REMARK  2 active torsions:
REMARK  status: ('A' for Active; 'I' for Inactive)
REMARK    1  A    between atoms: C_6  and  C_1 
REMARK    2  A    between atoms: O_17  and  C_13 
ROOT
ATOM      1  C   UNL d   1       1.629  -1.580   0.036  0.00  0.00     0.164 A 
ATOM      2  N   UNL d   1       1.075  -1.175   1.127  0.00  0.00    -0.335 N 
ATOM      3  HN  UNL d   1       1.355  -1.550   2.033  1.00  0.00     0.168 HD
ATOM      4  O   UNL d   1       1.315  -1.174  -1.216  0.00  0.00    -0.257 OA
ATOM      5  C   UNL d   1       0.293  -0.302  -1.404  0.00  0.00     0.302 A 
ATOM      6  C   UNL d   1      -0.355   0.248  -0.208  0.00  0.00     0.066 A 
ATOM      7  C   UNL d   1       0.084  -0.208   1.024  0.00  0.00     0.050 A 
ATOM      8  O   UNL d   1      -0.072   0.026  -2.526  0.00  0.00    -0.259 OA
ATOM      9  C   UNL d   1      -1.374   1.204  -0.299  0.00  0.00     0.020 A 
ATOM     10  C   UNL d   1      -0.483   0.312   2.188  0.00  0.00     0.030 A 
ATOM     11  C   UNL d   1      -1.943   1.714   0.868  0.00  0.00     0.001 A 
ATOM     12  C   UNL d   1      -1.493   1.272   2.112  0.00  0.00     0.002 A 
ENDROOT
BRANCH   1  13
ATOM     13  C   UNL d   1       2.704  -2.602  -0.005  0.00  0.00     0.035 A 
ATOM     14  C   UNL d   1       3.664  -2.739   1.010  0.00  0.00     0.025 A 
ATOM     15  C   UNL d   1       4.607  -3.771   0.938  0.00  0.00     0.023 A 
ATOM     16 BR   UNL d   1       3.830  -1.568   2.499  0.00  0.00    -0.050 Br
ATOM     17  C   UNL d   1       4.598  -4.660  -0.137  0.00  0.00     0.038 A 
ATOM     18  C   UNL d   1       3.655  -4.533  -1.155  0.00  0.00     0.069 A 
ATOM     19  C   UNL d   1       2.712  -3.506  -1.088  0.00  0.00     0.054 A 
BRANCH  18  20
ATOM     20  O   UNL d   1       3.750  -5.471  -2.145  0.00  0.00    -0.356 OA
ATOM     21  C   UNL d   1       2.794  -5.400  -3.197  0.00  0.00     0.210 C 
ENDBRANCH  18  20
ENDBRANCH   1  13
TORSDOF 2
