REMARK  3 active torsions:
REMARK  status: ('A' for Active; 'I' for Inactive)
REMARK    1  A    between atoms: C_2  and  C_1 
REMARK       I    between atoms: N_4  and  C_1 
REMARK    2  A    between atoms: C_3  and  N_6 
REMARK    3  A    between atoms: N_6  and  N_4 
ROOT
ATOM      1  C   UNL d   1       0.924   0.146  -0.133  0.00  0.00     0.277 C 
ATOM      2  N   UNL d   1       0.150  -0.200  -1.227  0.00  0.00    -0.263 N 
ATOM      3  O   UNL d   1       2.117   0.426  -0.269  0.00  0.00    -0.265 OA
ATOM      4  H   UNL d   1      -0.833  -0.449  -1.142  0.00  0.00     0.190 HD
ENDROOT
BRANCH   2   5
ATOM      5  N   UNL d   1       0.727  -0.221  -2.500  0.00  0.00    -0.274 N 
ATOM      6  H   UNL d   1       1.661   0.180  -2.560  0.00  0.00     0.189 HD
BRANCH   5   7
ATOM      7  C   UNL d   1      -0.036  -0.423  -3.619  0.00  0.00     0.184 C 
ATOM      8  S   UNL d   1      -1.661  -0.784  -3.653  0.00  0.00    -0.040 SA
ATOM      9  N   UNL d   1       0.659  -0.313  -4.782  0.00  0.00    -0.375 N 
ATOM     10  H   UNL d   1       1.669  -0.352  -4.797  0.00  0.00     0.158 HD
ATOM     11  H   UNL d   1       0.177  -0.546  -5.642  0.00  0.00     0.158 HD
ENDBRANCH   5   7
ENDBRANCH   2   5
BRANCH   1  12
ATOM     12  C   UNL d   1       0.245   0.148   1.155  0.00  0.00     0.074 A 
ATOM     13  S   UNL d   1      -1.453  -0.051   1.298  0.00  0.00    -0.097 SA
ATOM     14  C   UNL d   1      -1.400   0.104   2.999  0.00  0.00     0.050 A 
ATOM     15  C   UNL d   1      -0.117   0.291   3.461  0.00  0.00     0.009 A 
ATOM     16  C   UNL d   1       0.831   0.320   2.397  0.00  0.00     0.025 A 
ENDBRANCH   1  12
TORSDOF 3
