REMARK  6 active torsions:
REMARK  status: ('A' for Active; 'I' for Inactive)
REMARK    1  A    between atoms: S_2  and  C_1 
REMARK    2  A    between atoms: C_13  and  S_2 
REMARK    3  A    between atoms: C_7  and  C_4 
REMARK       I    between atoms: N_12  and  C_7 
REMARK    4  A    between atoms: C_8  and  C_10 
REMARK    5  A    between atoms: C_9  and  C_11 
REMARK    6  A    between atoms: C_14  and  N_12 
ROOT
ATOM      1  C   UNL d   1       0.610  -2.498   0.046  0.00  0.00     0.263 C 
ATOM      2  N   UNL d   1      -0.516  -3.307   0.145  0.00  0.00    -0.322 N 
ATOM      3  O   UNL d   1       1.739  -2.948  -0.116  0.00  0.00    -0.267 OA
ATOM      4  H   UNL d   1      -1.411  -2.833   0.110  0.00  0.00     0.169 HD
ENDROOT
BRANCH   1   5
ATOM      5  C   UNL d   1       0.383  -1.045   0.137  0.00  0.00     0.080 A 
ATOM      6  C   UNL d   1       1.355  -0.038   0.086  0.00  0.00    -0.017 A 
ATOM      7  C   UNL d   1       0.750   1.275   0.155  0.00  0.00     0.078 A 
ATOM      8  C   UNL d   1       2.821  -0.340  -0.052  0.00  0.00     0.051 C 
ATOM      9  C   UNL d   1      -0.616   1.201   0.340  0.00  0.00     0.075 A 
ATOM     10  S   UNL d   1      -1.188  -0.401   0.366  0.00  0.00    -0.094 SA
BRANCH   7  11
ATOM     11  S   UNL d   1       1.548   2.824   0.016  0.00  0.00     0.207 S 
ATOM     12  O   UNL d   1       2.765   2.593  -0.732  0.00  0.00    -0.217 OA
ATOM     13  O   UNL d   1       0.517   3.716  -0.478  0.00  0.00    -0.217 OA
BRANCH  11  14
ATOM     14  C   UNL d   1       1.964   3.317   1.669  0.00  0.00     0.064 A 
ATOM     15  C   UNL d   1       3.183   2.924   2.233  0.00  0.00     0.025 A 
ATOM     16  C   UNL d   1       3.535   3.387   3.505  0.00  0.00     0.025 A 
ATOM     17  C   UNL d   1       2.681   4.249   4.194  0.00  0.00     0.034 A 
ATOM     18  C   UNL d   1       1.474   4.653   3.624  0.00  0.00     0.025 A 
ATOM     19 CL   UNL d   1       3.128   4.834   5.749  0.00  0.00    -0.084 Cl
ATOM     20  C   UNL d   1       1.114   4.191   2.357  0.00  0.00     0.025 A 
ENDBRANCH  11  14
ENDBRANCH   7  11
ENDBRANCH   1   5
BRANCH   2  21
ATOM     21  C   UNL d   1      -0.530  -4.710   0.323  0.00  0.00     0.036 A 
ATOM     22  C   UNL d   1       0.622  -5.457   0.583  0.00  0.00     0.045 A 
ATOM     23  C   UNL d   1       0.566  -6.834   0.848  0.00  0.00     0.050 A 
ATOM     24  C   UNL d   1      -0.677  -7.478   0.825  0.00  0.00     0.032 A 
ATOM     25  C   UNL d   1      -1.851  -6.755   0.564  0.00  0.00     0.050 A 
ATOM     26  C   UNL d   1      -1.765  -5.370   0.309  0.00  0.00     0.045 A 
BRANCH  23  27
ATOM     27  C   UNL d   1       1.841  -7.570   1.185  0.00  0.00     0.417 C 
ATOM     28  F   UNL d   1       1.637  -8.870   1.535  0.00  0.00    -0.166 F 
ATOM     29  F   UNL d   1       2.723  -7.594   0.150  0.00  0.00    -0.166 F 
ATOM     30  F   UNL d   1       2.501  -7.004   2.233  0.00  0.00    -0.166 F 
ENDBRANCH  23  27
BRANCH  25  31
ATOM     31  C   UNL d   1      -3.197  -7.442   0.575  0.00  0.00     0.417 C 
ATOM     32  F   UNL d   1      -3.144  -8.731   1.013  0.00  0.00    -0.166 F 
ATOM     33  F   UNL d   1      -4.093  -6.811   1.384  0.00  0.00    -0.166 F 
ATOM     34  F   UNL d   1      -3.770  -7.487  -0.658  0.00  0.00    -0.166 F 
ENDBRANCH  25  31
ENDBRANCH   2  21
TORSDOF 6
