REMARK  6 active torsions:
REMARK  status: ('A' for Active; 'I' for Inactive)
REMARK    1  A    between atoms: S_17  and  C_3 
REMARK    2  A    between atoms: C_4  and  C_9 
REMARK    3  A    between atoms: C_5  and  C_8 
REMARK    4  A    between atoms: C_10  and  C_16 
REMARK    5  A    between atoms: C_16  and  C_18 
REMARK    6  A    between atoms: C_18  and  S_17 
ROOT
ATOM      1  C   UNL d   1       6.118   1.755   0.050  0.00  0.00     0.169 C 
ATOM      2  O   UNL d   1       6.678   2.851   0.092  0.00  0.00    -0.291 OA
ENDROOT
BRANCH   1   3
ATOM      3  C   UNL d   1       6.962   0.515   0.052  0.00  0.00     0.012 A 
ATOM      4  C   UNL d   1       6.426  -0.779   0.012  0.00  0.00     0.031 A 
ATOM      5  C   UNL d   1       7.266  -1.909   0.022  0.00  0.00     0.049 A 
ATOM      6  C   UNL d   1       8.658  -1.727   0.070  0.00  0.00     0.032 A 
ATOM      7  C   UNL d   1       9.216  -0.441   0.114  0.00  0.00     0.049 A 
ATOM      8  C   UNL d   1       8.356   0.670   0.102  0.00  0.00     0.031 A 
BRANCH   5   9
ATOM      9  C   UNL d   1       6.663  -3.295  -0.022  0.00  0.00     0.417 C 
ATOM     10  F   UNL d   1       7.580  -4.293   0.088  0.00  0.00    -0.166 F 
ATOM     11  F   UNL d   1       5.763  -3.498   0.979  0.00  0.00    -0.166 F 
ATOM     12  F   UNL d   1       5.991  -3.525  -1.183  0.00  0.00    -0.166 F 
ENDBRANCH   5   9
BRANCH   7  13
ATOM     13  C   UNL d   1      10.712  -0.233   0.175  0.00  0.00     0.417 C 
ATOM     14  F   UNL d   1      11.415  -1.397   0.234  0.00  0.00    -0.166 F 
ATOM     15  F   UNL d   1      11.186   0.436  -0.911  0.00  0.00    -0.166 F 
ATOM     16  F   UNL d   1      11.093   0.489   1.263  0.00  0.00    -0.166 F 
ENDBRANCH   7  13
ENDBRANCH   1   3
BRANCH   1  17
ATOM     17  C   UNL d   1       4.608   1.655   0.001  0.00  0.00     0.166 C 
BRANCH  17  18
ATOM     18  S   UNL d   1       3.959   1.446   1.679  0.00  0.00    -0.078 SA
BRANCH  18  19
ATOM     19  C   UNL d   1       2.267   1.250   1.327  0.00  0.00     0.188 A 
ATOM     20  N   UNL d   1       1.766   1.282   0.106  0.00  0.00    -0.329 N 
ATOM     21  C   UNL d   1       0.432   1.023   0.288  0.00  0.00     0.070 A 
ATOM     22  HN  UNL d   1       2.258   1.458  -0.770  1.00  0.00     0.168 HD
ATOM     23  C   UNL d   1       0.171   0.845   1.636  0.00  0.00     0.105 A 
ATOM     24  C   UNL d   1      -0.616   0.907  -0.633  0.00  0.00     0.056 A 
ATOM     25  C   UNL d   1      -1.077   0.547   2.169  0.00  0.00     0.041 A 
ATOM     26  O   UNL d   1       1.344   0.998   2.311  0.00  0.00    -0.285 OA
ATOM     27  C   UNL d   1      -2.116   0.418   1.238  0.00  0.00     0.026 A 
ATOM     28  C   UNL d   1      -1.886   0.596  -0.133  0.00  0.00     0.036 A 
ATOM     29 CL   UNL d   1      -3.198   0.413  -1.236  0.00  0.00    -0.084 Cl
ENDBRANCH  18  19
ENDBRANCH  17  18
ENDBRANCH   1  17
TORSDOF 6
