REMARK  5 active torsions:
REMARK  status: ('A' for Active; 'I' for Inactive)
REMARK    1  A    between atoms: C_2  and  CA_1 
REMARK    2  A    between atoms: N_4  and  CA_1 
REMARK    3  A    between atoms: C_12  and  CA_1 
REMARK    4  A    between atoms: OXT_14  and  C_2 
REMARK    5  A    between atoms: C_8  and  N_4 
ROOT
ATOM      1  CA  UNL d   1       1.014  -0.017   0.152  0.00  0.00     0.192 C 
ENDROOT
BRANCH   1   2
ATOM      2  C   UNL d   1       0.666  -0.638   1.524  0.00  0.00     0.163 C 
ATOM      3  O   UNL d   1       0.378   0.010   2.526  0.00  0.00    -0.649 OA
BRANCH   2   4
ATOM      4  OXT UNL d   1       0.731  -1.994   1.552  0.00  0.00    -0.775 OA
ATOM      5  HXT UNL d   1       1.022  -2.403   0.715  0.00  0.00     0.167 HD
ENDBRANCH   2   4
ENDBRANCH   1   2
BRANCH   1   6
ATOM      6  N   UNL d   1       0.374   1.296  -0.026  0.00  0.00    -0.275 NA
ATOM      7  H   UNL d   1       0.557   1.897   0.780  0.00  0.00     0.129 HD
BRANCH   6   8
ATOM      8  C   UNL d   1      -0.945   1.469  -0.443  0.00  0.00     0.012 A 
ATOM      9  C   UNL d   1      -1.381   2.791  -0.646  0.00  0.00     0.063 A 
ATOM     10  C   UNL d   1      -2.662   3.015  -1.107  0.00  0.00     0.106 A 
ATOM     11  O   UNL d   1      -3.217   4.229  -1.362  0.00  0.00    -0.323 OA
ATOM     12  C   UNL d   1      -3.522   1.979  -1.366  0.00  0.00     0.105 A 
ATOM     13  C   UNL d   1      -4.513   3.833  -1.859  0.00  0.00     0.352 A 
ATOM     14  O   UNL d   1      -4.733   2.408  -1.809  0.00  0.00    -0.323 OA
ATOM     15  C   UNL d   1      -3.142   0.670  -1.189  0.00  0.00     0.041 A 
ATOM     16  C   UNL d   1      -1.836   0.418  -0.739  0.00  0.00     0.026 A 
ENDBRANCH   6   8
ENDBRANCH   1   6
BRANCH   1  17
ATOM     17  C   UNL d   1       2.520   0.162   0.001  0.00  0.00    -0.030 A 
ATOM     18  C   UNL d   1       3.218  -0.503  -1.022  0.00  0.00     0.009 A 
ATOM     19  C   UNL d   1       4.586  -0.288  -1.206  0.00  0.00     0.001 A 
ATOM     20  C   UNL d   1       5.276   0.593  -0.376  0.00  0.00     0.000 A 
ATOM     21  C   UNL d   1       4.605   1.244   0.655  0.00  0.00     0.001 A 
ATOM     22  C   UNL d   1       3.239   1.024   0.849  0.00  0.00     0.009 A 
ENDBRANCH   1  17
TORSDOF 5
