REMARK  4 active torsions:
REMARK  status: ('A' for Active; 'I' for Inactive)
REMARK    1  A    between atoms: C_5  and  C_1 
REMARK    2  A    between atoms: N_6  and  C_2 
REMARK    3  A    between atoms: N_4  and  C_7 
REMARK    4  A    between atoms: O_16  and  C_5 
ROOT
ATOM      1  C   UNL d   1       1.464  -0.241  -0.017  0.00  0.00     0.068 A 
ATOM      2  C   UNL d   1       0.636  -1.390   0.013  0.00  0.00     0.046 A 
ATOM      3  C   UNL d   1       0.908   1.058   0.035  0.00  0.00     0.050 A 
ATOM      4  C   UNL d   1      -0.470   1.243   0.157  0.00  0.00     0.039 A 
ATOM      5  C   UNL d   1      -0.752  -1.162   0.082  0.00  0.00     0.033 A 
ATOM      6  C   UNL d   1      -1.302   0.125   0.168  0.00  0.00     0.032 A 
ENDROOT
BRANCH   2   7
ATOM      7  N   UNL d   1       1.137  -2.687   0.033  0.00  0.00    -0.376 N 
ATOM      8  C   UNL d   1       0.367  -3.783   0.651  0.00  0.00     0.149 C 
ATOM      9  C   UNL d   1       1.333  -4.910   1.054  0.00  0.00     0.187 C 
ATOM     10  O   UNL d   1       2.090  -5.381  -0.074  0.00  0.00    -0.388 OA
ATOM     11  C   UNL d   1       2.864  -4.301  -0.631  0.00  0.00     0.187 C 
ATOM     12  C   UNL d   1       1.959  -3.150  -1.105  0.00  0.00     0.149 C 
ENDBRANCH   2   7
BRANCH   1  13
ATOM     13  C   UNL d   1       2.949  -0.334   0.063  0.00  0.00     0.295 C 
ATOM     14  O   UNL d   1       3.583  -1.135   0.730  0.00  0.00    -0.259 OA
BRANCH  13  15
ATOM     15  O   UNL d   1       3.493   0.631  -0.730  0.00  0.00    -0.322 OA
ATOM     16  C   UNL d   1       4.918   0.696  -0.671  0.00  0.00     0.213 C 
ENDBRANCH  13  15
ENDBRANCH   1  13
BRANCH   4  17
ATOM     17  N   UNL d   1      -1.007   2.550   0.329  0.00  0.00    -0.333 N 
ATOM     18  C   UNL d   1      -2.226   2.864   0.901  0.00  0.00     0.096 A 
ATOM     19  C   UNL d   1      -2.355   4.235   0.969  0.00  0.00     0.019 A 
ATOM     20  C   UNL d   1      -1.199   4.791   0.387  0.00  0.00     0.019 A 
ATOM     21  C   UNL d   1      -0.391   3.744   0.003  0.00  0.00     0.096 A 
ENDBRANCH   4  17
TORSDOF 4
