REMARK  2 active torsions:
REMARK  status: ('A' for Active; 'I' for Inactive)
REMARK    1  A    between atoms: C_8  and  C_1 
REMARK    2  A    between atoms: C_10  and  C_11 
ROOT
ATOM      1  C   UNL d   1       1.603  -1.554  -0.008  0.00  0.00     0.162 A 
ATOM      2  N   UNL d   1       1.550  -0.652   0.917  0.00  0.00    -0.335 N 
ATOM      3  HN  UNL d   1       2.218  -0.641   1.688  1.00  0.00     0.168 HD
ATOM      4  O   UNL d   1       0.781  -1.655  -1.075  0.00  0.00    -0.257 OA
ATOM      5  C   UNL d   1      -0.220  -0.762  -1.244  0.00  0.00     0.302 A 
ATOM      6  C   UNL d   1      -0.365   0.290  -0.235  0.00  0.00     0.066 A 
ATOM      7  C   UNL d   1       0.543   0.304   0.813  0.00  0.00     0.050 A 
ATOM      8  O   UNL d   1      -0.983  -0.825  -2.201  0.00  0.00    -0.259 OA
ATOM      9  C   UNL d   1      -1.385   1.245  -0.325  0.00  0.00     0.020 A 
ATOM     10  C   UNL d   1       0.431   1.296   1.790  0.00  0.00     0.030 A 
ATOM     11  C   UNL d   1      -1.492   2.230   0.655  0.00  0.00     0.001 A 
ATOM     12  C   UNL d   1      -0.583   2.256   1.712  0.00  0.00     0.002 A 
ENDROOT
BRANCH   1  13
ATOM     13  C   UNL d   1       2.605  -2.652  -0.019  0.00  0.00     0.015 A 
ATOM     14  C   UNL d   1       3.550  -2.730   1.008  0.00  0.00     0.016 A 
ATOM     15  C   UNL d   1       4.491  -3.767   1.026  0.00  0.00     0.009 A 
ATOM     16  C   UNL d   1       4.521  -4.754   0.023  0.00  0.00    -0.051 A 
ATOM     17  C   UNL d   1       3.566  -4.657  -1.002  0.00  0.00     0.009 A 
ATOM     18  C   UNL d   1       2.622  -3.623  -1.025  0.00  0.00     0.016 A 
BRANCH  16  19
ATOM     19  C   UNL d   1       5.571  -5.880   0.066  0.00  0.00    -0.024 C 
ATOM     20  C   UNL d   1       5.464  -6.873  -1.114  0.00  0.00     0.019 C 
ATOM     21  C   UNL d   1       6.987  -5.268   0.021  0.00  0.00     0.019 C 
ATOM     22  C   UNL d   1       5.411  -6.698   1.365  0.00  0.00     0.019 C 
ENDBRANCH  16  19
ENDBRANCH   1  13
TORSDOF 2
