REMARK  3 active torsions:
REMARK  status: ('A' for Active; 'I' for Inactive)
REMARK    1  A    between atoms: N_9  and  C_1 
REMARK    2  A    between atoms: S_13  and  C_7 
REMARK    3  A    between atoms: C_12  and  C_8 
ROOT
ATOM      1  C   UNL d   1       2.181  -0.018  -0.000  0.00  0.00     0.681 A 
ATOM      2  N   UNL d   1       1.537  -1.180  -0.109  0.00  0.00    -0.184 N 
ATOM      3  HN  UNL d   1       2.058  -2.056  -0.147  1.00  0.00     0.185 HD
ATOM      4  N   UNL d   1       1.524   1.149   0.080  0.00  0.00    -0.189 N 
ATOM      5  HN  UNL d   1       2.038   2.024   0.186  1.00  0.00     0.184 HD
ATOM      6  C   UNL d   1      -0.554  -0.025  -0.142  0.00  0.00     0.106 A 
ATOM      7  C   UNL d   1       0.194  -1.185  -0.166  0.00  0.00     0.108 A 
ATOM      8  C   UNL d   1       0.162   1.154   0.017  0.00  0.00     0.083 A 
ATOM      9  C   UNL d   1      -1.969  -0.063  -0.322  0.00  0.00     0.104 C 
ATOM     10  N   UNL d   1      -3.123  -0.085  -0.458  0.00  0.00    -0.191 NA
ENDROOT
BRANCH   8  11
ATOM     11  C   UNL d   1      -0.448   2.513   0.090  0.00  0.00    -0.007 A 
ATOM     12  C   UNL d   1      -1.677   2.764   0.734  0.00  0.00     0.014 A 
ATOM     13  C   UNL d   1      -2.286   4.024   0.697  0.00  0.00     0.001 A 
ATOM     14  C   UNL d   1      -1.653   5.085   0.063  0.00  0.00     0.000 A 
ATOM     15  C   UNL d   1      -0.405   4.890  -0.518  0.00  0.00     0.001 A 
ATOM     16  C   UNL d   1       0.188   3.620  -0.506  0.00  0.00     0.014 A 
ENDBRANCH   8  11
BRANCH   7  17
ATOM     17  S   UNL d   1      -0.569  -2.808  -0.277  0.00  0.00    -0.115 SA
ATOM     18  C   UNL d   1       0.886  -3.886  -0.189  0.00  0.00     0.097 C 
ENDBRANCH   7  17
BRANCH   1  19
ATOM     19  N   UNL d   1       3.548  -0.049   0.034  0.00  0.00    -0.214 N 
ATOM     20  C   UNL d   1       4.360   1.151   0.209  0.00  0.00     0.167 C 
ATOM     21  C   UNL d   1       5.275   1.352  -1.011  0.00  0.00     0.188 C 
ATOM     22  O   UNL d   1       6.043   0.171  -1.308  0.00  0.00    -0.388 OA
ATOM     23  C   UNL d   1       5.170  -0.937  -1.577  0.00  0.00     0.188 C 
ATOM     24  C   UNL d   1       4.280  -1.253  -0.366  0.00  0.00     0.167 C 
ENDBRANCH   1  19
TORSDOF 3
