REMARK  8 active torsions:
REMARK  status: ('A' for Active; 'I' for Inactive)
REMARK    1  A    between atoms: N_10  and  C_1 
REMARK    2  A    between atoms: N_4  and  C_2 
REMARK    3  A    between atoms: N_5  and  C_3 
REMARK    4  A    between atoms: C_6  and  C_7 
REMARK    5  A    between atoms: N_12  and  N_10 
REMARK    6  A    between atoms: C_11  and  N_12 
REMARK    7  A    between atoms: N_15  and  C_11 
REMARK    8  A    between atoms: C_21  and  N_15 
ROOT
ATOM      1  C   UNL d   1       1.264  -0.673  -0.168  0.00  0.00     0.089 A 
ATOM      2  C   UNL d   1       0.658   0.526  -0.656  0.00  0.00     0.128 A 
ATOM      3  C   UNL d   1       0.347  -1.619   0.352  0.00  0.00     0.128 A 
ATOM      4  C   UNL d   1      -1.608  -0.229  -0.101  0.00  0.00     0.052 A 
ATOM      5  C   UNL d   1      -0.744   0.741  -0.616  0.00  0.00     0.054 A 
ATOM      6  C   UNL d   1      -1.050  -1.410   0.384  0.00  0.00     0.054 A 
ENDROOT
BRANCH   1   7
ATOM      7  N   UNL d   1       2.651  -0.929  -0.388  0.00  0.00    -0.216 NA
ATOM      8  H   UNL d   1       3.186  -0.066  -0.591  0.00  0.00     0.147 HD
BRANCH   7   9
ATOM      9  N   UNL d   1       3.338  -1.698   0.598  0.00  0.00    -0.197 NA
ATOM     10  H   UNL d   1       3.050  -2.678   0.571  0.00  0.00     0.149 HD
BRANCH   9  11
ATOM     11  C   UNL d   1       4.711  -1.657   0.579  0.00  0.00     0.165 C 
ATOM     12  S   UNL d   1       5.568  -1.793   2.005  0.00  0.00    -0.046 SA
BRANCH  11  13
ATOM     13  N   UNL d   1       5.387  -1.489  -0.593  0.00  0.00    -0.337 N 
ATOM     14  H   UNL d   1       6.346  -1.180  -0.462  0.00  0.00     0.168 HD
BRANCH  13  15
ATOM     15  C   UNL d   1       5.100  -1.986  -1.886  0.00  0.00     0.035 A 
ATOM     16  C   UNL d   1       4.150  -2.974  -2.149  0.00  0.00     0.053 A 
ATOM     17  C   UNL d   1       3.969  -3.464  -3.448  0.00  0.00     0.042 A 
ATOM     18 CL   UNL d   1       2.784  -4.701  -3.683  0.00  0.00    -0.084 Cl
ATOM     19  C   UNL d   1       4.742  -2.981  -4.512  0.00  0.00    -0.040 A 
ATOM     20  C   UNL d   1       5.705  -2.000  -4.241  0.00  0.00     0.011 A 
ATOM     21  C   UNL d   1       4.602  -3.519  -5.907  0.00  0.00     0.050 C 
ATOM     22  C   UNL d   1       5.887  -1.515  -2.941  0.00  0.00     0.030 A 
ENDBRANCH  13  15
ENDBRANCH  11  13
ENDBRANCH   9  11
ENDBRANCH   7   9
ENDBRANCH   1   7
BRANCH   2  23
ATOM     23  N   UNL d   1       1.472   1.634  -1.204  0.00  0.00    -0.114 N 
ATOM     24  O   UNL d   1       2.700   1.590  -1.035  0.00  0.00    -0.532 OA
ATOM     25  O   UNL d   1       0.880   2.551  -1.781  0.00  0.00    -0.532 OA
ENDBRANCH   2  23
BRANCH   3  26
ATOM     26  N   UNL d   1       0.766  -2.895   0.905  0.00  0.00    -0.114 N 
ATOM     27  O   UNL d   1       1.430  -3.649   0.182  0.00  0.00    -0.532 OA
ATOM     28  O   UNL d   1       0.411  -3.143   2.064  0.00  0.00    -0.532 OA
ENDBRANCH   3  26
BRANCH   4  29
ATOM     29  C   UNL d   1      -3.109  -0.041  -0.072  0.00  0.00     0.417 C 
ATOM     30  F   UNL d   1      -3.503   1.213  -0.414  0.00  0.00    -0.166 F 
ATOM     31  F   UNL d   1      -3.743  -0.888  -0.925  0.00  0.00    -0.166 F 
ATOM     32  F   UNL d   1      -3.630  -0.282   1.160  0.00  0.00    -0.166 F 
ENDBRANCH   4  29
TORSDOF 8
