REMARK  6 active torsions:
REMARK  status: ('A' for Active; 'I' for Inactive)
REMARK    1  A    between atoms: N_2  and  C_1 
REMARK    2  A    between atoms: C_3  and  C_6 
REMARK    3  A    between atoms: O_7  and  C_5 
REMARK    4  A    between atoms: C_11  and  O_7 
REMARK    5  A    between atoms: C_21  and  C_10 
REMARK    6  A    between atoms: C_22  and  C_14 
ROOT
ATOM      1  C   UNL d   1      -0.384   1.089  -0.519  0.00  0.00     0.137 A 
ATOM      2  C   UNL d   1      -1.197  -0.050  -0.653  0.00  0.00     0.055 A 
ATOM      3  C   UNL d   1       0.988   0.991  -0.277  0.00  0.00     0.109 A 
ATOM      4  C   UNL d   1      -0.629  -1.328  -0.541  0.00  0.00     0.050 A 
ATOM      5  C   UNL d   1       1.523  -0.290  -0.071  0.00  0.00     0.040 A 
ATOM      6  C   UNL d   1       0.735  -1.433  -0.234  0.00  0.00     0.019 A 
ENDROOT
BRANCH   3   7
ATOM      7  O   UNL d   1       1.753   2.140  -0.216  0.00  0.00    -0.308 OA
BRANCH   7   8
ATOM      8  C   UNL d   1       3.094   2.041  -0.524  0.00  0.00     0.076 C 
ATOM      9  C   UNL d   1       3.564   1.315  -1.621  0.00  0.00     0.044 C 
ATOM     10  C   UNL d   1       4.934   1.034  -1.765  0.00  0.00    -0.050 C 
ATOM     11  C   UNL d   1       5.848   1.599  -0.853  0.00  0.00    -0.052 C 
ATOM     12  C   UNL d   1       5.364   2.449   0.161  0.00  0.00     0.010 C 
ATOM     13  C   UNL d   1       3.994   2.658   0.335  0.00  0.00     0.038 C 
BRANCH  10  14
ATOM     14  C   UNL d   1       5.332   0.026  -2.821  0.00  0.00     0.035 C 
ATOM     15  C   UNL d   1       5.282  -1.393  -2.261  0.00  0.00     0.010 C 
ENDBRANCH  10  14
BRANCH  11  16
ATOM     16  C   UNL d   1       7.336   1.330  -0.904  0.00  0.00     0.034 C 
ATOM     17  C   UNL d   1       8.076   2.320  -1.789  0.00  0.00     0.010 C 
ENDBRANCH  11  16
ENDBRANCH   7   8
ENDBRANCH   3   7
BRANCH   1  18
ATOM     18  N   UNL d   1      -1.017   2.389  -0.629  0.00  0.00    -0.113 N 
ATOM     19  O   UNL d   1      -1.969   2.610   0.132  0.00  0.00    -0.532 OA
ATOM     20  O   UNL d   1      -0.602   3.157  -1.506  0.00  0.00    -0.532 OA
ENDBRANCH   1  18
BRANCH   4  21
ATOM     21  C   UNL d   1      -1.442  -2.582  -0.758  0.00  0.00     0.417 C 
ATOM     22  F   UNL d   1      -2.772  -2.344  -0.908  0.00  0.00    -0.166 F 
ATOM     23  F   UNL d   1      -1.051  -3.256  -1.875  0.00  0.00    -0.166 F 
ATOM     24  F   UNL d   1      -1.327  -3.462   0.272  0.00  0.00    -0.166 F 
ENDBRANCH   4  21
TORSDOF 6
