REMARK  1 active torsions:
REMARK  status: ('A' for Active; 'I' for Inactive)
REMARK    1  A    between atoms: N_8  and  C_2 
REMARK       I    between atoms: C_10  and  N_8 
ROOT
ATOM      1  O   UNL d   1       1.158   1.445  -0.011  0.00  0.00    -0.271 OA
ATOM      2  C   UNL d   1       2.445  -0.663  -0.010  0.00  0.00     0.112 A 
ATOM      3  C   UNL d   1       2.405   0.834  -0.027  0.00  0.00     0.315 A 
ATOM      4  C   UNL d   1      -0.040   0.701   0.002  0.00  0.00     0.111 A 
ATOM      5  C   UNL d   1       0.011  -0.690   0.007  0.00  0.00     0.004 A 
ATOM      6  C   UNL d   1       1.301  -1.359   0.007  0.00  0.00     0.050 A 
ATOM      7  C   UNL d   1      -1.267   1.370   0.004  0.00  0.00     0.070 A 
ATOM      8  C   UNL d   1      -2.455   0.638   0.007  0.00  0.00     0.050 A 
ATOM      9  C   UNL d   1      -1.179  -1.422   0.009  0.00  0.00     0.038 A 
ATOM     10  C   UNL d   1      -2.404  -0.755   0.007  0.00  0.00     0.036 A 
ATOM     11  O   UNL d   1       3.452   1.477  -0.051  0.00  0.00    -0.257 OA
ATOM     12 CL   UNL d   1      -1.353   3.091   0.004  0.00  0.00    -0.081 Cl
ATOM     13 CL   UNL d   1      -3.864  -1.664   0.004  0.00  0.00    -0.084 Cl
ENDROOT
BRANCH   2  14
ATOM     14  N   UNL d   1       3.715  -1.224  -0.016  0.00  0.00    -0.322 N 
ATOM     15  C   UNL d   1       4.054  -2.562   0.001  0.00  0.00     0.218 C 
ATOM     16  O   UNL d   1       3.265  -3.502   0.030  0.00  0.00    -0.274 OA
ATOM     17  C   UNL d   1       5.538  -2.818  -0.016  0.00  0.00     0.117 C 
ATOM     18  H   UNL d   1       4.468  -0.537  -0.034  0.00  0.00     0.169 HD
ENDBRANCH   2  14
TORSDOF 1
