REMARK  4 active torsions:
REMARK  status: ('A' for Active; 'I' for Inactive)
REMARK    1  A    between atoms: C_5  and  C_1 
REMARK    2  A    between atoms: N_2  and  C_6 
REMARK    3  A    between atoms: N_7  and  C_3 
REMARK    4  A    between atoms: O_13  and  C_5 
ROOT
ATOM      1  C   UNL d   1       1.434  -0.330   0.149  0.00  0.00     0.068 A 
ATOM      2  C   UNL d   1       0.569  -1.452   0.027  0.00  0.00     0.046 A 
ATOM      3  C   UNL d   1       0.927   0.990   0.210  0.00  0.00     0.056 A 
ATOM      4  C   UNL d   1      -0.445   1.220   0.155  0.00  0.00     0.104 A 
ATOM      5  C   UNL d   1      -0.815  -1.158   0.003  0.00  0.00     0.033 A 
ATOM      6  C   UNL d   1      -1.323   0.149   0.061  0.00  0.00     0.038 A 
ENDROOT
BRANCH   2   7
ATOM      7  N   UNL d   1       1.010  -2.770  -0.108  0.00  0.00    -0.380 N 
ATOM      8  C   UNL d   1       0.176  -3.839  -0.688  0.00  0.00     0.123 C 
ATOM      9  C   UNL d   1       0.116  -4.912   0.392  0.00  0.00     0.021 C 
ATOM     10  C   UNL d   1       1.502  -4.838   0.995  0.00  0.00     0.021 C 
ATOM     11  C   UNL d   1       1.818  -3.341   0.992  0.00  0.00     0.123 C 
ENDBRANCH   2   7
BRANCH   1  12
ATOM     12  C   UNL d   1       2.914  -0.416   0.255  0.00  0.00     0.295 C 
ATOM     13  O   UNL d   1       3.518  -1.036   1.116  0.00  0.00    -0.259 OA
BRANCH  12  14
ATOM     14  O   UNL d   1       3.474   0.437  -0.644  0.00  0.00    -0.322 OA
ATOM     15  C   UNL d   1       4.887   0.598  -0.483  0.00  0.00     0.213 C 
ENDBRANCH  12  14
ENDBRANCH   1  12
BRANCH   4  16
ATOM     16  N   UNL d   1      -0.961   2.594   0.212  0.00  0.00    -0.116 N 
ATOM     17  O   UNL d   1      -0.138   3.514   0.308  0.00  0.00    -0.532 OA
ATOM     18  O   UNL d   1      -2.189   2.750   0.163  0.00  0.00    -0.532 OA
ENDBRANCH   4  16
TORSDOF 4
