REMARK  6 active torsions:
REMARK  status: ('A' for Active; 'I' for Inactive)
REMARK    1  A    between atoms: C_6  and  C_1 
REMARK    2  A    between atoms: O_7  and  C_2 
REMARK       I    between atoms: C_3  and  N_4 
REMARK    3  A    between atoms: C_13  and  C_3 
REMARK    4  A    between atoms: N_4  and  C_5 
REMARK    5  A    between atoms: O_20  and  C_6 
REMARK    6  A    between atoms: C_9  and  O_7 
ROOT
ATOM      1  C   UNL d   1       3.294   3.415  -1.015  0.00  0.00     0.070 A 
ATOM      2  C   UNL d   1       2.394   2.799  -0.126  0.00  0.00     0.102 A 
ATOM      3  C   UNL d   1       3.527   4.793  -0.899  0.00  0.00     0.056 A 
ATOM      4  C   UNL d   1       1.828   3.540   0.923  0.00  0.00     0.041 A 
ATOM      5  C   UNL d   1       2.959   5.519   0.148  0.00  0.00     0.036 A 
ATOM      6  C   UNL d   1       2.133   4.892   1.076  0.00  0.00     0.026 A 
ATOM      7 CL   UNL d   1       3.276   7.204   0.286  0.00  0.00    -0.084 Cl
ENDROOT
BRANCH   2   8
ATOM      8  O   UNL d   1       1.897   1.551  -0.431  0.00  0.00    -0.307 OA
BRANCH   8   9
ATOM      9  C   UNL d   1       1.737   0.571   0.494  0.00  0.00     0.099 A 
ATOM     10  C   UNL d   1       0.887  -0.498   0.265  0.00  0.00     0.114 A 
ATOM     11  S   UNL d   1       0.934  -1.608   1.583  0.00  0.00    -0.093 SA
ATOM     12  C   UNL d   1       2.114  -0.696   2.411  0.00  0.00     0.053 A 
ATOM     13  C   UNL d   1       2.463   0.439   1.719  0.00  0.00     0.046 A 
BRANCH  10  14
ATOM     14  C   UNL d   1       0.014  -0.817  -0.854  0.00  0.00     0.302 C 
ATOM     15  O   UNL d   1      -0.612  -1.863  -1.001  0.00  0.00    -0.259 OA
BRANCH  14  16
ATOM     16  O   UNL d   1      -0.039   0.213  -1.746  0.00  0.00    -0.322 OA
ATOM     17  C   UNL d   1      -0.887  -0.029  -2.872  0.00  0.00     0.213 C 
ENDBRANCH  14  16
ENDBRANCH  10  14
ENDBRANCH   8   9
ENDBRANCH   2   8
BRANCH   1  18
ATOM     18  N   UNL d   1       3.984   2.751  -2.056  0.00  0.00    -0.322 N 
ATOM     19  C   UNL d   1       4.427   1.433  -2.030  0.00  0.00     0.255 C 
ATOM     20  O   UNL d   1       4.343   0.688  -1.052  0.00  0.00    -0.270 OA
ATOM     21  H   UNL d   1       4.412   3.337  -2.767  0.00  0.00     0.169 HD
BRANCH  19  22
ATOM     22  C   UNL d   1       5.191   0.968  -3.273  0.00  0.00     0.270 C 
ATOM     23 CL   UNL d   1       4.805   1.945  -4.710  0.00  0.00    -0.098 Cl
ATOM     24 CL   UNL d   1       6.932   1.075  -2.925  0.00  0.00    -0.098 Cl
ENDBRANCH  19  22
ENDBRANCH   1  18
TORSDOF 6
