REMARK  3 active torsions:
REMARK  status: ('A' for Active; 'I' for Inactive)
REMARK    1  A    between atoms: N_3  and  C_1 
REMARK    2  A    between atoms: C_9  and  N_2 
REMARK       I    between atoms: C_7  and  N_3 
REMARK       I    between atoms: N_10  and  C_7 
REMARK    3  A    between atoms: C_12  and  N_10 
ROOT
ATOM      1  N   UNL d   1      -0.831  -2.348   0.063  0.00  0.00    -0.293 N 
ATOM      2  C   UNL d   1      -1.673  -2.986   0.970  0.00  0.00     0.326 C 
ATOM      3  N   UNL d   1      -2.051  -4.208   0.426  0.00  0.00    -0.309 N 
ATOM      4  O   UNL d   1      -1.964  -2.567   2.078  0.00  0.00    -0.247 OA
ATOM      5  H   UNL d   1      -0.352  -2.962  -0.573  0.00  0.00     0.172 HD
ATOM      6  H   UNL d   1      -2.045  -4.249  -0.580  0.00  0.00     0.170 HD
ENDROOT
BRANCH   1   7
ATOM      7  C   UNL d   1      -0.266  -1.117   0.326  0.00  0.00     0.128 C 
ATOM      8  N   UNL d   1       1.046  -0.780   0.060  0.00  0.00    -0.267 N 
ATOM      9  N   UNL d   1       1.230   0.563   0.079  0.00  0.00    -0.301 N 
ATOM     10  C   UNL d   1       0.095   1.049   0.591  0.00  0.00     0.025 C 
ATOM     11  HN  UNL d   1       2.050   1.085  -0.229  1.00  0.00     0.187 HD
ATOM     12  C   UNL d   1      -0.843   0.024   0.837  0.00  0.00     0.076 C 
ATOM     13  C   UNL d   1      -0.064   2.510   0.778  0.00  0.00     0.070 C 
BRANCH   8  14
ATOM     14  C   UNL d   1       2.242  -1.636  -0.099  0.00  0.00     0.044 C 
ATOM     15  C   UNL d   1       2.038  -3.113   0.309  0.00  0.00     0.039 C 
ATOM     16  C   UNL d   1       2.700  -1.593  -1.566  0.00  0.00     0.039 C 
ATOM     17  C   UNL d   1       3.379  -1.105   0.811  0.00  0.00     0.039 C 
ENDBRANCH   8  14
ENDBRANCH   1   7
BRANCH   3  18
ATOM     18  C   UNL d   1      -2.556  -5.338   1.095  0.00  0.00     0.036 A 
ATOM     19  C   UNL d   1      -2.643  -5.445   2.483  0.00  0.00     0.029 A 
ATOM     20  C   UNL d   1      -3.090  -6.635   3.070  0.00  0.00     0.002 A 
ATOM     21  C   UNL d   1      -3.447  -7.722   2.274  0.00  0.00     0.000 A 
ATOM     22  C   UNL d   1      -3.365  -7.622   0.889  0.00  0.00     0.002 A 
ATOM     23  C   UNL d   1      -2.923  -6.434   0.302  0.00  0.00     0.029 A 
ENDBRANCH   3  18
TORSDOF 3
