REMARK  6 active torsions:
REMARK  status: ('A' for Active; 'I' for Inactive)
REMARK    1  A    between atoms: S_9  and  C_1 
REMARK    2  A    between atoms: C_2  and  C_8 
REMARK    3  A    between atoms: C_3  and  C_10 
REMARK       I    between atoms: C_6  and  N_7 
REMARK    4  A    between atoms: C_11  and  C_6 
REMARK    5  A    between atoms: N_7  and  C_12 
REMARK    6  A    between atoms: C_13  and  S_9 
ROOT
ATOM      1  C   UNL d   1      -2.262   3.090   0.647  0.00  0.00     0.052 C 
ATOM      2  C   UNL d   1      -1.791   3.263  -0.668  0.00  0.00     0.035 C 
ATOM      3  C   UNL d   1      -3.356   3.873   1.080  0.00  0.00     0.031 C 
ATOM      4  C   UNL d   1      -2.310   4.338  -1.426  0.00  0.00     0.021 C 
ATOM      5  C   UNL d   1      -3.332   5.157  -0.947  0.00  0.00     0.002 C 
ATOM      6  C   UNL d   1      -3.884   4.897   0.295  0.00  0.00     0.002 C 
ENDROOT
BRANCH   1   7
ATOM      7  N   UNL d   1      -1.745   2.238   1.658  0.00  0.00    -0.322 N 
ATOM      8  C   UNL d   1      -0.425   1.885   1.859  0.00  0.00     0.256 C 
ATOM      9  O   UNL d   1       0.531   2.140   1.137  0.00  0.00    -0.267 OA
ATOM     10  H   UNL d   1      -2.324   2.195   2.487  0.00  0.00     0.169 HD
BRANCH   8  11
ATOM     11  C   UNL d   1      -0.144   1.272   3.195  0.00  0.00     0.033 A 
ATOM     12  C   UNL d   1      -1.103   0.526   3.899  0.00  0.00     0.033 A 
ATOM     13  C   UNL d   1      -0.861   0.129   5.226  0.00  0.00     0.048 A 
ATOM     14  C   UNL d   1       0.371   0.450   5.820  0.00  0.00     0.016 A 
ATOM     15  C   UNL d   1       1.349   1.137   5.101  0.00  0.00     0.002 A 
ATOM     16  C   UNL d   1       1.092   1.545   3.793  0.00  0.00     0.017 A 
BRANCH  13  17
ATOM     17  C   UNL d   1      -1.914  -0.594   6.030  0.00  0.00     0.417 C 
ATOM     18  F   UNL d   1      -3.055  -0.836   5.325  0.00  0.00    -0.166 F 
ATOM     19  F   UNL d   1      -1.492  -1.802   6.488  0.00  0.00    -0.166 F 
ATOM     20  F   UNL d   1      -2.301   0.114   7.127  0.00  0.00    -0.166 F 
ENDBRANCH  13  17
ENDBRANCH   8  11
ENDBRANCH   1   7
BRANCH   2  21
ATOM     21  S   UNL d   1      -0.638   2.263  -1.593  0.00  0.00    -0.052 SA
BRANCH  21  22
ATOM     22  C   UNL d   1      -1.009   0.581  -1.181  0.00  0.00     0.149 A 
ATOM     23  N   UNL d   1       0.025  -0.271  -1.296  0.00  0.00    -0.333 N 
ATOM     24  C   UNL d   1      -0.184  -1.573  -0.997  0.00  0.00     0.119 A 
ATOM     25  HN  UNL d   1       0.942   0.057  -1.599  1.00  0.00     0.168 HD
ATOM     26  C   UNL d   1      -1.431  -2.039  -0.626  0.00  0.00     0.051 A 
ATOM     27  C   UNL d   1      -2.436  -1.099  -0.573  0.00  0.00     0.092 A 
ATOM     28  N   UNL d   1      -2.255   0.205  -0.846  0.00  0.00    -0.346 N 
ATOM     29  HN  UNL d   1      -3.024   0.874  -0.800  1.00  0.00     0.167 HD
BRANCH  24  30
ATOM     30  C   UNL d   1       0.993  -2.531  -1.042  0.00  0.00     0.432 C 
ATOM     31  F   UNL d   1       2.170  -1.968  -1.435  0.00  0.00    -0.165 F 
ATOM     32  F   UNL d   1       1.239  -3.098   0.176  0.00  0.00    -0.165 F 
ATOM     33  F   UNL d   1       0.780  -3.579  -1.892  0.00  0.00    -0.165 F 
ENDBRANCH  24  30
ENDBRANCH  21  22
ENDBRANCH   2  21
TORSDOF 6
