REMARK  4 active torsions:
REMARK  status: ('A' for Active; 'I' for Inactive)
REMARK    1  A    between atoms: C_2  and  N_1 
REMARK    2  A    between atoms: N_8  and  C_5 
REMARK    3  A    between atoms: N_6  and  N_8 
REMARK    4  A    between atoms: C_15  and  C_12 
ROOT
ATOM      1  N   UNL d   1      -1.774   4.383  -1.898  0.00  0.00    -0.281 N 
ATOM      2  C   UNL d   1      -1.530   4.789  -3.288  0.00  0.00     0.179 C 
ENDROOT
BRANCH   1   3
ATOM      3  N   UNL d   1      -3.022   4.611  -1.364  0.00  0.00    -0.308 N 
ATOM      4  C   UNL d   1      -3.318   5.871  -1.245  0.00  0.00     0.118 C 
ATOM      5  HN  UNL d   1      -3.657   3.862  -1.089  1.00  0.00     0.186 HD
BRANCH   4   6
ATOM      6  C   UNL d   1      -4.614   6.344  -0.720  0.00  0.00    -0.019 A 
ATOM      7  C   UNL d   1      -5.571   5.443  -0.251  0.00  0.00     0.014 A 
ATOM      8  C   UNL d   1      -6.782   5.920   0.259  0.00  0.00     0.024 A 
ATOM      9  C   UNL d   1      -7.029   7.293   0.291  0.00  0.00     0.034 A 
ATOM     10  C   UNL d   1      -6.079   8.195  -0.189  0.00  0.00     0.024 A 
ATOM     11 CL   UNL d   1      -8.516   7.878   0.929  0.00  0.00    -0.084 Cl
ATOM     12  C   UNL d   1      -4.867   7.722  -0.696  0.00  0.00     0.014 A 
ENDBRANCH   4   6
ENDBRANCH   1   3
BRANCH   1  13
ATOM     13  C   UNL d   1      -1.107   3.164  -1.585  0.00  0.00     0.121 A 
ATOM     14  C   UNL d   1      -1.535   2.361  -0.520  0.00  0.00     0.052 A 
ATOM     15  C   UNL d   1      -0.853   1.181  -0.205  0.00  0.00     0.041 A 
ATOM     16  C   UNL d   1       0.264   0.832  -0.959  0.00  0.00     0.118 A 
ATOM     17  C   UNL d   1       0.649   1.664  -1.992  0.00  0.00     0.125 A 
ATOM     18  N   UNL d   1      -0.010   2.807  -2.309  0.00  0.00    -0.349 N 
ATOM     19  HN  UNL d   1       0.311   3.390  -3.081  1.00  0.00     0.167 HD
BRANCH  16  20
ATOM     20  N   UNL d   1       1.026  -0.374  -0.678  0.00  0.00    -0.114 N 
ATOM     21  O   UNL d   1       2.023  -0.602  -1.381  0.00  0.00    -0.532 OA
ATOM     22  O   UNL d   1       0.637  -1.102   0.245  0.00  0.00    -0.532 OA
ENDBRANCH  16  20
ENDBRANCH   1  13
TORSDOF 4
