REMARK  3 active torsions:
REMARK  status: ('A' for Active; 'I' for Inactive)
REMARK    1  A    between atoms: C_2  and  C_1 
REMARK    2  A    between atoms: C_14  and  C_8 
REMARK    3  A    between atoms: O_20  and  C_17 
ROOT
ATOM      1  C   UNL d   1      -0.291  -1.067  -0.009  0.00  0.00     0.179 A 
ATOM      2  O   UNL d   1      -1.102   0.024  -0.217  0.00  0.00    -0.272 OA
ATOM      3  N   UNL d   1       0.949  -0.711   0.268  0.00  0.00    -0.277 N 
ATOM      4  HN  UNL d   1       1.735  -1.337   0.445  1.00  0.00     0.189 HD
ATOM      5  N   UNL d   1       0.982   0.663   0.273  0.00  0.00    -0.277 N 
ATOM      6  HN  UNL d   1       1.795   1.254   0.448  1.00  0.00     0.189 HD
ATOM      7  C   UNL d   1      -0.243   1.067   0.008  0.00  0.00     0.174 A 
ENDROOT
BRANCH   1   8
ATOM      8  C   UNL d   1      -0.750  -2.471  -0.052  0.00  0.00     0.072 A 
ATOM      9  C   UNL d   1      -2.004  -2.918  -0.386  0.00  0.00     0.089 A 
ATOM     10  O   UNL d   1      -2.027  -4.275  -0.283  0.00  0.00    -0.242 OA
ATOM     11  C   UNL d   1      -3.257  -2.276  -0.826  0.00  0.00     0.080 C 
ATOM     12  N   UNL d   1      -0.788  -4.732   0.127  0.00  0.00    -0.265 N 
ATOM     13  C   UNL d   1      -0.021  -3.642   0.266  0.00  0.00     0.045 A 
ATOM     14  HN  UNL d   1      -0.514  -5.701   0.291  1.00  0.00     0.194 HD
ATOM     15  C   UNL d   1       1.384  -3.767   0.716  0.00  0.00     0.071 C 
ENDBRANCH   1   8
BRANCH   7  16
ATOM     16  C   UNL d   1      -0.801   2.413   0.017  0.00  0.00     0.017 A 
ATOM     17  C   UNL d   1      -2.155   2.662  -0.246  0.00  0.00     0.018 A 
ATOM     18  C   UNL d   1      -2.683   3.958  -0.140  0.00  0.00     0.037 A 
ATOM     19  C   UNL d   1      -1.861   5.020   0.226  0.00  0.00     0.068 A 
ATOM     20  C   UNL d   1      -0.508   4.782   0.474  0.00  0.00     0.037 A 
ATOM     21  C   UNL d   1       0.020   3.495   0.363  0.00  0.00     0.018 A 
BRANCH  19  22
ATOM     22  O   UNL d   1      -2.264   6.311   0.421  0.00  0.00    -0.356 OA
ATOM     23  C   UNL d   1      -3.416   6.721  -0.306  0.00  0.00     0.210 C 
ENDBRANCH  19  22
ENDBRANCH   7  16
TORSDOF 3
