REMARK  6 active torsions:
REMARK  status: ('A' for Active; 'I' for Inactive)
REMARK    1  A    between atoms: C_18  and  C_2 
REMARK    2  A    between atoms: C_7  and  C_14 
REMARK       I    between atoms: N_12  and  C_7 
REMARK    3  A    between atoms: N_17  and  N_12 
REMARK    4  A    between atoms: O_15  and  C_13 
REMARK    5  A    between atoms: C_14  and  O_15 
REMARK    6  A    between atoms: C_19  and  C_18 
ROOT
ATOM      1  C   UNL d   1       0.328   0.590  -0.046  0.00  0.00     0.092 A 
ATOM      2  C   UNL d   1      -0.539  -1.723  -0.022  0.00  0.00    -0.039 A 
ATOM      3  O   UNL d   1      -0.993   1.084  -0.073  0.00  0.00    -0.275 OA
ATOM      4  C   UNL d   1      -2.077   0.225  -0.040  0.00  0.00     0.288 A 
ATOM      5  C   UNL d   1       0.592  -0.781   0.004  0.00  0.00     0.004 A 
ATOM      6  C   UNL d   1      -1.781  -1.215  -0.047  0.00  0.00     0.090 A 
ATOM      7  C   UNL d   1       1.339   1.558  -0.057  0.00  0.00     0.075 A 
ATOM      8  C   UNL d   1       1.933  -1.171   0.074  0.00  0.00     0.017 A 
ATOM      9  O   UNL d   1      -3.234   0.628  -0.023  0.00  0.00    -0.260 OA
ATOM     10  C   UNL d   1       2.666   1.149  -0.002  0.00  0.00     0.072 A 
ATOM     11  C   UNL d   1       2.957  -0.214   0.079  0.00  0.00     0.038 A 
ENDROOT
BRANCH  10  12
ATOM     12  O   UNL d   1       3.750   1.979   0.041  0.00  0.00    -0.342 OA
BRANCH  12  13
ATOM     13  C   UNL d   1       3.610   3.233  -0.628  0.00  0.00     0.279 C 
BRANCH  13  14
ATOM     14  C   UNL d   1       4.923   4.014  -0.589  0.00  0.00     0.255 C 
ATOM     15  O   UNL d   1       5.071   5.094  -1.157  0.00  0.00    -0.270 OA
ATOM     16  N   UNL d   1       5.932   3.396   0.140  0.00  0.00    -0.292 N 
ATOM     17  H   UNL d   1       5.688   2.590   0.717  0.00  0.00     0.183 HD
BRANCH  16  18
ATOM     18  N   UNL d   1       7.173   4.041   0.317  0.00  0.00    -0.247 NA
ATOM     19  H   UNL d   1       7.082   4.984  -0.087  0.00  0.00     0.143 HD
ATOM     20  H   UNL d   1       7.856   3.577  -0.286  0.00  0.00     0.143 HD
ENDBRANCH  16  18
ENDBRANCH  13  14
ENDBRANCH  12  13
ENDBRANCH  10  12
BRANCH   2  21
ATOM     21  C   UNL d   1      -0.319  -3.217  -0.082  0.00  0.00     0.039 C 
BRANCH  21  22
ATOM     22  C   UNL d   1      -0.208  -3.859   1.304  0.00  0.00     0.000 C 
ATOM     23  C   UNL d   1       0.040  -5.357   1.203  0.00  0.00     0.005 C 
ENDBRANCH  21  22
ENDBRANCH   2  21
TORSDOF 6
