REMARK  6 active torsions:
REMARK  status: ('A' for Active; 'I' for Inactive)
REMARK    1  A    between atoms: C_3  and  C_1 
REMARK    2  A    between atoms: N_2  and  C_4 
REMARK    3  A    between atoms: C_9  and  N_7 
REMARK    4  A    between atoms: C_10  and  C_9 
REMARK    5  A    between atoms: C_18  and  C_10 
REMARK    6  A    between atoms: O_21  and  C_10 
ROOT
ATOM      1  N   UNL d   1      -0.826  -4.814  -2.266  0.00  0.00    -0.364 N 
ATOM      2  N   UNL d   1      -0.308  -7.677  -2.862  0.00  0.00     0.094 N 
ATOM      3  C   UNL d   1      -1.007  -5.845  -1.231  0.00  0.00     0.154 C 
ATOM      4  C   UNL d   1      -0.706  -5.274  -3.663  0.00  0.00     0.154 C 
ATOM      5  C   UNL d   1      -0.166  -7.112  -1.493  0.00  0.00     0.292 C 
ATOM      6  C   UNL d   1       0.085  -6.599  -3.799  0.00  0.00     0.292 C 
ENDROOT
BRANCH   1   7
ATOM      7  C   UNL d   1      -0.090  -3.690  -1.913  0.00  0.00     0.103 A 
ATOM      8  C   UNL d   1      -0.295  -2.494  -2.602  0.00  0.00     0.049 A 
ATOM      9  C   UNL d   1       0.406  -1.346  -2.238  0.00  0.00     0.021 A 
ATOM     10  C   UNL d   1       1.315  -1.406  -1.184  0.00  0.00     0.063 A 
ATOM     11  C   UNL d   1       1.452  -2.623  -0.539  0.00  0.00     0.106 A 
ATOM     12  N   UNL d   1       0.772  -3.745  -0.876  0.00  0.00    -0.352 N 
ATOM     13  HN  UNL d   1       0.907  -4.613  -0.356  1.00  0.00     0.166 HD
BRANCH  10  14
ATOM     14  C   UNL d   1       2.110  -0.211  -0.767  0.00  0.00     0.418 C 
ATOM     15  F   UNL d   1       2.962  -0.452   0.267  0.00  0.00    -0.166 F 
ATOM     16  F   UNL d   1       1.324   0.828  -0.369  0.00  0.00    -0.166 F 
ATOM     17  F   UNL d   1       2.882   0.276  -1.778  0.00  0.00    -0.166 F 
ENDBRANCH  10  14
ENDBRANCH   1   7
BRANCH   2  18
ATOM     18  C   UNL d   1      -1.695  -8.143  -3.084  0.00  0.00     0.309 C 
BRANCH  18  19
ATOM     19  C   UNL d   1      -2.018  -8.850  -4.428  0.00  0.00     0.179 C 
BRANCH  19  20
ATOM     20  C   UNL d   1      -1.377 -10.192  -4.716  0.00  0.00    -0.028 A 
ATOM     21  C   UNL d   1      -0.929 -11.056  -3.709  0.00  0.00     0.010 A 
ATOM     22  C   UNL d   1      -0.464 -12.338  -4.024  0.00  0.00     0.001 A 
ATOM     23  C   UNL d   1      -0.436 -12.767  -5.348  0.00  0.00     0.000 A 
ATOM     24  C   UNL d   1      -0.857 -11.915  -6.362  0.00  0.00     0.001 A 
ATOM     25  C   UNL d   1      -1.328 -10.636  -6.048  0.00  0.00     0.010 A 
ENDBRANCH  19  20
BRANCH  19  26
ATOM     26  O   UNL d   1      -3.443  -9.054  -4.455  0.00  0.00    -0.389 OA
ATOM     27  H   UNL d   1      -3.613  -9.888  -3.985  0.00  0.00     0.210 HD
ENDBRANCH  19  26
ENDBRANCH  18  19
ENDBRANCH   2  18
TORSDOF 6
