REMARK  4 active torsions:
REMARK  status: ('A' for Active; 'I' for Inactive)
REMARK    1  A    between atoms: C_18  and  N_3 
REMARK    2  A    between atoms: C_13  and  C_4 
REMARK    3  A    between atoms: C_15  and  C_5 
REMARK    4  A    between atoms: C_9  and  N_14 
REMARK       I    between atoms: N_14  and  C_13 
ROOT
ATOM      1  C   UNL d   1      -2.439   0.078  -0.221  0.00  0.00     0.277 C 
ATOM      2  N   UNL d   1      -2.914  -1.134  -0.664  0.00  0.00    -0.300 N 
ATOM      3  O   UNL d   1      -3.094   1.104  -0.082  0.00  0.00    -0.266 OA
ATOM      4  H   UNL d   1      -2.267  -1.910  -0.729  0.00  0.00     0.171 HD
ENDROOT
BRANCH   1   5
ATOM      5  C   UNL d   1      -1.003   0.047   0.079  0.00  0.00     0.141 A 
ATOM      6  N   UNL d   1      -0.219  -1.030  -0.158  0.00  0.00    -0.272 N 
ATOM      7  N   UNL d   1       1.014  -0.576   0.219  0.00  0.00    -0.196 N 
ATOM      8  HN  UNL d   1      -0.481  -1.945  -0.524  1.00  0.00     0.189 HD
ATOM      9  N   UNL d   1       1.052   0.679   0.735  0.00  0.00    -0.281 N 
ATOM     10  C   UNL d   1      -0.213   1.089   0.615  0.00  0.00     0.057 A 
ATOM     11  HN  UNL d   1       1.850   1.184   1.121  1.00  0.00     0.189 HD
ATOM     12  C   UNL d   1      -0.594   2.469   0.995  0.00  0.00     0.072 C 
BRANCH   7  13
ATOM     13  C   UNL d   1       2.204  -1.333   0.050  0.00  0.00     0.074 A 
ATOM     14  C   UNL d   1       2.174  -2.583  -0.583  0.00  0.00     0.033 A 
ATOM     15  C   UNL d   1       3.364  -3.290  -0.777  0.00  0.00     0.002 A 
ATOM     16  C   UNL d   1       4.578  -2.762  -0.334  0.00  0.00     0.000 A 
ATOM     17  C   UNL d   1       4.611  -1.525   0.306  0.00  0.00     0.002 A 
ATOM     18  C   UNL d   1       3.428  -0.809   0.497  0.00  0.00     0.033 A 
ENDBRANCH   7  13
ENDBRANCH   1   5
BRANCH   2  19
ATOM     19  C   UNL d   1      -4.197  -1.281  -1.106  0.00  0.00     0.168 A 
ATOM     20  S   UNL d   1      -4.584  -2.820  -1.728  0.00  0.00    -0.029 SA
ATOM     21  C   UNL d   1      -6.146  -2.187  -2.115  0.00  0.00     0.177 A 
ATOM     22  N   UNL d   1      -6.307  -0.930  -1.740  0.00  0.00    -0.288 N 
ATOM     23  N   UNL d   1      -5.172  -0.408  -1.153  0.00  0.00    -0.279 N 
ATOM     24  HN  UNL d   1      -7.172  -0.405  -1.869  1.00  0.00     0.187 HD
ATOM     25  HN  UNL d   1      -5.102   0.545  -0.797  1.00  0.00     0.189 HD
BRANCH  21  26
ATOM     26  C   UNL d   1      -7.158  -3.010  -2.838  0.00  0.00     0.440 C 
ATOM     27  F   UNL d   1      -6.900  -4.345  -2.777  0.00  0.00    -0.164 F 
ATOM     28  F   UNL d   1      -8.414  -2.844  -2.345  0.00  0.00    -0.164 F 
ATOM     29  F   UNL d   1      -7.213  -2.694  -4.160  0.00  0.00    -0.164 F 
ENDBRANCH  21  26
ENDBRANCH   2  19
TORSDOF 4
