REMARK  5 active torsions:
REMARK  status: ('A' for Active; 'I' for Inactive)
REMARK    1  A    between atoms: N_7  and  C_3 
REMARK    2  A    between atoms: C_8  and  C_6 
REMARK    3  A    between atoms: C_11  and  N_7 
REMARK    4  A    between atoms: C_9  and  C_8 
REMARK       I    between atoms: N_12  and  C_9 
REMARK    5  A    between atoms: C_10  and  N_12 
ROOT
ATOM      1  N   UNL d   1      -0.614  -1.553   0.232  0.00  0.00    -0.307 N 
ATOM      2  HN  UNL d   1      -1.107  -2.320   0.689  1.00  0.00     0.171 HD
ATOM      3  C   UNL d   1       0.517  -1.683  -0.369  0.00  0.00     0.143 C 
ATOM      4  C   UNL d   1      -1.082  -0.254   0.186  0.00  0.00     0.238 C 
ATOM      5  S   UNL d   1       1.207  -0.245  -1.076  0.00  0.00    -0.079 SA
ATOM      6  C   UNL d   1      -0.035   0.773  -0.223  0.00  0.00     0.156 C 
ATOM      7  O   UNL d   1      -2.229   0.075   0.468  0.00  0.00    -0.272 OA
ENDROOT
BRANCH   6   8
ATOM      8  C   UNL d   1      -0.605   1.821  -1.157  0.00  0.00     0.128 C 
BRANCH   8   9
ATOM      9  C   UNL d   1      -0.995   3.059  -0.380  0.00  0.00     0.223 C 
ATOM     10  N   UNL d   1      -2.274   3.014   0.133  0.00  0.00    -0.326 N 
ATOM     11  H   UNL d   1      -2.748   2.107   0.155  0.00  0.00     0.169 HD
ATOM     12  O   UNL d   1      -0.199   3.985  -0.261  0.00  0.00    -0.273 OA
BRANCH  10  13
ATOM     13  C   UNL d   1      -3.049   4.109   0.597  0.00  0.00     0.058 A 
ATOM     14  C   UNL d   1      -2.589   5.432   0.582  0.00  0.00     0.055 A 
ATOM     15  C   UNL d   1      -3.440   6.480   0.945  0.00  0.00     0.036 A 
ATOM     16 CL   UNL d   1      -2.870   8.104   0.887  0.00  0.00    -0.084 Cl
ATOM     17  C   UNL d   1      -4.754   6.231   1.333  0.00  0.00     0.026 A 
ATOM     18  C   UNL d   1      -5.217   4.918   1.381  0.00  0.00     0.028 A 
ATOM     19  C   UNL d   1      -4.370   3.865   1.021  0.00  0.00     0.060 A 
ATOM     20 CL   UNL d   1      -5.010   2.260   1.080  0.00  0.00    -0.082 Cl
ENDBRANCH  10  13
ENDBRANCH   8   9
ENDBRANCH   6   8
BRANCH   3  21
ATOM     21  N   UNL d   1       1.283  -2.784  -0.524  0.00  0.00    -0.365 N 
ATOM     22  H   UNL d   1       2.080  -2.700  -1.144  0.00  0.00     0.162 HD
BRANCH  21  23
ATOM     23  C   UNL d   1       1.102  -4.061   0.129  0.00  0.00     0.091 C 
ATOM     24  C   UNL d   1       0.463  -5.135  -0.793  0.00  0.00     0.031 C 
ATOM     25  C   UNL d   1       1.253  -5.234  -2.084  0.00  0.00    -0.024 C 
ATOM     26  C   UNL d   1       0.970  -6.419  -0.123  0.00  0.00     0.019 C 
ATOM     27  C   UNL d   1       2.448  -5.761  -1.776  0.00  0.00    -0.026 C 
ATOM     28  C   UNL d   1       2.445  -6.042  -0.291  0.00  0.00     0.010 C 
ATOM     29  C   UNL d   1       2.492  -4.695   0.461  0.00  0.00     0.034 C 
ENDBRANCH  21  23
ENDBRANCH   3  21
TORSDOF 5
