REMARK  5 active torsions:
REMARK  status: ('A' for Active; 'I' for Inactive)
REMARK    1  A    between atoms: N_5  and  C_14 
REMARK    2  A    between atoms: C_19  and  N_12 
REMARK    3  A    between atoms: C_14  and  C_16 
REMARK    4  A    between atoms: C_16  and  C_19 
REMARK    5  A    between atoms: O_26  and  C_16 
ROOT
ATOM      1  C   UNL d   1      -3.217   0.402  -0.334  0.00  0.00     0.148 A 
ATOM      2  N   UNL d   1      -2.570  -0.432   0.453  0.00  0.00    -0.336 N 
ATOM      3  HN  UNL d   1      -3.019  -1.019   1.156  1.00  0.00     0.168 HD
ATOM      4  S   UNL d   1      -2.173   1.303  -1.381  0.00  0.00    -0.052 SA
ATOM      5  N   UNL d   1      -4.576   0.503  -0.329  0.00  0.00    -0.358 N 
ATOM      6  C   UNL d   1      -0.797   0.470  -0.778  0.00  0.00     0.036 A 
ATOM      7  C   UNL d   1      -1.213  -0.418   0.210  0.00  0.00     0.051 A 
ATOM      8  N   UNL d   1      -7.437  -0.019  -0.821  0.00  0.00     0.094 N 
ATOM      9  C   UNL d   1       0.552   0.587  -1.153  0.00  0.00     0.045 A 
ATOM     10  C   UNL d   1      -5.348  -0.286   0.635  0.00  0.00     0.155 C 
ATOM     11  C   UNL d   1      -5.349   1.473  -1.106  0.00  0.00     0.155 C 
ATOM     12  C   UNL d   1      -0.252  -1.220   0.859  0.00  0.00     0.032 A 
ATOM     13  C   UNL d   1       1.482  -0.227  -0.499  0.00  0.00     0.035 A 
ATOM     14  C   UNL d   1      -6.594   0.790  -1.736  0.00  0.00     0.292 C 
ATOM     15  C   UNL d   1      -6.545  -0.954  -0.081  0.00  0.00     0.292 C 
ATOM     16  C   UNL d   1       1.095  -1.118   0.494  0.00  0.00     0.026 A 
ATOM     17 CL   UNL d   1       3.145  -0.124  -0.940  0.00  0.00    -0.084 Cl
ENDROOT
BRANCH   8  18
ATOM     18  C   UNL d   1      -8.218   0.796   0.122  0.00  0.00     0.305 C 
BRANCH  18  19
ATOM     19  C   UNL d   1      -9.372   1.634  -0.478  0.00  0.00     0.164 C 
BRANCH  19  20
ATOM     20  C   UNL d   1     -10.323   0.774  -1.324  0.00  0.00     0.162 C 
BRANCH  20  21
ATOM     21  N   UNL d   1     -11.521   1.476  -1.767  0.00  0.00    -0.354 N 
ATOM     22  C   UNL d   1     -12.755   1.316  -1.184  0.00  0.00     0.092 A 
ATOM     23  C   UNL d   1     -13.670   2.031  -1.920  0.00  0.00     0.031 A 
ATOM     24  C   UNL d   1     -12.971   2.654  -2.989  0.00  0.00    -0.008 A 
ATOM     25  C   UNL d   1     -11.621   2.309  -2.864  0.00  0.00     0.044 A 
ATOM     26  C   UNL d   1     -13.374   3.483  -4.055  0.00  0.00     0.014 A 
ATOM     27  C   UNL d   1     -10.652   2.787  -3.762  0.00  0.00     0.030 A 
ATOM     28  C   UNL d   1     -11.076   3.618  -4.806  0.00  0.00     0.002 A 
ATOM     29  C   UNL d   1     -12.417   3.956  -4.957  0.00  0.00     0.001 A 
ENDBRANCH  20  21
ENDBRANCH  19  20
BRANCH  19  30
ATOM     30  O   UNL d   1     -10.054   2.249   0.628  0.00  0.00    -0.392 OA
ATOM     31  H   UNL d   1     -10.632   1.585   1.042  0.00  0.00     0.210 HD
ENDBRANCH  19  30
ENDBRANCH  18  19
ENDBRANCH   8  18
TORSDOF 5
