REMARK  11 active torsions:
REMARK  status: ('A' for Active; 'I' for Inactive)
REMARK    1  A    between atoms: C_19  and  N_1 
REMARK    2  A    between atoms: C_13  and  C_2 
REMARK    3  A    between atoms: S_12  and  C_5 
REMARK       I    between atoms: C_8  and  N_10 
REMARK    4  A    between atoms: C_9  and  C_8 
REMARK    5  A    between atoms: N_10  and  N_14 
REMARK    6  A    between atoms: C_11  and  C_20 
REMARK       I    between atoms: N_14  and  C_11 
REMARK    7  A    between atoms: C_20  and  S_12 
REMARK    8  A    between atoms: C_16  and  C_17 
REMARK    9  A    between atoms: C_28  and  C_19 
REMARK   10  A    between atoms: C_33  and  C_28 
REMARK   11  A    between atoms: O_29  and  C_33 
ROOT
ATOM      1  N   UNL d   1      -0.229  -1.222   0.014  0.00  0.00    -0.311 N 
ATOM      2  C   UNL d   1       1.018  -0.612  -0.053  0.00  0.00     0.134 A 
ATOM      3  N   UNL d   1       0.834   0.697   0.012  0.00  0.00    -0.283 N 
ATOM      4  HN  UNL d   1       1.574   1.397   0.052  1.00  0.00     0.188 HD
ATOM      5  C   UNL d   1      -1.131  -0.184   0.016  0.00  0.00     0.163 A 
ATOM      6  N   UNL d   1      -0.495   0.957   0.017  0.00  0.00    -0.278 N 
ATOM      7  HN  UNL d   1      -0.924   1.883   0.021  1.00  0.00     0.189 HD
ENDROOT
BRANCH   5   8
ATOM      8  S   UNL d   1      -2.844  -0.275  -0.141  0.00  0.00    -0.083 SA
BRANCH   8   9
ATOM      9  C   UNL d   1      -3.479   0.476   1.376  0.00  0.00     0.186 C 
BRANCH   9  10
ATOM     10  C   UNL d   1      -3.306   1.973   1.588  0.00  0.00     0.245 C 
ATOM     11  N   UNL d   1      -2.054   2.516   1.460  0.00  0.00    -0.267 N 
ATOM     12  H   UNL d   1      -1.257   2.024   1.037  0.00  0.00     0.190 HD
ATOM     13  O   UNL d   1      -4.245   2.668   2.016  0.00  0.00    -0.271 OA
BRANCH  11  14
ATOM     14  N   UNL d   1      -1.848   3.872   1.752  0.00  0.00    -0.264 N 
ATOM     15  C   UNL d   1      -0.574   4.285   2.132  0.00  0.00     0.290 C 
ATOM     16  O   UNL d   1       0.372   3.484   2.136  0.00  0.00    -0.267 OA
ATOM     17  H   UNL d   1      -2.688   4.427   1.937  0.00  0.00     0.190 HD
BRANCH  15  18
ATOM     18  C   UNL d   1      -0.410   5.767   2.524  0.00  0.00     0.271 C 
ATOM     19 CL   UNL d   1      -1.954   6.666   2.441  0.00  0.00    -0.073 Cl
ATOM     20 CL   UNL d   1       0.204   5.834   4.199  0.00  0.00    -0.073 Cl
ATOM     21 CL   UNL d   1       0.763   6.524   1.413  0.00  0.00    -0.073 Cl
ENDBRANCH  15  18
ENDBRANCH  11  14
ENDBRANCH   9  10
ENDBRANCH   8   9
ENDBRANCH   5   8
BRANCH   1  22
ATOM     22  C   UNL d   1      -0.527  -2.639   0.041  0.00  0.00     0.135 C 
BRANCH  22  23
ATOM     23  C   UNL d   1       0.064  -3.439   1.212  0.00  0.00     0.046 C 
BRANCH  23  24
ATOM     24  C   UNL d   1      -0.491  -3.042   2.573  0.00  0.00     0.168 C 
BRANCH  24  25
ATOM     25  O   UNL d   1      -1.908  -3.187   2.544  0.00  0.00    -0.396 OA
ATOM     26  C   UNL d   1      -2.488  -2.926   3.814  0.00  0.00     0.201 C 
ENDBRANCH  24  25
ENDBRANCH  23  24
ENDBRANCH  22  23
ENDBRANCH   1  22
BRANCH   2  27
ATOM     27  C   UNL d   1       2.355  -1.210  -0.105  0.00  0.00     0.009 A 
ATOM     28  C   UNL d   1       2.661  -2.396  -0.775  0.00  0.00     0.016 A 
ATOM     29  C   UNL d   1       3.952  -2.938  -0.716  0.00  0.00     0.009 A 
ATOM     30  C   UNL d   1       4.994  -2.293  -0.026  0.00  0.00    -0.051 A 
ATOM     31  C   UNL d   1       4.700  -1.055   0.560  0.00  0.00     0.009 A 
ATOM     32  C   UNL d   1       3.406  -0.530   0.524  0.00  0.00     0.016 A 
BRANCH  30  33
ATOM     33  C   UNL d   1       6.378  -2.952   0.093  0.00  0.00    -0.024 C 
ATOM     34  C   UNL d   1       7.410  -2.082   0.845  0.00  0.00     0.019 C 
ATOM     35  C   UNL d   1       6.237  -4.276   0.875  0.00  0.00     0.019 C 
ATOM     36  C   UNL d   1       6.961  -3.250  -1.304  0.00  0.00     0.019 C 
ENDBRANCH  30  33
ENDBRANCH   2  27
TORSDOF 11
