REMARK  6 active torsions:
REMARK  status: ('A' for Active; 'I' for Inactive)
REMARK    1  A    between atoms: C_10  and  C_1 
REMARK    2  A    between atoms: N_7  and  N_2 
REMARK    3  A    between atoms: O_21  and  C_10 
REMARK    4  A    between atoms: C_11  and  C_14 
REMARK    5  A    between atoms: O_22  and  C_13 
REMARK    6  A    between atoms: C_26  and  O_21 
ROOT
ATOM      1  C   UNL d   1       2.400  -0.685   0.054  0.00  0.00     0.207 C 
ATOM      2  N   UNL d   1       2.416   0.707   0.034  0.00  0.00    -0.197 N 
ATOM      3  N   UNL d   1       1.319  -1.407  -0.011  0.00  0.00    -0.335 N 
ATOM      4  HN  UNL d   1       1.369  -2.426  -0.030  1.00  0.00     0.168 HD
ATOM      5  C   UNL d   1       1.216   1.428   0.110  0.00  0.00     0.280 C 
ATOM      6  C   UNL d   1      -0.021   0.640  -0.007  0.00  0.00     0.060 A 
ATOM      7  C   UNL d   1       0.084  -0.747  -0.054  0.00  0.00     0.049 A 
ATOM      8  O   UNL d   1       1.115   2.641   0.313  0.00  0.00    -0.265 OA
ATOM      9  C   UNL d   1      -1.271   1.276  -0.020  0.00  0.00     0.019 A 
ATOM     10  C   UNL d   1      -1.088  -1.503  -0.093  0.00  0.00     0.030 A 
ATOM     11  C   UNL d   1      -2.432   0.510  -0.070  0.00  0.00     0.001 A 
ATOM     12  C   UNL d   1      -2.341  -0.881  -0.102  0.00  0.00     0.002 A 
ENDROOT
BRANCH   2  13
ATOM     13  N   UNL d   1       3.628   1.368   0.219  0.00  0.00    -0.300 N 
ATOM     14  C   UNL d   1       3.757   2.511  -0.386  0.00  0.00     0.122 C 
ATOM     15  HN  UNL d   1       4.372   0.976   0.796  1.00  0.00     0.186 HD
BRANCH  14  16
ATOM     16  C   UNL d   1       4.925   3.388  -0.163  0.00  0.00     0.017 A 
ATOM     17  C   UNL d   1       5.022   4.612  -0.833  0.00  0.00     0.099 A 
ATOM     18  C   UNL d   1       6.109   5.456  -0.578  0.00  0.00     0.069 A 
ATOM     19 CL   UNL d   1       6.236   6.978  -1.382  0.00  0.00    -0.081 Cl
ATOM     20  C   UNL d   1       7.097   5.084   0.331  0.00  0.00     0.050 A 
ATOM     21  C   UNL d   1       6.992   3.862   0.990  0.00  0.00     0.036 A 
ATOM     22  C   UNL d   1       5.912   3.014   0.754  0.00  0.00     0.039 A 
ATOM     23 CL   UNL d   1       8.208   3.394   2.114  0.00  0.00    -0.084 Cl
BRANCH  17  24
ATOM     24  O   UNL d   1       4.051   4.978  -1.728  0.00  0.00    -0.358 OA
ATOM     25  H   UNL d   1       4.254   5.881  -2.041  0.00  0.00     0.217 HD
ENDBRANCH  17  24
ENDBRANCH  14  16
ENDBRANCH   2  13
BRANCH   1  26
ATOM     26  C   UNL d   1       3.729  -1.422   0.218  0.00  0.00     0.329 C 
ATOM     27  O   UNL d   1       3.867  -2.277   1.079  0.00  0.00    -0.256 OA
BRANCH  26  28
ATOM     28  O   UNL d   1       4.666  -1.018  -0.666  0.00  0.00    -0.316 OA
BRANCH  28  29
ATOM     29  C   UNL d   1       5.969  -1.572  -0.428  0.00  0.00     0.175 C 
ATOM     30  C   UNL d   1       6.663  -0.851   0.719  0.00  0.00     0.034 C 
ENDBRANCH  28  29
ENDBRANCH  26  28
ENDBRANCH   1  26
TORSDOF 6
