REMARK  2 active torsions:
REMARK  status: ('A' for Active; 'I' for Inactive)
REMARK    1  A    between atoms: C_2  and  S_1 
REMARK    2  A    between atoms: C_5  and  S_1 
ROOT
ATOM      1  N   UNL d   1      -0.049   1.822  -3.028  0.00  0.00    -0.196 NA
ATOM      2  C   UNL d   1      -0.054  -0.253  -1.444  0.00  0.00     0.269 C 
ATOM      3  C   UNL d   1      -0.026   0.901  -2.323  0.00  0.00     0.074 C 
ENDROOT
BRANCH   2   4
ATOM      4  S   UNL d   1       1.083   0.039  -0.121  0.00  0.00     0.187 S 
ATOM      5  O   UNL d   1       0.916  -1.046   0.831  0.00  0.00    -0.222 OA
ATOM      6  O   UNL d   1       2.396   0.317  -0.671  0.00  0.00    -0.222 OA
BRANCH   4   7
ATOM      7  C   UNL d   1       0.530   1.516   0.711  0.00  0.00     0.061 A 
ATOM      8  C   UNL d   1      -0.366   1.410   1.779  0.00  0.00     0.049 A 
ATOM      9  C   UNL d   1      -0.725   2.555   2.498  0.00  0.00     0.057 A 
ATOM     10 CL   UNL d   1      -1.828   2.362   3.813  0.00  0.00    -0.083 Cl
ATOM     11  C   UNL d   1      -0.184   3.800   2.151  0.00  0.00     0.055 A 
ATOM     12  C   UNL d   1       0.723   3.893   1.089  0.00  0.00     0.027 A 
ATOM     13 CL   UNL d   1      -0.578   5.251   3.001  0.00  0.00    -0.083 Cl
ATOM     14  C   UNL d   1       1.089   2.751   0.372  0.00  0.00     0.025 A 
ENDBRANCH   4   7
ENDBRANCH   2   4
TORSDOF 2
