REMARK  3 active torsions:
REMARK  status: ('A' for Active; 'I' for Inactive)
REMARK    1  A    between atoms: C_9  and  C_3 
REMARK    2  A    between atoms: C_4  and  O_6 
REMARK       I    between atoms: N_13  and  C_4 
REMARK    3  A    between atoms: O_6  and  C_5 
ROOT
ATOM      1  N   UNL d   1       1.732   0.089  -0.113  0.00  0.00    -0.322 N 
ATOM      2  HN  UNL d   1       2.746   0.063  -0.008  1.00  0.00     0.169 HD
ATOM      3  C   UNL d   1       1.036   1.238  -0.004  0.00  0.00     0.117 A 
ATOM      4  C   UNL d   1       1.014  -1.025  -0.367  0.00  0.00     0.156 A 
ATOM      5  N   UNL d   1      -0.308   1.319  -0.059  0.00  0.00    -0.345 N 
ATOM      6  HN  UNL d   1      -0.791   2.205   0.087  1.00  0.00     0.167 HD
ATOM      7  C   UNL d   1      -0.354  -1.018  -0.523  0.00  0.00     0.081 A 
ATOM      8  C   UNL d   1      -0.986   0.186  -0.311  0.00  0.00     0.011 A 
ATOM      9  C   UNL d   1      -2.480   0.283  -0.363  0.00  0.00     0.068 C 
ENDROOT
BRANCH   3  10
ATOM     10  C   UNL d   1       1.775   2.518   0.035  0.00  0.00     0.010 A 
ATOM     11  C   UNL d   1       1.106   3.744   0.227  0.00  0.00     0.039 A 
ATOM     12  C   UNL d   1       1.773   4.971   0.119  0.00  0.00     0.041 A 
ATOM     13 CL   UNL d   1       0.847   6.416   0.325  0.00  0.00    -0.084 Cl
ATOM     14  C   UNL d   1       3.141   5.015  -0.176  0.00  0.00    -0.040 A 
ATOM     15  C   UNL d   1       3.830   3.805  -0.314  0.00  0.00     0.009 A 
ATOM     16  C   UNL d   1       3.873   6.314  -0.370  0.00  0.00     0.050 C 
ATOM     17  C   UNL d   1       3.158   2.579  -0.204  0.00  0.00     0.016 A 
ENDBRANCH   3  10
BRANCH   4  18
ATOM     18  O   UNL d   1       1.778  -2.223  -0.348  0.00  0.00    -0.244 OA
BRANCH  18  19
ATOM     19  C   UNL d   1       1.308  -3.487  -0.708  0.00  0.00     0.368 C 
ATOM     20  N   UNL d   1       2.184  -4.519  -0.391  0.00  0.00    -0.336 N 
ATOM     21  C   UNL d   1       1.749  -5.890  -0.593  0.00  0.00     0.154 C 
ATOM     22  C   UNL d   1       3.371  -4.326   0.423  0.00  0.00     0.154 C 
ATOM     23  O   UNL d   1       0.219  -3.692  -1.245  0.00  0.00    -0.238 OA
ENDBRANCH  18  19
ENDBRANCH   4  18
TORSDOF 3
