REMARK  4 active torsions:
REMARK  status: ('A' for Active; 'I' for Inactive)
REMARK    1  A    between atoms: N_3  and  C_1 
REMARK    2  A    between atoms: C_9  and  C_2 
REMARK    3  A    between atoms: C_10  and  C_6 
REMARK    4  A    between atoms: O_20  and  C_9 
ROOT
ATOM      1  C   UNL d   1       1.463   0.784  -0.008  0.00  0.00     0.070 A 
ATOM      2  C   UNL d   1       0.181   1.310   0.108  0.00  0.00     0.108 A 
ATOM      3  S   UNL d   1      -0.996   0.056   0.154  0.00  0.00    -0.081 SA
ATOM      4  C   UNL d   1       1.434  -0.643  -0.168  0.00  0.00     0.052 A 
ATOM      5  C   UNL d   1       0.172  -1.182  -0.024  0.00  0.00     0.025 A 
ENDROOT
BRANCH   1   6
ATOM      6  N   UNL d   1       2.638   1.527   0.005  0.00  0.00    -0.244 N 
ATOM      7  C   UNL d   1       3.658   1.382  -0.885  0.00  0.00     0.255 A 
ATOM      8  C   UNL d   1       4.694   2.348  -0.496  0.00  0.00     0.080 A 
ATOM      9  O   UNL d   1       3.762   0.658  -1.860  0.00  0.00    -0.268 OA
ATOM     10  C   UNL d   1       4.295   2.954   0.623  0.00  0.00     0.080 A 
ATOM     11  C   UNL d   1       2.976   2.416   0.984  0.00  0.00     0.255 A 
ATOM     12  O   UNL d   1       2.404   2.706   2.020  0.00  0.00    -0.268 OA
ENDBRANCH   1   6
BRANCH   2  13
ATOM     13  C   UNL d   1      -0.303   2.681   0.116  0.00  0.00     0.302 C 
ATOM     14  O   UNL d   1      -1.459   3.042   0.321  0.00  0.00    -0.259 OA
BRANCH  13  15
ATOM     15  O   UNL d   1       0.703   3.544  -0.218  0.00  0.00    -0.322 OA
ATOM     16  C   UNL d   1       0.356   4.931  -0.180  0.00  0.00     0.213 C 
ENDBRANCH  13  15
ENDBRANCH   2  13
BRANCH   5  17
ATOM     17  C   UNL d   1      -0.199  -2.580   0.011  0.00  0.00     0.022 A 
ATOM     18  S   UNL d   1       0.851  -3.763   0.683  0.00  0.00    -0.101 SA
ATOM     19  C   UNL d   1      -0.271  -5.024   0.413  0.00  0.00     0.050 A 
ATOM     20  C   UNL d   1      -1.419  -4.568  -0.193  0.00  0.00     0.008 A 
ATOM     21  C   UNL d   1      -1.379  -3.161  -0.423  0.00  0.00     0.021 A 
ENDBRANCH   5  17
TORSDOF 4
