REMARK  4 active torsions:
REMARK  status: ('A' for Active; 'I' for Inactive)
REMARK    1  A    between atoms: C_7  and  C_1 
REMARK    2  A    between atoms: C_4  and  C_5 
REMARK       I    between atoms: C_5  and  N_15 
REMARK    3  A    between atoms: C_16  and  N_6 
REMARK    4  A    between atoms: N_15  and  C_21 
ROOT
ATOM      1  C   UNL d   1       2.095   1.379   0.172  0.00  0.00     0.056 A 
ATOM      2  C   UNL d   1       4.408   2.996   0.031  0.00  0.00     0.035 A 
ATOM      3  C   UNL d   1       3.201   0.973  -0.588  0.00  0.00     0.034 A 
ATOM      4  C   UNL d   1       2.174   2.569   0.900  0.00  0.00     0.034 A 
ATOM      5  C   UNL d   1       4.347   1.777  -0.655  0.00  0.00     0.032 A 
ATOM      6  C   UNL d   1       3.322   3.367   0.827  0.00  0.00     0.032 A 
ENDROOT
BRANCH   2   7
ATOM      7  N   UNL d   1       5.557   3.797  -0.155  0.00  0.00    -0.323 N 
ATOM      8  C   UNL d   1       5.796   5.051   0.377  0.00  0.00     0.260 C 
ATOM      9  O   UNL d   1       5.078   5.611   1.198  0.00  0.00    -0.267 OA
ATOM     10  H   UNL d   1       6.282   3.394  -0.730  0.00  0.00     0.169 HD
BRANCH   8  11
ATOM     11  C   UNL d   1       7.018   5.697  -0.070  0.00  0.00     0.087 A 
ATOM     12  C   UNL d   1       7.702   5.595  -1.267  0.00  0.00     0.090 A 
ATOM     13  O   UNL d   1       8.787   6.417  -1.235  0.00  0.00    -0.242 OA
ATOM     14  C   UNL d   1       7.500   4.888  -2.547  0.00  0.00     0.080 C 
ATOM     15  N   UNL d   1       8.823   7.102  -0.043  0.00  0.00    -0.265 N 
ATOM     16  C   UNL d   1       7.750   6.694   0.643  0.00  0.00     0.047 A 
ATOM     17  HN  UNL d   1       9.523   7.780   0.256  1.00  0.00     0.194 HD
ATOM     18  C   UNL d   1       7.450   7.276   1.973  0.00  0.00     0.071 C 
ENDBRANCH   8  11
ENDBRANCH   2   7
BRANCH   1  19
ATOM     19  N   UNL d   1       0.906   0.598   0.170  0.00  0.00    -0.267 N 
ATOM     20  N   UNL d   1       0.843  -0.578  -0.507  0.00  0.00    -0.290 N 
ATOM     21  C   UNL d   1      -0.414  -1.029  -0.332  0.00  0.00     0.134 A 
ATOM     22  HN  UNL d   1       1.591  -1.025  -1.038  1.00  0.00     0.187 HD
ATOM     23  C   UNL d   1      -1.165  -0.129   0.461  0.00  0.00     0.055 A 
ATOM     24  C   UNL d   1      -0.299   0.890   0.770  0.00  0.00     0.119 A 
BRANCH  21  25
ATOM     25  C   UNL d   1      -0.920  -2.321  -0.917  0.00  0.00     0.434 C 
ATOM     26  F   UNL d   1      -0.007  -2.970  -1.686  0.00  0.00    -0.165 F 
ATOM     27  F   UNL d   1      -1.301  -3.192   0.057  0.00  0.00    -0.165 F 
ATOM     28  F   UNL d   1      -2.016  -2.119  -1.698  0.00  0.00    -0.165 F 
ENDBRANCH  21  25
ENDBRANCH   1  19
TORSDOF 4
