REMARK  11 active torsions:
REMARK  status: ('A' for Active; 'I' for Inactive)
REMARK    1  A    between atoms: C_1  and  O_6 
REMARK    2  A    between atoms: C_1  and  C_3 
REMARK    3  A    between atoms: C_1  and  C_2 
REMARK    4  A    between atoms: C_2  and  O_7 
REMARK    5  A    between atoms: C_3  and  O_8 
REMARK    6  A    between atoms: C_13  and  C_3 
REMARK    7  A    between atoms: C_9  and  O_6 
REMARK    8  A    between atoms: C_10  and  O_7 
REMARK    9  A    between atoms: C_11  and  O_8 
REMARK   10  A    between atoms: C_12  and  O_14 
REMARK   11  A    between atoms: O_14  and  C_13 
ROOT
ATOM      1  C   UNL d   1       0.410   1.289  -0.629  0.00  0.00     0.270 C 
ATOM      2  N   UNL d   1       1.116   3.494   0.629  0.00  0.00    -0.194 NA
ATOM      3  C   UNL d   1       0.844   2.517   0.073  0.00  0.00     0.094 C 
ENDROOT
BRANCH   1   4
ATOM      4  C   UNL d   1       0.882  -0.025   0.028  0.00  0.00     0.207 C 
BRANCH   4   5
ATOM      5  O   UNL d   1       2.335  -0.059   0.138  0.00  0.00    -0.310 OA
BRANCH   5   6
ATOM      6  C   UNL d   1       3.003  -0.945  -0.647  0.00  0.00     0.255 C 
ATOM      7  O   UNL d   1       2.478  -1.723  -1.432  0.00  0.00    -0.266 OA
ATOM      8  C   UNL d   1       4.480  -0.885  -0.406  0.00  0.00     0.126 C 
ENDBRANCH   5   6
ENDBRANCH   4   5
BRANCH   4   9
ATOM      9  C   UNL d   1       0.337  -0.303   1.461  0.00  0.00     0.189 C 
BRANCH   9  10
ATOM     10  O   UNL d   1       0.872  -1.587   1.921  0.00  0.00    -0.311 OA
BRANCH  10  11
ATOM     11  C   UNL d   1       0.523  -2.715   1.249  0.00  0.00     0.255 C 
ATOM     12  O   UNL d   1      -0.368  -2.793   0.415  0.00  0.00    -0.266 OA
ATOM     13  C   UNL d   1       1.442  -3.846   1.597  0.00  0.00     0.126 C 
ENDBRANCH  10  11
ENDBRANCH   9  10
BRANCH   9  14
ATOM     14  C   UNL d   1      -1.194  -0.232   1.631  0.00  0.00     0.213 C 
BRANCH  14  15
ATOM     15  O   UNL d   1      -1.598  -0.564   2.978  0.00  0.00    -0.319 OA
BRANCH  15  16
ATOM     16  C   UNL d   1      -1.584   0.461   3.872  0.00  0.00     0.254 C 
ATOM     17  O   UNL d   1      -1.198   1.595   3.622  0.00  0.00    -0.266 OA
ATOM     18  C   UNL d   1      -2.142   0.035   5.199  0.00  0.00     0.126 C 
ENDBRANCH  15  16
ENDBRANCH  14  15
ENDBRANCH   9  14
ENDBRANCH   4   9
ENDBRANCH   1   4
BRANCH   1  19
ATOM     19  O   UNL d   1       0.650   1.325  -2.071  0.00  0.00    -0.299 OA
BRANCH  19  20
ATOM     20  C   UNL d   1       1.891   1.569  -2.561  0.00  0.00     0.256 C 
ATOM     21  O   UNL d   1       2.905   1.706  -1.896  0.00  0.00    -0.266 OA
ATOM     22  C   UNL d   1       1.862   1.628  -4.062  0.00  0.00     0.126 C 
ENDBRANCH  19  20
ENDBRANCH   1  19
TORSDOF 11
