REMARK  12 active torsions:
REMARK  status: ('A' for Active; 'I' for Inactive)
REMARK    1  A    between atoms: O_12  and  C_2 
REMARK       I    between atoms: C_3  and  N_4 
REMARK    2  A    between atoms: C_15  and  C_3 
REMARK    3  A    between atoms: N_4  and  C_5 
REMARK    4  A    between atoms: C_6  and  C_16 
REMARK    5  A    between atoms: O_13  and  C_6 
REMARK    6  A    between atoms: O_14  and  C_7 
REMARK    7  A    between atoms: C_21  and  C_15 
REMARK    8  A    between atoms: C_16  and  C_20 
REMARK    9  A    between atoms: C_20  and  C_24 
REMARK   10  A    between atoms: C_22  and  C_21 
REMARK   11  A    between atoms: C_23  and  C_22 
REMARK   12  A    between atoms: C_24  and  C_23 
ROOT
ATOM      1  C   UNL d   1       3.232   1.984  -0.481  0.00  0.00     0.222 C 
ATOM      2  N   UNL d   1       3.054   1.556   0.829  0.00  0.00    -0.327 N 
ATOM      3  O   UNL d   1       2.774   1.452  -1.490  0.00  0.00    -0.273 OA
ATOM      4  H   UNL d   1       3.313   2.194   1.572  0.00  0.00     0.169 HD
ENDROOT
BRANCH   1   5
ATOM      5  C   UNL d   1       4.105   3.210  -0.620  0.00  0.00     0.103 C 
BRANCH   5   6
ATOM      6  C   UNL d   1       5.557   2.778  -0.769  0.00  0.00     0.009 C 
BRANCH   6   7
ATOM      7  C   UNL d   1       6.492   3.962  -1.007  0.00  0.00     0.000 C 
BRANCH   7   8
ATOM      8  C   UNL d   1       7.934   3.473  -1.139  0.00  0.00     0.000 C 
BRANCH   8   9
ATOM      9  C   UNL d   1       8.914   4.622  -1.364  0.00  0.00     0.000 C 
BRANCH   9  10
ATOM     10  C   UNL d   1      10.341   4.088  -1.483  0.00  0.00     0.010 C 
BRANCH  10  11
ATOM     11  C   UNL d   1      11.351   5.210  -1.706  0.00  0.00     0.111 C 
BRANCH  11  12
ATOM     12  C   UNL d   1      12.756   4.666  -1.820  0.00  0.00     0.258 C 
ATOM     13  O   UNL d   1      13.066   3.482  -1.746  0.00  0.00    -0.265 OA
BRANCH  12  14
ATOM     14  O   UNL d   1      13.631   5.690  -2.015  0.00  0.00    -0.326 OA
ATOM     15  C   UNL d   1      14.990   5.268  -2.135  0.00  0.00     0.213 C 
ENDBRANCH  12  14
ENDBRANCH  11  12
ENDBRANCH  10  11
ENDBRANCH   9  10
ENDBRANCH   8   9
ENDBRANCH   7   8
ENDBRANCH   6   7
ENDBRANCH   5   6
ENDBRANCH   1   5
BRANCH   2  16
ATOM     16  C   UNL d   1       2.315   0.409   1.201  0.00  0.00     0.037 A 
ATOM     17  C   UNL d   1       2.055  -0.621   0.296  0.00  0.00     0.069 A 
ATOM     18  C   UNL d   1       1.215  -1.697   0.609  0.00  0.00     0.103 A 
ATOM     19  C   UNL d   1       0.688  -1.791   1.903  0.00  0.00     0.101 A 
ATOM     20  C   UNL d   1       1.013  -0.795   2.841  0.00  0.00     0.042 A 
ATOM     21  C   UNL d   1       1.823   0.296   2.499  0.00  0.00     0.032 A 
BRANCH  18  22
ATOM     22  O   UNL d   1       0.951  -2.673  -0.318  0.00  0.00    -0.353 OA
ATOM     23  C   UNL d   1       0.912  -2.244  -1.679  0.00  0.00     0.210 C 
ENDBRANCH  18  22
BRANCH  19  24
ATOM     24  O   UNL d   1      -0.145  -2.754   2.413  0.00  0.00    -0.353 OA
ATOM     25  C   UNL d   1      -0.573  -3.797   1.546  0.00  0.00     0.210 C 
ENDBRANCH  19  24
ENDBRANCH   2  16
TORSDOF 12
