REMARK  8 active torsions:
REMARK  status: ('A' for Active; 'I' for Inactive)
REMARK    1  A    between atoms: C_8  and  C_1 
REMARK    2  A    between atoms: C_2  and  C_6 
REMARK    3  A    between atoms: C_3  and  C_5 
REMARK    4  A    between atoms: C_4  and  C_14 
REMARK    5  A    between atoms: C_16  and  C_10 
REMARK    6  A    between atoms: O_30  and  N_17 
REMARK    7  A    between atoms: C_29  and  C_33 
REMARK    8  A    between atoms: C_33  and  O_30 
ROOT
ATOM      1  C   UNL d   1      -0.052   1.062   0.007  0.00  0.00     0.086 A 
ATOM      2  O   UNL d   1      -0.900  -0.022   0.056  0.00  0.00    -0.309 OA
ATOM      3  C   UNL d   1       1.256   0.619   0.042  0.00  0.00     0.041 A 
ATOM      4  C   UNL d   1      -0.122  -1.148   0.032  0.00  0.00     0.093 A 
ATOM      5  C   UNL d   1       1.209  -0.795   0.034  0.00  0.00     0.041 A 
ENDROOT
BRANCH   4   6
ATOM      6  C   UNL d   1      -0.758  -2.432  -0.069  0.00  0.00     0.151 C 
ATOM      7  N   UNL d   1      -0.099  -3.435  -0.557  0.00  0.00    -0.275 N 
ATOM      8  HN  UNL d   1       0.877  -3.410  -0.852  1.00  0.00     0.193 HD
BRANCH   7   9
ATOM      9  O   UNL d   1      -0.935  -4.564  -0.619  0.00  0.00    -0.276 OA
BRANCH   9  10
ATOM     10  C   UNL d   1      -0.490  -5.392  -1.700  0.00  0.00     0.239 C 
BRANCH  10  11
ATOM     11  C   UNL d   1      -1.234  -6.702  -1.676  0.00  0.00    -0.031 A 
ATOM     12  C   UNL d   1      -1.057  -7.595  -0.608  0.00  0.00     0.025 A 
ATOM     13  C   UNL d   1      -1.723  -8.831  -0.579  0.00  0.00     0.048 A 
ATOM     14  C   UNL d   1      -2.582  -9.163  -1.636  0.00  0.00     0.016 A 
ATOM     15  C   UNL d   1      -2.765  -8.282  -2.703  0.00  0.00     0.001 A 
ATOM     16  C   UNL d   1      -2.093  -7.060  -2.724  0.00  0.00     0.009 A 
BRANCH  13  17
ATOM     17  C   UNL d   1      -1.520  -9.799   0.561  0.00  0.00     0.417 C 
ATOM     18  F   UNL d   1      -0.638  -9.360   1.502  0.00  0.00    -0.166 F 
ATOM     19  F   UNL d   1      -2.675 -10.068   1.230  0.00  0.00    -0.166 F 
ATOM     20  F   UNL d   1      -1.044 -11.004   0.140  0.00  0.00    -0.166 F 
ENDBRANCH  13  17
ENDBRANCH  10  11
ENDBRANCH   9  10
ENDBRANCH   7   9
ENDBRANCH   4   6
BRANCH   1  21
ATOM     21  C   UNL d   1      -0.665   2.379  -0.162  0.00  0.00    -0.001 A 
ATOM     22  C   UNL d   1      -2.056   2.561  -0.152  0.00  0.00     0.030 A 
ATOM     23  C   UNL d   1      -2.634   3.812  -0.445  0.00  0.00     0.049 A 
ATOM     24  C   UNL d   1      -1.797   4.901  -0.733  0.00  0.00     0.032 A 
ATOM     25  C   UNL d   1      -0.405   4.751  -0.750  0.00  0.00     0.049 A 
ATOM     26  C   UNL d   1       0.145   3.494  -0.443  0.00  0.00     0.030 A 
BRANCH  23  27
ATOM     27  C   UNL d   1      -4.137   3.954  -0.508  0.00  0.00     0.417 C 
ATOM     28  F   UNL d   1      -4.546   5.203  -0.869  0.00  0.00    -0.166 F 
ATOM     29  F   UNL d   1      -4.697   3.106  -1.414  0.00  0.00    -0.166 F 
ATOM     30  F   UNL d   1      -4.741   3.691   0.682  0.00  0.00    -0.166 F 
ENDBRANCH  23  27
BRANCH  25  31
ATOM     31  C   UNL d   1       0.500   5.891  -1.156  0.00  0.00     0.417 C 
ATOM     32  F   UNL d   1      -0.175   7.010  -1.538  0.00  0.00    -0.166 F 
ATOM     33  F   UNL d   1       1.339   6.278  -0.158  0.00  0.00    -0.166 F 
ATOM     34  F   UNL d   1       1.298   5.561  -2.210  0.00  0.00    -0.166 F 
ENDBRANCH  25  31
ENDBRANCH   1  21
TORSDOF 8
