REMARK  3 active torsions:
REMARK  status: ('A' for Active; 'I' for Inactive)
REMARK    1  A    between atoms: C_4  and  C_3 
REMARK    2  A    between atoms: C_13  and  C_5 
REMARK    3  A    between atoms: C_11  and  C_7 
ROOT
ATOM      1  C   UNL d   1      -0.060  -2.718  -0.033  0.00  0.00     0.079 C 
ATOM      2  C   UNL d   1       0.043  -1.372   0.027  0.00  0.00     0.044 C 
ATOM      3  C   UNL d   1      -1.345  -3.353  -0.102  0.00  0.00     0.102 C 
ATOM      4  N   UNL d   1      -2.379  -3.878  -0.154  0.00  0.00    -0.191 NA
ENDROOT
BRANCH   1   5
ATOM      5  C   UNL d   1       1.147  -3.507  -0.027  0.00  0.00     0.095 A 
ATOM      6  N   UNL d   1       2.395  -3.057   0.013  0.00  0.00    -0.348 N 
ATOM      7  C   UNL d   1       3.319  -4.099   0.018  0.00  0.00     0.050 A 
ATOM      8  HN  UNL d   1       2.647  -2.069   0.038  1.00  0.00     0.166 HD
ATOM      9  C   UNL d   1       2.760  -5.356  -0.048  0.00  0.00     0.082 A 
ATOM     10  S   UNL d   1       1.061  -5.248  -0.078  0.00  0.00    -0.080 SA
BRANCH   7  11
ATOM     11  C   UNL d   1       4.761  -3.859   0.056  0.00  0.00    -0.009 A 
ATOM     12  C   UNL d   1       5.654  -4.809   0.584  0.00  0.00     0.015 A 
ATOM     13  C   UNL d   1       7.033  -4.571   0.594  0.00  0.00     0.024 A 
ATOM     14  C   UNL d   1       7.533  -3.379   0.078  0.00  0.00     0.034 A 
ATOM     15  C   UNL d   1       6.665  -2.422  -0.443  0.00  0.00     0.024 A 
ATOM     16 CL   UNL d   1       9.228  -3.087   0.087  0.00  0.00    -0.084 Cl
ATOM     17  C   UNL d   1       5.285  -2.661  -0.450  0.00  0.00     0.015 A 
ENDBRANCH   7  11
ENDBRANCH   1   5
BRANCH   2  18
ATOM     18  C   UNL d   1      -1.110  -0.533   0.021  0.00  0.00     0.006 A 
ATOM     19  S   UNL d   1      -1.775   0.013  -1.468  0.00  0.00    -0.102 SA
ATOM     20  C   UNL d   1      -3.097   0.760  -0.683  0.00  0.00     0.050 A 
ATOM     21  C   UNL d   1      -3.008   0.659   0.687  0.00  0.00     0.008 A 
ATOM     22  C   UNL d   1      -1.851  -0.068   1.093  0.00  0.00     0.019 A 
ENDBRANCH   2  18
TORSDOF 3
