REMARK  4 active torsions:
REMARK  status: ('A' for Active; 'I' for Inactive)
REMARK    1  A    between atoms: S_4  and  C_10 
REMARK    2  A    between atoms: C_11  and  S_4 
REMARK    3  A    between atoms: C_10  and  C_5 
REMARK    4  A    between atoms: C_16  and  C_11 
ROOT
ATOM      1  C   UNL d   1       0.017  -0.889  -0.659  0.00  0.00     0.207 A 
ATOM      2  N   UNL d   1       0.537   0.260  -1.042  0.00  0.00    -0.320 N 
ATOM      3  HN  UNL d   1       0.993   0.486  -1.926  1.00  0.00     0.169 HD
ATOM      4  C   UNL d   1       0.317   1.076   0.034  0.00  0.00     0.118 A 
ATOM      5  C   UNL d   1      -0.002  -2.058  -1.475  0.00  0.00     0.153 A 
ATOM      6  N   UNL d   1      -0.331   0.491   1.048  0.00  0.00    -0.246 N 
ATOM      7  HN  UNL d   1      -0.619   0.903   1.936  1.00  0.00     0.196 HD
ATOM      8  O   UNL d   1      -0.519  -0.819   0.600  0.00  0.00    -0.215 OA
ATOM      9  N   UNL d   1      -0.480  -4.167  -2.111  0.00  0.00    -0.272 N 
ATOM     10  HN  UNL d   1      -0.837  -5.122  -2.115  1.00  0.00     0.194 HD
ATOM     11  O   UNL d   1      -0.613  -3.223  -1.105  0.00  0.00    -0.234 OA
ATOM     12  C   UNL d   1       0.544  -2.240  -2.730  0.00  0.00     0.063 A 
ATOM     13  C   UNL d   1       0.215  -3.560  -3.074  0.00  0.00     0.117 A 
ENDROOT
BRANCH   4  14
ATOM     14  C   UNL d   1       0.650   2.510   0.019  0.00  0.00     0.218 C 
BRANCH  14  15
ATOM     15  S   UNL d   1       2.405   2.808  -0.041  0.00  0.00     0.157 S 
ATOM     16  O   UNL d   1       2.594   4.250  -0.099  0.00  0.00    -0.227 OA
ATOM     17  O   UNL d   1       3.031   2.069   1.044  0.00  0.00    -0.227 OA
BRANCH  15  18
ATOM     18  C   UNL d   1       3.005   2.110  -1.575  0.00  0.00     0.205 C 
BRANCH  18  19
ATOM     19  C   UNL d   1       2.320   2.716  -2.739  0.00  0.00     0.066 A 
ATOM     20  O   UNL d   1       1.579   1.871  -3.511  0.00  0.00    -0.326 OA
ATOM     21  C   UNL d   1       1.092   2.599  -4.548  0.00  0.00     0.142 A 
ATOM     22  C   UNL d   1       1.506   3.906  -4.454  0.00  0.00     0.027 A 
ATOM     23  C   UNL d   1       2.303   3.984  -3.286  0.00  0.00     0.035 A 
ENDBRANCH  18  19
ENDBRANCH  15  18
ENDBRANCH  14  15
ENDBRANCH   4  14
TORSDOF 4
