REMARK  6 active torsions:
REMARK  status: ('A' for Active; 'I' for Inactive)
REMARK    1  A    between atoms: C_5  and  S_1 
REMARK    2  A    between atoms: N_6  and  S_1 
REMARK    3  A    between atoms: C_2  and  N_8 
REMARK    4  A    between atoms: N_4  and  C_3 
REMARK    5  A    between atoms: S_7  and  C_5 
REMARK    6  A    between atoms: N_8  and  N_6 
ROOT
ATOM      1  N   UNL d   1       0.971  -1.548   2.068  0.00  0.00    -0.270 N 
ATOM      2  C   UNL d   1       0.575  -1.922   3.427  0.00  0.00     0.180 C 
ENDROOT
BRANCH   1   3
ATOM      3  C   UNL d   1       1.781  -2.492   1.394  0.00  0.00     0.155 A 
ATOM      4  C   UNL d   1       2.504  -2.217   0.237  0.00  0.00     0.148 A 
ATOM      5  C   UNL d   1       3.189  -3.215  -0.468  0.00  0.00     0.041 A 
ATOM      6  C   UNL d   1       3.174  -4.507   0.033  0.00  0.00     0.020 A 
ATOM      7  C   UNL d   1       2.497  -4.725   1.217  0.00  0.00     0.090 A 
ATOM      8  N   UNL d   1       1.817  -3.762   1.885  0.00  0.00    -0.349 N 
ATOM      9  HN  UNL d   1       1.333  -3.988   2.754  1.00  0.00     0.167 HD
BRANCH   4  10
ATOM     10  N   UNL d   1       2.650  -0.868  -0.219  0.00  0.00    -0.112 N 
ATOM     11  O   UNL d   1       3.466  -0.152   0.372  0.00  0.00    -0.532 OA
ATOM     12  O   UNL d   1       1.938  -0.522  -1.170  0.00  0.00    -0.532 OA
ENDBRANCH   4  10
ENDBRANCH   1   3
BRANCH   1  13
ATOM     13  N   UNL d   1       0.241  -0.414   1.384  0.00  0.00    -0.223 N 
ATOM     14  H   UNL d   1       0.401  -0.231   0.383  0.00  0.00     0.200 HD
BRANCH  13  15
ATOM     15  S   UNL d   1      -1.341   0.096   1.771  0.00  0.00     0.257 S 
ATOM     16  O   UNL d   1      -1.747   0.904   0.642  0.00  0.00    -0.203 OA
ATOM     17  O   UNL d   1      -2.090  -1.071   2.171  0.00  0.00    -0.203 OA
BRANCH  15  18
ATOM     18  C   UNL d   1      -1.067   1.133   3.168  0.00  0.00     0.303 C 
BRANCH  18  19
ATOM     19  S   UNL d   1      -2.557   1.725   3.885  0.00  0.00     0.155 S 
ATOM     20  O   UNL d   1      -2.169   2.381   5.123  0.00  0.00    -0.227 OA
ATOM     21  O   UNL d   1      -3.318   2.462   2.898  0.00  0.00    -0.227 OA
ATOM     22  C   UNL d   1      -3.508   0.295   4.366  0.00  0.00     0.162 C 
ENDBRANCH  18  19
ENDBRANCH  15  18
ENDBRANCH  13  15
ENDBRANCH   1  13
TORSDOF 6
