REMARK  2 active torsions:
REMARK  status: ('A' for Active; 'I' for Inactive)
REMARK    1  A    between atoms: S_11  and  C_2 
REMARK    2  A    between atoms: C_10  and  C_7 
ROOT
ATOM      1  N   UNL d   1      -3.594  -1.548   2.071  0.00  0.00    -0.197 NA
ATOM      2  C   UNL d   1      -3.172  -0.973   1.154  0.00  0.00     0.066 C 
ATOM      3  C   UNL d   1      -2.632  -0.316  -0.040  0.00  0.00     0.201 C 
ENDROOT
BRANCH   3   4
ATOM      4  C   UNL d   1      -1.150  -0.178   0.032  0.00  0.00     0.113 A 
ATOM      5  N   UNL d   1      -0.502   0.968   0.064  0.00  0.00    -0.286 N 
ATOM      6  N   UNL d   1       0.841   0.699   0.067  0.00  0.00    -0.279 N 
ATOM      7  HN  UNL d   1      -0.927   1.896   0.082  1.00  0.00     0.188 HD
ATOM      8  C   UNL d   1       0.997  -0.603   0.038  0.00  0.00     0.159 A 
ATOM      9  HN  UNL d   1       1.589   1.392   0.089  1.00  0.00     0.189 HD
ATOM     10  N   UNL d   1      -0.229  -1.212   0.018  0.00  0.00    -0.319 N 
ATOM     11  C   UNL d   1      -0.556  -2.614  -0.022  0.00  0.00     0.159 C 
BRANCH   8  12
ATOM     12  S   UNL d   1       2.542  -1.377   0.003  0.00  0.00    -0.105 SA
ATOM     13  H   UNL d   1       2.209  -2.666   0.100  0.00  0.00     0.110 HD
ENDBRANCH   8  12
ENDBRANCH   3   4
TORSDOF 2
