REMARK  4 active torsions:
REMARK  status: ('A' for Active; 'I' for Inactive)
REMARK    1  A    between atoms: C_7  and  C_4 
REMARK    2  A    between atoms: C_8  and  C_19 
REMARK    3  A    between atoms: O_17  and  C_10 
REMARK    4  A    between atoms: C_19  and  O_17 
ROOT
ATOM      1  C   UNL d   1       1.210  -1.402   0.039  0.00  0.00     0.189 C 
ATOM      2  C   UNL d   1       2.235  -0.692  -0.769  0.00  0.00    -0.006 C 
ATOM      3  C   UNL d   1      -0.143  -0.789   0.069  0.00  0.00     0.021 A 
ATOM      4  C   UNL d   1       2.568  -1.294  -1.925  0.00  0.00     0.022 C 
ATOM      5  O   UNL d   1       1.423  -2.502   0.530  0.00  0.00    -0.287 OA
ATOM      6  C   UNL d   1      -0.373   0.563   0.376  0.00  0.00    -0.044 A 
ATOM      7  C   UNL d   1       2.807   0.583  -0.225  0.00  0.00     0.043 C 
ATOM      8  C   UNL d   1      -1.214  -1.630  -0.269  0.00  0.00     0.016 A 
ATOM      9  C   UNL d   1       1.803   1.728  -0.191  0.00  0.00     0.009 C 
ATOM     10  C   UNL d   1       0.714   1.494   0.849  0.00  0.00     0.040 C 
ATOM     11  C   UNL d   1      -1.687   1.056   0.289  0.00  0.00     0.008 A 
ATOM     12  C   UNL d   1      -2.510  -1.123  -0.348  0.00  0.00     0.001 A 
ATOM     13  C   UNL d   1      -2.743   0.222  -0.080  0.00  0.00     0.001 A 
ENDROOT
BRANCH   4  14
ATOM     14  C   UNL d   1       3.502  -0.680  -2.866  0.00  0.00    -0.035 A 
ATOM     15  C   UNL d   1       4.880  -0.852  -2.714  0.00  0.00     0.014 A 
ATOM     16  C   UNL d   1       5.769  -0.137  -3.521  0.00  0.00     0.037 A 
ATOM     17  C   UNL d   1       5.284   0.737  -4.496  0.00  0.00     0.069 A 
ATOM     18  C   UNL d   1       3.906   0.899  -4.652  0.00  0.00     0.037 A 
ATOM     19  C   UNL d   1       3.015   0.191  -3.845  0.00  0.00     0.014 A 
BRANCH  17  20
ATOM     20  O   UNL d   1       6.050   1.498  -5.337  0.00  0.00    -0.348 OA
BRANCH  20  21
ATOM     21  C   UNL d   1       7.430   1.147  -5.419  0.00  0.00     0.202 C 
BRANCH  21  22
ATOM     22  C   UNL d   1       8.009   1.851  -6.609  0.00  0.00    -0.011 C 
ATOM     23  C   UNL d   1       9.130   2.582  -6.591  0.00  0.00     0.009 C 
ENDBRANCH  21  22
ENDBRANCH  20  21
ENDBRANCH  17  20
ENDBRANCH   4  14
TORSDOF 4
