REMARK  7 active torsions:
REMARK  status: ('A' for Active; 'I' for Inactive)
REMARK    1  A    between atoms: N_2  and  C_1 
REMARK    2  A    between atoms: N_8  and  C_1 
REMARK    3  A    between atoms: C_11  and  N_2 
REMARK    4  A    between atoms: C_4  and  C_5 
REMARK    5  A    between atoms: C_14  and  N_8 
REMARK    6  A    between atoms: C_21  and  C_14 
REMARK    7  A    between atoms: C_15  and  C_21 
ROOT
ATOM      1  C   UNL d   1      -0.703  -0.362  -1.231  0.00  0.00     0.172 C 
ATOM      2  S   UNL d   1      -2.222  -1.000  -1.512  0.00  0.00    -0.041 SA
ENDROOT
BRANCH   1   3
ATOM      3  N   UNL d   1       0.427  -1.048  -0.869  0.00  0.00    -0.333 N 
ATOM      4  H   UNL d   1       0.937  -0.634  -0.103  0.00  0.00     0.168 HD
BRANCH   3   5
ATOM      5  C   UNL d   1       0.821  -2.345  -1.264  0.00  0.00     0.034 A 
ATOM      6  C   UNL d   1       0.501  -2.870  -2.512  0.00  0.00     0.030 A 
ATOM      7  C   UNL d   1       1.070  -4.075  -2.942  0.00  0.00     0.010 A 
ATOM      8  C   UNL d   1       1.970  -4.796  -2.136  0.00  0.00    -0.051 A 
ATOM      9  C   UNL d   1       2.218  -4.290  -0.850  0.00  0.00     0.010 A 
ATOM     10  C   UNL d   1       1.669  -3.070  -0.427  0.00  0.00     0.030 A 
BRANCH   8  11
ATOM     11  C   UNL d   1       2.700  -6.026  -2.706  0.00  0.00    -0.024 C 
ATOM     12  C   UNL d   1       3.661  -6.701  -1.702  0.00  0.00     0.019 C 
ATOM     13  C   UNL d   1       1.695  -7.099  -3.172  0.00  0.00     0.019 C 
ATOM     14  C   UNL d   1       3.553  -5.579  -3.916  0.00  0.00     0.019 C 
ENDBRANCH   8  11
ENDBRANCH   3   5
ENDBRANCH   1   3
BRANCH   1  15
ATOM     15  N   UNL d   1      -0.566   0.999  -1.310  0.00  0.00    -0.367 N 
ATOM     16  H   UNL d   1      -1.434   1.431  -1.614  0.00  0.00     0.161 HD
BRANCH  15  17
ATOM     17  C   UNL d   1       0.661   1.679  -1.721  0.00  0.00     0.126 C 
BRANCH  17  18
ATOM     18  C   UNL d   1       0.428   3.180  -1.915  0.00  0.00     0.058 C 
BRANCH  18  19
ATOM     19  C   UNL d   1       1.647   3.902  -2.427  0.00  0.00    -0.054 A 
ATOM     20  C   UNL d   1       1.869   4.053  -3.799  0.00  0.00     0.024 A 
ATOM     21  C   UNL d   1       3.010   4.721  -4.220  0.00  0.00     0.088 A 
ATOM     22  N   UNL d   1       3.933   5.236  -3.380  0.00  0.00    -0.375 N 
ATOM     23  C   UNL d   1       3.700   5.081  -2.059  0.00  0.00     0.088 A 
ATOM     24  HN  UNL d   1       4.763   5.718  -3.726  1.00  0.00     0.164 HD
ATOM     25  C   UNL d   1       2.591   4.429  -1.542  0.00  0.00     0.024 A 
ENDBRANCH  18  19
ENDBRANCH  17  18
ENDBRANCH  15  17
ENDBRANCH   1  15
TORSDOF 7
