REMARK  6 active torsions:
REMARK  status: ('A' for Active; 'I' for Inactive)
REMARK    1  A    between atoms: N_8  and  C_1 
REMARK    2  A    between atoms: N_4  and  C_2 
REMARK    3  A    between atoms: N_5  and  C_3 
REMARK    4  A    between atoms: C_6  and  C_7 
REMARK    5  A    between atoms: N_13  and  N_8 
REMARK       I    between atoms: C_11  and  N_13 
REMARK    6  A    between atoms: C_12  and  C_11 
ROOT
ATOM      1  C   UNL d   1       1.463  -0.374  -0.205  0.00  0.00     0.093 A 
ATOM      2  C   UNL d   1       0.485  -1.385  -0.170  0.00  0.00     0.129 A 
ATOM      3  C   UNL d   1       0.949   0.939  -0.116  0.00  0.00     0.129 A 
ATOM      4  C   UNL d   1      -1.370   0.209  -0.109  0.00  0.00     0.052 A 
ATOM      5  C   UNL d   1      -0.428   1.241  -0.083  0.00  0.00     0.054 A 
ATOM      6  C   UNL d   1      -0.902  -1.112  -0.134  0.00  0.00     0.054 A 
ENDROOT
BRANCH   1   7
ATOM      7  N   UNL d   1       2.869  -0.549  -0.263  0.00  0.00    -0.198 NA
ATOM      8  H   UNL d   1       3.300  -0.467   0.677  0.00  0.00     0.153 HD
BRANCH   7   9
ATOM      9  N   UNL d   1       3.322  -1.715  -0.898  0.00  0.00    -0.281 N 
ATOM     10  C   UNL d   1       4.443  -2.344  -0.357  0.00  0.00     0.289 C 
ATOM     11  O   UNL d   1       4.920  -1.998   0.721  0.00  0.00    -0.264 OA
ATOM     12  H   UNL d   1       3.171  -1.807  -1.902  0.00  0.00     0.184 HD
BRANCH  10  13
ATOM     13  C   UNL d   1       4.970  -3.408  -1.184  0.00  0.00     0.143 A 
ATOM     14  O   UNL d   1       4.291  -3.771  -2.320  0.00  0.00    -0.317 OA
ATOM     15  C   UNL d   1       4.959  -4.819  -2.867  0.00  0.00     0.143 A 
ATOM     16  C   UNL d   1       6.077  -5.120  -2.125  0.00  0.00     0.027 A 
ATOM     17  C   UNL d   1       6.089  -4.207  -1.043  0.00  0.00     0.045 A 
ENDBRANCH  10  13
ENDBRANCH   7   9
ENDBRANCH   1   7
BRANCH   2  18
ATOM     18  N   UNL d   1       0.839  -2.790  -0.185  0.00  0.00    -0.114 N 
ATOM     19  O   UNL d   1       1.382  -3.249   0.829  0.00  0.00    -0.532 OA
ATOM     20  O   UNL d   1       0.511  -3.434  -1.189  0.00  0.00    -0.532 OA
ENDBRANCH   2  18
BRANCH   3  21
ATOM     21  N   UNL d   1       1.861   2.071  -0.128  0.00  0.00    -0.114 N 
ATOM     22  O   UNL d   1       2.632   2.181   0.835  0.00  0.00    -0.532 OA
ATOM     23  O   UNL d   1       1.752   2.866  -1.070  0.00  0.00    -0.532 OA
ENDBRANCH   3  21
BRANCH   4  24
ATOM     24  C   UNL d   1      -2.856   0.494  -0.129  0.00  0.00     0.417 C 
ATOM     25  F   UNL d   1      -3.148   1.821  -0.151  0.00  0.00    -0.166 F 
ATOM     26  F   UNL d   1      -3.463  -0.046  -1.219  0.00  0.00    -0.166 F 
ATOM     27  F   UNL d   1      -3.493  -0.019   0.956  0.00  0.00    -0.166 F 
ENDBRANCH   4  24
TORSDOF 6
