REMARK  6 active torsions:
REMARK  status: ('A' for Active; 'I' for Inactive)
REMARK    1  A    between atoms: N_2  and  S_1 
REMARK    2  A    between atoms: C_4  and  S_1 
REMARK    3  A    between atoms: C_9  and  N_2 
REMARK    4  A    between atoms: O_8  and  C_3 
REMARK    5  A    between atoms: C_19  and  O_8 
REMARK    6  A    between atoms: O_20  and  C_10 
ROOT
ATOM      1  C   UNL d   1       2.545  -0.638   4.105  0.00  0.00     0.104 A 
ATOM      2  C   UNL d   1       2.120   0.011   2.939  0.00  0.00     0.069 A 
ATOM      3  C   UNL d   1       0.783   0.356   2.759  0.00  0.00     0.045 A 
ATOM      4  C   UNL d   1       1.603  -0.898   5.115  0.00  0.00     0.101 A 
ATOM      5  C   UNL d   1       0.257  -0.554   4.917  0.00  0.00     0.042 A 
ATOM      6  C   UNL d   1      -0.153   0.080   3.747  0.00  0.00     0.033 A 
ENDROOT
BRANCH   3   7
ATOM      7  N   UNL d   1       0.383   0.892   1.504  0.00  0.00    -0.281 N 
ATOM      8  H   UNL d   1      -0.272   1.672   1.508  0.00  0.00     0.179 HD
BRANCH   7   9
ATOM      9  S   UNL d   1       0.072  -0.201   0.243  0.00  0.00     0.263 S 
ATOM     10  O   UNL d   1       1.223  -1.066   0.068  0.00  0.00    -0.200 OA
ATOM     11  O   UNL d   1      -0.464   0.575  -0.853  0.00  0.00    -0.200 OA
BRANCH   9  12
ATOM     12  C   UNL d   1      -1.270  -1.172   0.895  0.00  0.00     0.080 A 
ATOM     13  C   UNL d   1      -2.503  -0.542   1.119  0.00  0.00     0.028 A 
ATOM     14  C   UNL d   1      -3.538  -1.258   1.717  0.00  0.00     0.044 A 
ATOM     15  C   UNL d   1      -3.342  -2.594   2.056  0.00  0.00     0.116 A 
ATOM     16  C   UNL d   1      -2.131  -3.233   1.799  0.00  0.00     0.044 A 
ATOM     17  F   UNL d   1      -4.334  -3.273   2.645  0.00  0.00    -0.206 F 
ATOM     18  C   UNL d   1      -1.083  -2.521   1.214  0.00  0.00     0.028 A 
ENDBRANCH   9  12
ENDBRANCH   7   9
ENDBRANCH   3   7
BRANCH   1  19
ATOM     19  O   UNL d   1       3.845  -1.038   4.285  0.00  0.00    -0.343 OA
BRANCH  19  20
ATOM     20  C   UNL d   1       4.602  -1.357   3.115  0.00  0.00     0.129 C 
ATOM     21  C   UNL d   1       4.069  -2.590   2.383  0.00  0.00     0.032 C 
ATOM     22  C   UNL d   1       5.281  -3.292   1.781  0.00  0.00     0.002 C 
ATOM     23  C   UNL d   1       6.512  -2.598   2.352  0.00  0.00     0.002 C 
ATOM     24  C   UNL d   1       6.011  -1.775   3.527  0.00  0.00     0.032 C 
ENDBRANCH  19  20
ENDBRANCH   1  19
BRANCH   4  25
ATOM     25  O   UNL d   1       1.818  -1.556   6.298  0.00  0.00    -0.353 OA
ATOM     26  C   UNL d   1       3.061  -1.306   6.941  0.00  0.00     0.210 C 
ENDBRANCH   4  25
TORSDOF 6
