REMARK  4 active torsions:
REMARK  status: ('A' for Active; 'I' for Inactive)
REMARK    1  A    between atoms: C_5  and  N_1 
REMARK    2  A    between atoms: C_12  and  N_3 
REMARK    3  A    between atoms: N_7  and  C_4 
REMARK    4  A    between atoms: C_9  and  C_11 
ROOT
ATOM      1  N   UNL d   1       1.510   1.125  -0.135  0.00  0.00    -0.259 N 
ATOM      2  C   UNL d   1       2.392   0.022  -0.190  0.00  0.00     0.339 A 
ATOM      3  N   UNL d   1       1.574  -1.183  -0.102  0.00  0.00    -0.267 N 
ATOM      4  C   UNL d   1       0.197   0.678  -0.054  0.00  0.00     0.071 A 
ATOM      5  C   UNL d   1       0.209  -0.724  -0.049  0.00  0.00     0.071 A 
ATOM      6  O   UNL d   1       3.609   0.141  -0.254  0.00  0.00    -0.245 OA
ATOM      7  C   UNL d   1      -0.974   1.429  -0.058  0.00  0.00     0.032 A 
ATOM      8  C   UNL d   1      -1.005  -1.389  -0.004  0.00  0.00     0.032 A 
ATOM      9  C   UNL d   1      -2.200  -0.648   0.005  0.00  0.00     0.002 A 
ATOM     10  C   UNL d   1      -2.183   0.750  -0.028  0.00  0.00     0.002 A 
ENDROOT
BRANCH   1  11
ATOM     11  C   UNL d   1       1.903   2.472  -0.046  0.00  0.00     0.077 A 
ATOM     12  C   UNL d   1       2.737   3.094  -0.985  0.00  0.00     0.131 A 
ATOM     13  C   UNL d   1       3.191   4.414  -0.811  0.00  0.00     0.054 A 
ATOM     14  C   UNL d   1       2.835   5.132   0.338  0.00  0.00     0.050 A 
ATOM     15  C   UNL d   1       1.998   4.517   1.284  0.00  0.00     0.018 A 
ATOM     16  C   UNL d   1       1.535   3.209   1.092  0.00  0.00     0.033 A 
BRANCH  12  17
ATOM     17  N   UNL d   1       3.041   2.450  -2.254  0.00  0.00    -0.113 N 
ATOM     18  O   UNL d   1       2.083   2.018  -2.911  0.00  0.00    -0.532 OA
ATOM     19  O   UNL d   1       4.221   2.465  -2.628  0.00  0.00    -0.532 OA
ENDBRANCH  12  17
BRANCH  14  20
ATOM     20  C   UNL d   1       3.337   6.537   0.578  0.00  0.00     0.417 C 
ATOM     21  F   UNL d   1       4.125   7.010  -0.426  0.00  0.00    -0.166 F 
ATOM     22  F   UNL d   1       2.321   7.433   0.711  0.00  0.00    -0.166 F 
ATOM     23  F   UNL d   1       4.076   6.635   1.716  0.00  0.00    -0.166 F 
ENDBRANCH  14  20
ENDBRANCH   1  11
BRANCH   3  24
ATOM     24  C   UNL d   1       2.099  -2.485  -0.062  0.00  0.00     0.008 C 
ATOM     25  C   UNL d   1       1.377  -3.619  -0.020  0.00  0.00     0.038 C 
ATOM     26  C   UNL d   1       3.596  -2.731  -0.049  0.00  0.00     0.068 C 
ENDBRANCH   3  24
TORSDOF 4
