REMARK  6 active torsions:
REMARK  status: ('A' for Active; 'I' for Inactive)
REMARK    1  A    between atoms: C_8  and  C_2 
REMARK    2  A    between atoms: S_9  and  C_5 
REMARK    3  A    between atoms: C_14  and  S_9 
REMARK    4  A    between atoms: C_10  and  C_14 
REMARK    5  A    between atoms: C_13  and  C_10 
REMARK    6  A    between atoms: C_11  and  C_12 
ROOT
ATOM      1  N   UNL d   1      -1.015  -0.072   0.415  0.00  0.00    -0.320 N 
ATOM      2  C   UNL d   1      -0.314   1.022  -0.034  0.00  0.00     0.132 A 
ATOM      3  N   UNL d   1       0.789   0.583  -0.620  0.00  0.00    -0.283 N 
ATOM      4  HN  UNL d   1       1.507   1.168  -1.049  1.00  0.00     0.188 HD
ATOM      5  C   UNL d   1      -0.288  -1.162   0.054  0.00  0.00     0.161 A 
ATOM      6  N   UNL d   1       0.809  -0.793  -0.554  0.00  0.00    -0.278 N 
ATOM      7  HN  UNL d   1       1.541  -1.408  -0.911  1.00  0.00     0.189 HD
ATOM      8  H   UNL d   1      -1.916  -0.078   0.862  0.00  0.00     0.169 HD
ENDROOT
BRANCH   5   9
ATOM      9  S   UNL d   1      -0.859  -2.750   0.373  0.00  0.00    -0.085 SA
BRANCH   9  10
ATOM     10  C   UNL d   1       0.509  -3.759  -0.292  0.00  0.00     0.166 C 
BRANCH  10  11
ATOM     11  C   UNL d   1       0.183  -5.246  -0.215  0.00  0.00     0.169 C 
ATOM     12  O   UNL d   1      -0.856  -5.690   0.275  0.00  0.00    -0.291 OA
BRANCH  11  13
ATOM     13  C   UNL d   1       1.170  -6.234  -0.760  0.00  0.00     0.011 A 
ATOM     14  C   UNL d   1       2.411  -5.861  -1.293  0.00  0.00     0.017 A 
ATOM     15  C   UNL d   1       3.283  -6.838  -1.794  0.00  0.00     0.025 A 
ATOM     16  C   UNL d   1       2.922  -8.184  -1.764  0.00  0.00     0.034 A 
ATOM     17  C   UNL d   1       1.696  -8.569  -1.232  0.00  0.00     0.025 A 
ATOM     18 CL   UNL d   1       3.994  -9.375  -2.388  0.00  0.00    -0.084 Cl
ATOM     19  C   UNL d   1       0.825  -7.596  -0.731  0.00  0.00     0.017 A 
ENDBRANCH  11  13
ENDBRANCH  10  11
ENDBRANCH   9  10
ENDBRANCH   5   9
BRANCH   2  20
ATOM     20  C   UNL d   1      -0.760   2.412   0.062  0.00  0.00     0.009 A 
ATOM     21  C   UNL d   1      -1.587   2.879   1.088  0.00  0.00     0.016 A 
ATOM     22  C   UNL d   1      -1.990   4.225   1.125  0.00  0.00     0.009 A 
ATOM     23  C   UNL d   1      -1.591   5.146   0.137  0.00  0.00    -0.051 A 
ATOM     24  C   UNL d   1      -0.754   4.663  -0.878  0.00  0.00     0.009 A 
ATOM     25  C   UNL d   1      -0.343   3.325  -0.911  0.00  0.00     0.016 A 
BRANCH  23  26
ATOM     26  C   UNL d   1      -2.070   6.611   0.185  0.00  0.00    -0.024 C 
ATOM     27  C   UNL d   1      -1.550   7.471  -0.991  0.00  0.00     0.019 C 
ATOM     28  C   UNL d   1      -3.612   6.657   0.133  0.00  0.00     0.019 C 
ATOM     29  C   UNL d   1      -1.590   7.287   1.487  0.00  0.00     0.019 C 
ENDBRANCH  23  26
ENDBRANCH   2  20
TORSDOF 6
