REMARK  9 active torsions:
REMARK  status: ('A' for Active; 'I' for Inactive)
REMARK    1  A    between atoms: O_16  and  C_1 
REMARK    2  A    between atoms: O_17  and  C_2 
REMARK    3  A    between atoms: O_21  and  C_3 
REMARK    4  A    between atoms: O_19  and  C_4 
REMARK    5  A    between atoms: O_20  and  C_5 
REMARK    6  A    between atoms: O_18  and  C_6 
REMARK    7  A    between atoms: N_7  and  C_22 
REMARK    8  A    between atoms: C_13  and  C_15 
REMARK    9  A    between atoms: C_22  and  C_14 
ROOT
ATOM      1  N   UNL d   1      -3.621  -0.872   0.056  0.00  0.00    -0.394 N 
ATOM      2  HN  UNL d   1      -3.265  -1.626   0.643  1.00  0.00     0.159 HD
ATOM      3  C   UNL d   1      -4.745  -0.955  -0.564  0.00  0.00     0.094 C 
ENDROOT
BRANCH   1   4
ATOM      4  C   UNL d   1      -2.885   0.383  -0.138  0.00  0.00     0.157 C 
BRANCH   4   5
ATOM      5  C   UNL d   1      -1.602   0.157  -0.907  0.00  0.00    -0.035 A 
ATOM      6  C   UNL d   1      -1.028   1.179  -1.668  0.00  0.00     0.048 A 
ATOM      7  C   UNL d   1       0.177   0.982  -2.372  0.00  0.00     0.104 A 
ATOM      8  C   UNL d   1       0.829  -0.261  -2.290  0.00  0.00     0.135 A 
ATOM      9  C   UNL d   1       0.306  -1.264  -1.446  0.00  0.00     0.104 A 
ATOM     10  C   UNL d   1      -0.922  -1.059  -0.806  0.00  0.00     0.048 A 
BRANCH   7  11
ATOM     11  O   UNL d   1       0.541   2.108  -3.066  0.00  0.00    -0.353 OA
ATOM     12  C   UNL d   1       1.762   2.110  -3.786  0.00  0.00     0.210 C 
ENDBRANCH   7  11
BRANCH   8  13
ATOM     13  O   UNL d   1       2.030  -0.438  -2.933  0.00  0.00    -0.351 OA
ATOM     14  C   UNL d   1       2.090  -1.579  -3.791  0.00  0.00     0.210 C 
ENDBRANCH   8  13
BRANCH   9  15
ATOM     15  O   UNL d   1       1.053  -2.404  -1.268  0.00  0.00    -0.353 OA
ATOM     16  C   UNL d   1       0.706  -3.226  -0.156  0.00  0.00     0.210 C 
ENDBRANCH   9  15
ENDBRANCH   4   5
ENDBRANCH   1   4
BRANCH   3  17
ATOM     17  C   UNL d   1      -5.543  -2.198  -0.561  0.00  0.00    -0.016 A 
ATOM     18  C   UNL d   1      -5.044  -3.378  -0.017  0.00  0.00     0.052 A 
ATOM     19  C   UNL d   1      -5.795  -4.563  -0.056  0.00  0.00     0.105 A 
ATOM     20  C   UNL d   1      -7.077  -4.544  -0.639  0.00  0.00     0.135 A 
ATOM     21  C   UNL d   1      -7.607  -3.322  -1.122  0.00  0.00     0.105 A 
ATOM     22  C   UNL d   1      -6.815  -2.169  -1.128  0.00  0.00     0.052 A 
BRANCH  19  23
ATOM     23  O   UNL d   1      -5.118  -5.611   0.509  0.00  0.00    -0.353 OA
ATOM     24  C   UNL d   1      -5.761  -6.866   0.647  0.00  0.00     0.210 C 
ENDBRANCH  19  23
BRANCH  20  25
ATOM     25  O   UNL d   1      -7.841  -5.683  -0.616  0.00  0.00    -0.351 OA
ATOM     26  C   UNL d   1      -8.352  -6.099  -1.886  0.00  0.00     0.210 C 
ENDBRANCH  20  25
BRANCH  21  27
ATOM     27  O   UNL d   1      -8.913  -3.325  -1.554  0.00  0.00    -0.353 OA
ATOM     28  C   UNL d   1      -9.555  -2.062  -1.682  0.00  0.00     0.210 C 
ENDBRANCH  21  27
ENDBRANCH   3  17
TORSDOF 9
