REMARK  3 active torsions:
REMARK  status: ('A' for Active; 'I' for Inactive)
REMARK    1  A    between atoms: C_14  and  N_6 
REMARK    2  A    between atoms: C_9  and  O_15 
REMARK    3  A    between atoms: O_15  and  C_23 
ROOT
ATOM      1  N   UNL d   1       0.392   0.494  -0.443  0.00  0.00    -0.315 N 
ATOM      2  C   UNL d   1       0.828  -0.810  -0.393  0.00  0.00     0.115 A 
ATOM      3  N   UNL d   1      -0.188  -1.635  -0.227  0.00  0.00    -0.342 N 
ATOM      4  HN  UNL d   1      -0.153  -2.654  -0.192  1.00  0.00     0.167 HD
ATOM      5  C   UNL d   1       1.259   1.653  -0.580  0.00  0.00     0.259 C 
ATOM      6  N   UNL d   1       2.326   1.766   0.409  0.00  0.00    -0.343 N 
ATOM      7  C   UNL d   1      -0.976   0.498  -0.284  0.00  0.00     0.065 A 
ATOM      8  C   UNL d   1      -1.300  -0.844  -0.112  0.00  0.00     0.060 A 
ATOM      9  C   UNL d   1       3.419   0.806   0.323  0.00  0.00     0.296 C 
ATOM     10  O   UNL d   1       3.001  -0.528   0.556  0.00  0.00    -0.359 OA
ATOM     11  C   UNL d   1      -1.940   1.518  -0.231  0.00  0.00     0.056 A 
ATOM     12  C   UNL d   1       2.273  -1.203  -0.469  0.00  0.00     0.187 C 
ATOM     13  C   UNL d   1      -2.629  -1.208   0.155  0.00  0.00     0.033 A 
ATOM     14  C   UNL d   1      -3.256   1.133   0.047  0.00  0.00     0.036 A 
ATOM     15  C   UNL d   1      -3.602  -0.203   0.243  0.00  0.00     0.026 A 
ATOM     16 CL   UNL d   1      -4.470   2.349   0.172  0.00  0.00    -0.084 Cl
ATOM     17  C   UNL d   1       2.863  -1.111  -1.874  0.00  0.00     0.048 C 
ENDROOT
BRANCH   6  18
ATOM     18  C   UNL d   1       2.117   2.471   1.587  0.00  0.00     0.033 A 
ATOM     19  C   UNL d   1       0.850   2.632   2.159  0.00  0.00     0.032 A 
ATOM     20  C   UNL d   1       0.647   3.384   3.322  0.00  0.00     0.039 A 
ATOM     21  C   UNL d   1       1.719   3.995   3.965  0.00  0.00     0.078 A 
ATOM     22  C   UNL d   1       2.981   3.890   3.400  0.00  0.00     0.039 A 
ATOM     23  C   UNL d   1       3.177   3.124   2.237  0.00  0.00     0.032 A 
BRANCH  21  24
ATOM     24  O   UNL d   1       1.388   4.712   5.070  0.00  0.00    -0.255 OA
BRANCH  24  25
ATOM     25  C   UNL d   1       2.304   4.780   6.152  0.00  0.00     0.530 C 
ATOM     26  F   UNL d   1       3.409   4.022   5.999  0.00  0.00    -0.144 F 
ATOM     27  F   UNL d   1       2.682   6.065   6.329  0.00  0.00    -0.144 F 
ATOM     28  F   UNL d   1       1.672   4.371   7.276  0.00  0.00    -0.144 F 
ENDBRANCH  24  25
ENDBRANCH  21  24
ENDBRANCH   6  18
TORSDOF 3
