REMARK  6 active torsions:
REMARK  status: ('A' for Active; 'I' for Inactive)
REMARK    1  A    between atoms: N_8  and  C_1 
REMARK       I    between atoms: C_9  and  N_8 
REMARK    2  A    between atoms: C_13  and  C_9 
REMARK    3  A    between atoms: C_24  and  C_23 
REMARK    4  A    between atoms: C_25  and  C_24 
REMARK    5  A    between atoms: C_27  and  C_25 
REMARK    6  A    between atoms: C_26  and  C_27 
ROOT
ATOM      1  N   UNL d   1       4.970  -1.304  -1.295  0.00  0.00    -0.303 N 
ATOM      2  C   UNL d   1       4.873  -0.736  -0.025  0.00  0.00     0.257 C 
ATOM      3  O   UNL d   1       4.602  -1.329   1.013  0.00  0.00    -0.267 OA
ATOM      4  H   UNL d   1       5.122  -0.683  -2.076  0.00  0.00     0.171 HD
ENDROOT
BRANCH   1   5
ATOM      5  C   UNL d   1       4.928  -2.620  -1.705  0.00  0.00     0.155 C 
ATOM      6  S   UNL d   1       4.630  -3.846  -0.527  0.00  0.00    -0.011 SA
ATOM      7  C   UNL d   1       5.674  -5.037  -1.238  0.00  0.00     0.229 C 
ATOM      8  O   UNL d   1       6.394  -5.751  -0.558  0.00  0.00    -0.279 OA
ATOM      9  C   UNL d   1       5.561  -5.224  -2.681  0.00  0.00     0.051 A 
ATOM     10  C   UNL d   1       5.196  -4.139  -3.485  0.00  0.00     0.066 A 
ATOM     11  C   UNL d   1       5.792  -6.503  -3.204  0.00  0.00     0.037 A 
ATOM     12  N   UNL d   1       5.121  -2.826  -2.968  0.00  0.00    -0.334 N 
ATOM     13  C   UNL d   1       5.006  -4.396  -4.854  0.00  0.00     0.040 A 
ATOM     14  HN  UNL d   1       5.221  -2.030  -3.598  1.00  0.00     0.168 HD
ATOM     15  C   UNL d   1       5.196  -5.680  -5.389  0.00  0.00     0.040 A 
ATOM     16 BR   UNL d   1       4.476  -3.017  -6.050  0.00  0.00    -0.049 Br
ATOM     17  C   UNL d   1       5.603  -6.722  -4.561  0.00  0.00     0.013 A 
ATOM     18 BR   UNL d   1       5.884  -8.448  -5.274  0.00  0.00    -0.051 Br
ENDBRANCH   1   5
BRANCH   2  19
ATOM     19  C   UNL d   1       5.039   0.741   0.028  0.00  0.00     0.032 A 
ATOM     20  C   UNL d   1       4.311   1.454   0.987  0.00  0.00     0.017 A 
ATOM     21  C   UNL d   1       4.328   2.849   0.986  0.00  0.00     0.008 A 
ATOM     22  C   UNL d   1       5.082   3.545   0.032  0.00  0.00    -0.058 A 
ATOM     23  C   UNL d   1       5.888   2.822  -0.859  0.00  0.00     0.008 A 
ATOM     24  C   UNL d   1       5.870   1.427  -0.864  0.00  0.00     0.017 A 
BRANCH  22  25
ATOM     25  C   UNL d   1       5.002   5.050  -0.054  0.00  0.00     0.038 C 
BRANCH  25  26
ATOM     26  C   UNL d   1       4.502   5.556  -1.416  0.00  0.00     0.005 C 
BRANCH  26  27
ATOM     27  C   UNL d   1       3.080   5.090  -1.757  0.00  0.00    -0.000 C 
BRANCH  27  28
ATOM     28  C   UNL d   1       2.641   5.627  -3.120  0.00  0.00    -0.005 C 
ATOM     29  C   UNL d   1       1.239   5.164  -3.482  0.00  0.00     0.005 C 
ENDBRANCH  27  28
ENDBRANCH  26  27
ENDBRANCH  25  26
ENDBRANCH  22  25
ENDBRANCH   2  19
TORSDOF 6
