REMARK  1 active torsions:
REMARK  status: ('A' for Active; 'I' for Inactive)
REMARK    1  A    between atoms: C_9  and  C_4 
ROOT
ATOM      1  C   UNL d   1      -2.434   0.721  -0.138  0.00  0.00     0.238 C 
ATOM      2  C   UNL d   1      -1.195  -1.475  -0.006  0.00  0.00     0.179 C 
ATOM      3  N   UNL d   1      -1.215   1.351  -0.118  0.00  0.00    -0.325 N 
ATOM      4  C   UNL d   1      -2.448  -0.707   0.377  0.00  0.00     0.186 C 
ATOM      5  C   UNL d   1       0.067  -0.701  -0.010  0.00  0.00     0.038 A 
ATOM      6  C   UNL d   1       0.020   0.700   0.007  0.00  0.00     0.054 A 
ATOM      7  O   UNL d   1      -3.430   1.363  -0.461  0.00  0.00    -0.272 OA
ATOM      8  O   UNL d   1      -1.152  -2.684  -0.208  0.00  0.00    -0.291 OA
ATOM      9  C   UNL d   1       1.218   1.434   0.069  0.00  0.00    -0.034 A 
ATOM     10  C   UNL d   1       1.289  -1.380  -0.036  0.00  0.00     0.017 A 
ATOM     11  C   UNL d   1       2.477  -0.659  -0.007  0.00  0.00     0.002 A 
ATOM     12  C   UNL d   1       2.441   0.734   0.060  0.00  0.00     0.009 A 
ATOM     13  C   UNL d   1       1.293   2.935   0.158  0.00  0.00     0.050 C 
ATOM     14  H   UNL d   1      -1.256   2.338  -0.337  0.00  0.00     0.169 HD
ENDROOT
BRANCH   4  15
ATOM     15  C   UNL d   1      -3.737  -1.452   0.066  0.00  0.00    -0.037 A 
ATOM     16  C   UNL d   1      -4.651  -1.741   1.095  0.00  0.00     0.008 A 
ATOM     17  C   UNL d   1      -5.821  -2.455   0.828  0.00  0.00     0.001 A 
ATOM     18  C   UNL d   1      -6.094  -2.885  -0.468  0.00  0.00     0.000 A 
ATOM     19  C   UNL d   1      -5.207  -2.589  -1.501  0.00  0.00     0.001 A 
ATOM     20  C   UNL d   1      -4.039  -1.871  -1.238  0.00  0.00     0.008 A 
ENDBRANCH   4  15
TORSDOF 1
