REMARK  4 active torsions:
REMARK  status: ('A' for Active; 'I' for Inactive)
REMARK       I    between atoms: N_2  and  C_1 
REMARK    1  A    between atoms: C_3  and  C_1 
REMARK    2  A    between atoms: C_5  and  N_2 
REMARK    3  A    between atoms: C_10  and  N_2 
REMARK    4  A    between atoms: C_4  and  C_5 
ROOT
ATOM      1  C   UNL d   1       0.877  -0.253   0.281  0.00  0.00     0.260 C 
ATOM      2  N   UNL d   1       0.227  -0.948  -0.768  0.00  0.00    -0.309 N 
ATOM      3  O   UNL d   1       0.241   0.421   1.094  0.00  0.00    -0.267 OA
ENDROOT
BRANCH   2   4
ATOM      4  C   UNL d   1      -1.262  -0.950  -0.884  0.00  0.00     0.093 C 
ATOM      5  C   UNL d   1      -1.942   0.410  -0.672  0.00  0.00     0.033 C 
BRANCH   4   6
ATOM      6  C   UNL d   1      -1.895  -2.000   0.011  0.00  0.00     0.009 A 
ATOM      7  C   UNL d   1      -1.633  -3.487  -0.108  0.00  0.00     0.007 A 
ATOM      8  C   UNL d   1      -2.935  -2.924  -0.588  0.00  0.00     0.007 A 
ENDBRANCH   4   6
ENDBRANCH   2   4
BRANCH   2   9
ATOM      9  C   UNL d   1       0.881  -1.883  -1.627  0.00  0.00     0.037 A 
ATOM     10  C   UNL d   1       1.680  -2.912  -1.118  0.00  0.00     0.030 A 
ATOM     11  C   UNL d   1       2.334  -3.782  -1.985  0.00  0.00     0.002 A 
ATOM     12  C   UNL d   1       2.195  -3.630  -3.371  0.00  0.00     0.000 A 
ATOM     13  C   UNL d   1       1.395  -2.620  -3.884  0.00  0.00     0.002 A 
ATOM     14  C   UNL d   1       0.727  -1.750  -3.015  0.00  0.00     0.030 A 
ENDBRANCH   2   9
BRANCH   1  15
ATOM     15  C   UNL d   1       2.381  -0.234   0.399  0.00  0.00     0.054 A 
ATOM     16  C   UNL d   1       3.021  -0.211   1.651  0.00  0.00     0.049 A 
ATOM     17 CL   UNL d   1       2.193  -0.109   3.167  0.00  0.00    -0.083 Cl
ATOM     18  C   UNL d   1       4.422  -0.300   1.734  0.00  0.00     0.025 A 
ATOM     19  C   UNL d   1       5.198  -0.431   0.586  0.00  0.00     0.002 A 
ATOM     20  C   UNL d   1       4.586  -0.390  -0.659  0.00  0.00     0.001 A 
ATOM     21  C   UNL d   1       3.198  -0.239  -0.749  0.00  0.00     0.019 A 
ENDBRANCH   1  15
TORSDOF 4
