REMARK  4 active torsions:
REMARK  status: ('A' for Active; 'I' for Inactive)
REMARK       I    between atoms: N_2  and  C_1 
REMARK    1  A    between atoms: C_5  and  C_1 
REMARK    2  A    between atoms: C_4  and  N_2 
REMARK    3  A    between atoms: C_3  and  C_5 
REMARK    4  A    between atoms: O_23  and  C_19 
ROOT
ATOM      1  C   UNL d   1       0.170  -0.789   0.880  0.00  0.00     0.107 C 
ATOM      2  C   UNL d   1       1.102  -1.787   0.177  0.00  0.00     0.025 C 
ENDROOT
BRANCH   1   3
ATOM      3  C   UNL d   1       0.540  -0.576   2.340  0.00  0.00    -0.044 A 
ATOM      4  C   UNL d   1       0.561   0.727   2.870  0.00  0.00     0.020 A 
ATOM      5  C   UNL d   1       0.882   0.963   4.218  0.00  0.00    -0.025 A 
ATOM      6  C   UNL d   1       0.884   2.259   4.753  0.00  0.00     0.015 A 
ATOM      7  C   UNL d   1       1.212  -0.124   5.052  0.00  0.00    -0.023 A 
ATOM      8  C   UNL d   1       1.216   2.483   6.093  0.00  0.00     0.037 A 
ATOM      9  C   UNL d   1       1.556   1.412   6.918  0.00  0.00     0.069 A 
ATOM     10  C   UNL d   1       1.553   0.117   6.394  0.00  0.00     0.049 A 
ATOM     11  C   UNL d   1       1.188  -1.421   4.525  0.00  0.00     0.013 A 
ATOM     12  C   UNL d   1       0.842  -1.645   3.189  0.00  0.00     0.009 A 
BRANCH   9  13
ATOM     13  O   UNL d   1       1.908   1.495   8.237  0.00  0.00    -0.356 OA
ATOM     14  C   UNL d   1       1.918   2.793   8.818  0.00  0.00     0.210 C 
ENDBRANCH   9  13
ENDBRANCH   1   3
BRANCH   1  15
ATOM     15  C   UNL d   1      -1.296  -1.222   0.721  0.00  0.00     0.230 C 
ATOM     16  N   UNL d   1      -2.201  -0.207   0.999  0.00  0.00    -0.326 N 
ATOM     17  H   UNL d   1      -1.813   0.699   1.239  0.00  0.00     0.169 HD
ATOM     18  O   UNL d   1      -1.591  -2.351   0.336  0.00  0.00    -0.272 OA
BRANCH  16  19
ATOM     19  C   UNL d   1      -3.607  -0.272   0.865  0.00  0.00     0.037 A 
ATOM     20  C   UNL d   1      -4.308  -1.465   0.673  0.00  0.00     0.053 A 
ATOM     21  C   UNL d   1      -5.690  -1.449   0.481  0.00  0.00     0.037 A 
ATOM     22 CL   UNL d   1      -6.532  -2.929   0.232  0.00  0.00    -0.084 Cl
ATOM     23  C   UNL d   1      -6.395  -0.250   0.479  0.00  0.00     0.048 A 
ATOM     24  C   UNL d   1      -5.703   0.936   0.699  0.00  0.00     0.037 A 
ATOM     25  C   UNL d   1      -4.321   0.933   0.906  0.00  0.00     0.053 A 
ATOM     26 CL   UNL d   1      -6.559   2.430   0.694  0.00  0.00    -0.084 Cl
ENDBRANCH  16  19
ENDBRANCH   1  15
TORSDOF 4
