REMARK  8 active torsions:
REMARK  status: ('A' for Active; 'I' for Inactive)
REMARK    1  A    between atoms: C_4  and  C_1 
REMARK    2  A    between atoms: N_6  and  C_2 
REMARK    3  A    between atoms: O_22  and  C_3 
REMARK    4  A    between atoms: O_24  and  C_4 
REMARK    5  A    between atoms: C_11  and  C_7 
REMARK       I    between atoms: C_8  and  N_13 
REMARK    6  A    between atoms: C_9  and  C_8 
REMARK    7  A    between atoms: N_13  and  C_15 
REMARK    8  A    between atoms: O_25  and  C_14 
ROOT
ATOM      1  C   UNL d   1      -0.376   3.737   0.435  0.00  0.00     0.245 C 
ATOM      2  N   UNL d   1      -1.000   2.553   0.086  0.00  0.00    -0.324 N 
ATOM      3  O   UNL d   1       0.821   3.976   0.369  0.00  0.00    -0.268 OA
ATOM      4  H   UNL d   1      -2.009   2.550   0.026  0.00  0.00     0.169 HD
ENDROOT
BRANCH   2   5
ATOM      5  C   UNL d   1      -0.368   1.300  -0.085  0.00  0.00     0.036 A 
ATOM      6  C   UNL d   1       0.975   1.065   0.196  0.00  0.00     0.049 A 
ATOM      7  C   UNL d   1       1.526  -0.236   0.142  0.00  0.00     0.068 A 
ATOM      8  C   UNL d   1       0.722  -1.356  -0.185  0.00  0.00     0.046 A 
ATOM      9  C   UNL d   1      -0.612  -1.079  -0.542  0.00  0.00     0.032 A 
ATOM     10  C   UNL d   1      -1.150   0.218  -0.490  0.00  0.00     0.032 A 
BRANCH   7  11
ATOM     11  C   UNL d   1       3.004  -0.359   0.341  0.00  0.00     0.295 C 
ATOM     12  O   UNL d   1       3.730  -1.172  -0.207  0.00  0.00    -0.259 OA
BRANCH  11  13
ATOM     13  O   UNL d   1       3.415   0.564   1.251  0.00  0.00    -0.322 OA
ATOM     14  C   UNL d   1       4.825   0.619   1.476  0.00  0.00     0.213 C 
ENDBRANCH  11  13
ENDBRANCH   7  11
BRANCH   8  15
ATOM     15  N   UNL d   1       1.196  -2.662  -0.172  0.00  0.00    -0.376 N 
ATOM     16  C   UNL d   1       0.582  -3.733  -0.975  0.00  0.00     0.149 C 
ATOM     17  C   UNL d   1       1.648  -4.807  -1.258  0.00  0.00     0.187 C 
ATOM     18  O   UNL d   1       2.202  -5.338  -0.041  0.00  0.00    -0.388 OA
ATOM     19  C   UNL d   1       2.816  -4.281   0.723  0.00  0.00     0.187 C 
ATOM     20  C   UNL d   1       1.792  -3.188   1.078  0.00  0.00     0.149 C 
ENDBRANCH   8  15
ENDBRANCH   2   5
BRANCH   1  21
ATOM     21  C   UNL d   1      -1.329   4.754   0.970  0.00  0.00     0.075 C 
ATOM     22  C   UNL d   1      -0.836   5.863   1.551  0.00  0.00     0.018 C 
BRANCH  22  23
ATOM     23  C   UNL d   1      -1.627   6.884   2.269  0.00  0.00    -0.011 A 
ATOM     24  C   UNL d   1      -2.594   6.614   3.266  0.00  0.00     0.080 A 
ATOM     25  C   UNL d   1      -3.308   7.666   3.901  0.00  0.00     0.124 A 
ATOM     26 CL   UNL d   1      -2.768   4.972   3.837  0.00  0.00    -0.080 Cl
ATOM     27  C   UNL d   1      -2.941   8.997   3.631  0.00  0.00     0.103 A 
ATOM     28  C   UNL d   1      -1.925   9.254   2.702  0.00  0.00     0.040 A 
ATOM     29  C   UNL d   1      -1.289   8.218   2.017  0.00  0.00     0.016 A 
BRANCH  25  30
ATOM     30  O   UNL d   1      -4.264   7.445   4.863  0.00  0.00    -0.351 OA
ATOM     31  C   UNL d   1      -5.298   6.521   4.527  0.00  0.00     0.210 C 
ENDBRANCH  25  30
BRANCH  27  32
ATOM     32  O   UNL d   1      -3.425  10.159   4.173  0.00  0.00    -0.353 OA
ATOM     33  C   UNL d   1      -4.497  10.111   5.100  0.00  0.00     0.210 C 
ENDBRANCH  27  32
ENDBRANCH  22  23
ENDBRANCH   1  21
TORSDOF 8
