REMARK  5 active torsions:
REMARK  status: ('A' for Active; 'I' for Inactive)
REMARK    1  A    between atoms: N_4  and  C_3 
REMARK    2  A    between atoms: C_20  and  N_13 
REMARK    3  A    between atoms: C_14  and  N_19 
REMARK    4  A    between atoms: N_19  and  C_21 
REMARK    5  A    between atoms: C_21  and  C_20 
ROOT
ATOM      1  C   UNL d   1      -0.028  -0.420   0.059  0.00  0.00     0.139 C 
ATOM      2  C   UNL d   1       0.074  -1.759  -0.029  0.00  0.00     0.119 C 
ATOM      3  C   UNL d   1       1.109   0.429   0.138  0.00  0.00     0.112 C 
ATOM      4  C   UNL d   1      -1.312   0.180  -0.011  0.00  0.00     0.112 C 
ATOM      5  N   UNL d   1       2.049   1.107   0.196  0.00  0.00    -0.191 NA
ATOM      6  N   UNL d   1      -2.372   0.654  -0.070  0.00  0.00    -0.191 NA
ENDROOT
BRANCH   2   7
ATOM      7  N   UNL d   1       1.161  -2.623   0.016  0.00  0.00    -0.385 N 
ATOM      8  C   UNL d   1       2.408  -2.385   0.777  0.00  0.00     0.152 C 
ATOM      9  C   UNL d   1       3.629  -2.355  -0.171  0.00  0.00     0.292 C 
ATOM     10  N   UNL d   1       3.766  -3.565  -1.027  0.00  0.00     0.093 N 
ATOM     11  C   UNL d   1       2.484  -3.740  -1.760  0.00  0.00     0.292 C 
ATOM     12  C   UNL d   1       1.226  -3.816  -0.858  0.00  0.00     0.152 C 
BRANCH  10  13
ATOM     13  C   UNL d   1       4.105  -4.742  -0.199  0.00  0.00     0.292 C 
BRANCH  13  14
ATOM     14  C   UNL d   1       4.299  -6.056  -0.977  0.00  0.00     0.149 C 
BRANCH  14  15
ATOM     15  N   UNL d   1       5.398  -5.967  -1.935  0.00  0.00    -0.395 N 
ATOM     16  H   UNL d   1       5.877  -5.062  -1.933  0.00  0.00     0.159 HD
BRANCH  15  17
ATOM     17  C   UNL d   1       6.117  -7.040  -2.418  0.00  0.00     0.117 C 
ATOM     18  C   UNL d   1       5.771  -8.336  -2.580  0.00  0.00     0.139 C 
ATOM     19  C   UNL d   1       4.456  -8.809  -2.325  0.00  0.00     0.112 C 
ATOM     20  C   UNL d   1       6.750  -9.271  -3.010  0.00  0.00     0.112 C 
ATOM     21  N   UNL d   1       3.381  -9.180  -2.100  0.00  0.00    -0.191 NA
ATOM     22  N   UNL d   1       7.561 -10.035  -3.334  0.00  0.00    -0.191 NA
ENDBRANCH  15  17
ENDBRANCH  14  15
ENDBRANCH  13  14
ENDBRANCH  10  13
ENDBRANCH   2   7
TORSDOF 5
