REMARK  8 active torsions:
REMARK  status: ('A' for Active; 'I' for Inactive)
REMARK    1  A    between atoms: C_3  and  C_1 
REMARK    2  A    between atoms: C_7  and  C_2 
REMARK    3  A    between atoms: O_14  and  C_3 
REMARK    4  A    between atoms: O_8  and  C_6 
REMARK    5  A    between atoms: C_15  and  O_8 
REMARK    6  A    between atoms: O_16  and  C_10 
REMARK    7  A    between atoms: C_18  and  O_14 
REMARK    8  A    between atoms: C_17  and  C_15 
ROOT
ATOM      1  C   UNL d   1       0.843  -0.856  -0.012  0.00  0.00     0.120 C 
ATOM      2  C   UNL d   1       0.358  -0.461   1.177  0.00  0.00     0.040 C 
ATOM      3  C   UNL d   1       2.030  -1.636  -0.139  0.00  0.00     0.105 C 
ATOM      4  N   UNL d   1       2.984  -2.284  -0.227  0.00  0.00    -0.191 NA
ENDROOT
BRANCH   1   5
ATOM      5  C   UNL d   1       0.066  -0.519  -1.225  0.00  0.00     0.303 C 
ATOM      6  O   UNL d   1      -0.976   0.121  -1.222  0.00  0.00    -0.258 OA
BRANCH   5   7
ATOM      7  O   UNL d   1       0.629  -1.111  -2.307  0.00  0.00    -0.317 OA
BRANCH   7   8
ATOM      8  C   UNL d   1      -0.230  -1.299  -3.438  0.00  0.00     0.174 C 
ATOM      9  C   UNL d   1      -0.972  -2.609  -3.241  0.00  0.00     0.034 C 
ENDBRANCH   7   8
ENDBRANCH   5   7
ENDBRANCH   1   5
BRANCH   2  10
ATOM     10  C   UNL d   1       1.034  -0.775   2.436  0.00  0.00    -0.032 A 
ATOM     11  C   UNL d   1       2.055   0.066   2.886  0.00  0.00     0.051 A 
ATOM     12  C   UNL d   1       2.864  -0.294   3.973  0.00  0.00     0.103 A 
ATOM     13  C   UNL d   1       2.587  -1.489   4.658  0.00  0.00     0.101 A 
ATOM     14  C   UNL d   1       1.543  -2.314   4.214  0.00  0.00     0.040 A 
ATOM     15  C   UNL d   1       0.770  -1.966   3.108  0.00  0.00     0.014 A 
BRANCH  12  16
ATOM     16  O   UNL d   1       3.912   0.492   4.381  0.00  0.00    -0.344 OA
BRANCH  16  17
ATOM     17  C   UNL d   1       4.596   1.196   3.341  0.00  0.00     0.214 C 
BRANCH  17  18
ATOM     18  C   UNL d   1       5.794   1.897   3.926  0.00  0.00    -0.034 A 
ATOM     19  C   UNL d   1       7.054   1.287   3.933  0.00  0.00     0.009 A 
ATOM     20  C   UNL d   1       8.159   1.959   4.458  0.00  0.00     0.001 A 
ATOM     21  C   UNL d   1       8.013   3.241   4.987  0.00  0.00     0.000 A 
ATOM     22  C   UNL d   1       6.759   3.850   5.001  0.00  0.00     0.001 A 
ATOM     23  C   UNL d   1       5.654   3.178   4.479  0.00  0.00     0.009 A 
ENDBRANCH  17  18
ENDBRANCH  16  17
ENDBRANCH  12  16
BRANCH  13  24
ATOM     24  O   UNL d   1       3.273  -2.023   5.716  0.00  0.00    -0.353 OA
ATOM     25  C   UNL d   1       3.913  -1.113   6.601  0.00  0.00     0.210 C 
ENDBRANCH  13  24
ENDBRANCH   2  10
TORSDOF 8
