REMARK  5 active torsions:
REMARK  status: ('A' for Active; 'I' for Inactive)
REMARK    1  A    between atoms: C_7  and  C_3 
REMARK    2  A    between atoms: C_15  and  C_4 
REMARK    3  A    between atoms: O_16  and  C_15 
REMARK    4  A    between atoms: C_17  and  O_16 
REMARK    5  A    between atoms: O_24  and  C_18 
ROOT
ATOM      1  N   UNL d   1       1.450  -0.574   0.023  0.00  0.00    -0.351 N 
ATOM      2  HN  UNL d   1       2.341  -1.071   0.004  1.00  0.00     0.166 HD
ATOM      3  C   UNL d   1       1.312   0.806   0.020  0.00  0.00     0.049 A 
ATOM      4  C   UNL d   1       0.266  -1.151   0.054  0.00  0.00     0.075 A 
ATOM      5  S   UNL d   1      -1.076  -0.073   0.075  0.00  0.00    -0.084 SA
ATOM      6  C   UNL d   1       0.005   1.255   0.046  0.00  0.00     0.082 A 
ENDROOT
BRANCH   3   7
ATOM      7  C   UNL d   1       2.477   1.684   0.017  0.00  0.00    -0.006 A 
ATOM      8  C   UNL d   1       2.430   2.967  -0.544  0.00  0.00     0.053 A 
ATOM      9  C   UNL d   1       3.561   3.792  -0.542  0.00  0.00     0.102 A 
ATOM     10  O   UNL d   1       3.390   5.001  -1.170  0.00  0.00    -0.348 OA
ATOM     11  C   UNL d   1       4.742   3.360   0.074  0.00  0.00     0.102 A 
ATOM     12  C   UNL d   1       4.542   5.414  -1.905  0.00  0.00     0.178 C 
ATOM     13  C   UNL d   1       5.516   6.167  -1.016  0.00  0.00     0.053 C 
ATOM     14  C   UNL d   1       5.684   5.495   0.336  0.00  0.00     0.178 C 
ATOM     15  O   UNL d   1       5.897   4.091   0.194  0.00  0.00    -0.348 OA
ATOM     16  C   UNL d   1       4.804   2.071   0.607  0.00  0.00     0.040 A 
ATOM     17  C   UNL d   1       3.682   1.238   0.576  0.00  0.00     0.017 A 
ENDBRANCH   3   7
BRANCH   4  18
ATOM     18  C   UNL d   1       0.034  -2.631   0.019  0.00  0.00     0.240 C 
BRANCH  18  19
ATOM     19  O   UNL d   1       0.024  -3.103   1.369  0.00  0.00    -0.345 OA
BRANCH  19  20
ATOM     20  C   UNL d   1      -0.154  -4.450   1.538  0.00  0.00     0.069 A 
ATOM     21  C   UNL d   1      -0.392  -5.372   0.518  0.00  0.00     0.039 A 
ATOM     22  C   UNL d   1      -0.574  -6.728   0.813  0.00  0.00     0.039 A 
ATOM     23  C   UNL d   1      -0.519  -7.176   2.131  0.00  0.00     0.068 A 
ATOM     24  C   UNL d   1      -0.270  -6.256   3.151  0.00  0.00     0.039 A 
ATOM     25  C   UNL d   1      -0.089  -4.902   2.857  0.00  0.00     0.039 A 
BRANCH  23  26
ATOM     26  O   UNL d   1      -0.696  -8.470   2.542  0.00  0.00    -0.356 OA
ATOM     27  C   UNL d   1      -0.993  -9.424   1.529  0.00  0.00     0.210 C 
ENDBRANCH  23  26
ENDBRANCH  19  20
ENDBRANCH  18  19
ENDBRANCH   4  18
TORSDOF 5
