REMARK  7 active torsions:
REMARK  status: ('A' for Active; 'I' for Inactive)
REMARK    1  A    between atoms: C_11  and  N_9 
REMARK    2  A    between atoms: C_19  and  C_11 
REMARK    3  A    between atoms: N_14  and  C_20 
REMARK    4  A    between atoms: C_15  and  N_14 
REMARK    5  A    between atoms: O_21  and  C_18 
REMARK    6  A    between atoms: C_20  and  C_19 
REMARK    7  A    between atoms: O_22  and  C_19 
ROOT
ATOM      1  C   UNL d   1       1.851   2.409   0.237  0.00  0.00     0.163 C 
ENDROOT
BRANCH   1   2
ATOM      2  N   UNL d   1       1.476   2.895   1.554  0.00  0.00    -0.333 N 
ATOM      3  C   UNL d   1       1.792   2.350   2.773  0.00  0.00     0.149 A 
ATOM      4  C   UNL d   1       1.363   3.271   3.686  0.00  0.00     0.145 A 
ATOM      5  C   UNL d   1       2.443   1.145   3.141  0.00  0.00     0.282 A 
ATOM      6  N   UNL d   1       1.606   3.121   5.031  0.00  0.00    -0.287 N 
ATOM      7  N   UNL d   1       0.704   4.304   3.096  0.00  0.00    -0.336 N 
ATOM      8  C   UNL d   1       2.229   1.958   5.490  0.00  0.00     0.332 A 
ATOM      9  C   UNL d   1       1.221   4.138   5.989  0.00  0.00     0.163 C 
ATOM     10  N   UNL d   1       2.584   0.997   4.525  0.00  0.00    -0.269 N 
ATOM     11  O   UNL d   1       2.453   1.785   6.692  0.00  0.00    -0.246 OA
ATOM     12  C   UNL d   1       3.175  -0.247   4.976  0.00  0.00     0.164 C 
ATOM     13  C   UNL d   1       0.761   4.037   1.807  0.00  0.00     0.185 A 
ATOM     14  HN  UNL d   1       0.265   5.106   3.549  1.00  0.00     0.168 HD
ATOM     15  O   UNL d   1       2.828   0.318   2.317  0.00  0.00    -0.265 OA
ENDBRANCH   1   2
BRANCH   1  16
ATOM     16  C   UNL d   1       3.356   2.549  -0.042  0.00  0.00     0.149 C 
BRANCH  16  17
ATOM     17  C   UNL d   1       3.738   2.052  -1.451  0.00  0.00     0.126 C 
BRANCH  17  18
ATOM     18  N   UNL d   1       3.166   2.926  -2.498  0.00  0.00    -0.288 NA
ATOM     19  H   UNL d   1       3.604   3.846  -2.426  0.00  0.00     0.127 HD
BRANCH  18  20
ATOM     20  C   UNL d   1       3.365   2.566  -3.858  0.00  0.00     0.042 A 
ATOM     21  C   UNL d   1       2.733   3.267  -4.913  0.00  0.00     0.089 A 
ATOM     22  C   UNL d   1       3.045   2.954  -6.250  0.00  0.00     0.038 A 
ATOM     23  C   UNL d   1       3.991   1.988  -6.573  0.00  0.00     0.003 A 
ATOM     24  C   UNL d   1       4.628   1.302  -5.553  0.00  0.00     0.002 A 
ATOM     25  C   UNL d   1       4.314   1.583  -4.219  0.00  0.00     0.026 A 
BRANCH  21  26
ATOM     26  O   UNL d   1       1.806   4.275  -4.865  0.00  0.00    -0.354 OA
ATOM     27  C   UNL d   1       1.396   4.829  -3.632  0.00  0.00     0.210 C 
ENDBRANCH  21  26
ENDBRANCH  18  20
ENDBRANCH  17  18
ENDBRANCH  16  17
BRANCH  16  28
ATOM     28  O   UNL d   1       3.800   3.906   0.116  0.00  0.00    -0.393 OA
ATOM     29  H   UNL d   1       3.320   4.453  -0.528  0.00  0.00     0.210 HD
ENDBRANCH  16  28
ENDBRANCH   1  16
TORSDOF 7
