REMARK  7 active torsions:
REMARK  status: ('A' for Active; 'I' for Inactive)
REMARK    1  A    between atoms: N_5  and  C_1 
REMARK    2  A    between atoms: C_8  and  C_3 
REMARK    3  A    between atoms: C_13  and  N_4 
REMARK    4  A    between atoms: C_9  and  C_8 
REMARK    5  A    between atoms: C_10  and  C_8 
REMARK    6  A    between atoms: O_18  and  C_9 
REMARK    7  A    between atoms: O_17  and  C_10 
ROOT
ATOM      1  C   UNL d   1       2.455  -0.565  -0.150  0.00  0.00     0.179 A 
ATOM      2  C   UNL d   1       2.480   0.903  -0.114  0.00  0.00     0.286 A 
ATOM      3  C   UNL d   1       1.370  -1.360  -0.056  0.00  0.00     0.016 A 
ATOM      4  N   UNL d   1       1.229   1.522  -0.042  0.00  0.00    -0.276 N 
ATOM      5  C   UNL d   1       0.056  -0.649   0.054  0.00  0.00     0.002 A 
ATOM      6  C   UNL d   1       0.007   0.768   0.001  0.00  0.00     0.054 A 
ATOM      7  O   UNL d   1       3.554   1.504  -0.111  0.00  0.00    -0.265 OA
ATOM      8  C   UNL d   1      -1.251   1.402  -0.083  0.00  0.00     0.031 A 
ATOM      9  C   UNL d   1      -1.164  -1.351   0.136  0.00  0.00     0.014 A 
ATOM     10  C   UNL d   1      -2.396  -0.696   0.113  0.00  0.00     0.001 A 
ATOM     11  C   UNL d   1      -2.441   0.680  -0.022  0.00  0.00     0.002 A 
ENDROOT
BRANCH   3  12
ATOM     12  C   UNL d   1       1.443  -2.896  -0.147  0.00  0.00     0.221 C 
BRANCH  12  13
ATOM     13  C   UNL d   1       0.871  -3.579   1.084  0.00  0.00     0.277 C 
ATOM     14  O   UNL d   1      -0.031  -4.406   1.084  0.00  0.00    -0.264 OA
BRANCH  13  15
ATOM     15  O   UNL d   1       1.497  -3.125   2.209  0.00  0.00    -0.326 OA
ATOM     16  C   UNL d   1       1.006  -3.686   3.430  0.00  0.00     0.213 C 
ENDBRANCH  13  15
ENDBRANCH  12  13
BRANCH  12  17
ATOM     17  C   UNL d   1       0.860  -3.387  -1.465  0.00  0.00     0.277 C 
ATOM     18  O   UNL d   1       0.415  -2.659  -2.344  0.00  0.00    -0.264 OA
BRANCH  17  19
ATOM     19  O   UNL d   1       0.974  -4.740  -1.575  0.00  0.00    -0.326 OA
ATOM     20  C   UNL d   1       0.448  -5.289  -2.786  0.00  0.00     0.213 C 
ENDBRANCH  17  19
ENDBRANCH  12  17
ENDBRANCH   3  12
BRANCH   1  21
ATOM     21  N   UNL d   1       3.742  -1.171  -0.341  0.00  0.00    -0.109 N 
ATOM     22  O   UNL d   1       4.105  -1.356  -1.509  0.00  0.00    -0.532 OA
ATOM     23  O   UNL d   1       4.333  -1.567   0.674  0.00  0.00    -0.532 OA
ENDBRANCH   1  21
BRANCH   4  24
ATOM     24  C   UNL d   1       1.191   2.947   0.038  0.00  0.00     0.043 A 
ATOM     25  C   UNL d   1       1.832   3.717  -0.943  0.00  0.00     0.030 A 
ATOM     26  C   UNL d   1       1.853   5.110  -0.850  0.00  0.00     0.002 A 
ATOM     27  C   UNL d   1       1.253   5.745   0.234  0.00  0.00     0.000 A 
ATOM     28  C   UNL d   1       0.627   4.990   1.226  0.00  0.00     0.002 A 
ATOM     29  C   UNL d   1       0.596   3.596   1.130  0.00  0.00     0.030 A 
ENDBRANCH   4  24
TORSDOF 7
