REMARK  12 active torsions:
REMARK  status: ('A' for Active; 'I' for Inactive)
REMARK    1  A    between atoms: C_5  and  C_1 
REMARK    2  A    between atoms: N_13  and  C_4 
REMARK    3  A    between atoms: C_8  and  C_9 
REMARK    4  A    between atoms: C_30  and  N_13 
REMARK    5  A    between atoms: O_16  and  C_21 
REMARK    6  A    between atoms: C_18  and  O_16 
REMARK    7  A    between atoms: C_20  and  C_29 
REMARK    8  A    between atoms: C_21  and  C_20 
REMARK    9  A    between atoms: O_25  and  C_20 
REMARK   10  A    between atoms: N_24  and  C_31 
REMARK   11  A    between atoms: C_29  and  N_24 
REMARK   12  A    between atoms: C_31  and  C_30 
ROOT
ATOM      1  N   UNL d   1      -1.304   4.375  -7.019  0.00  0.00     0.087 N 
ATOM      2  H   UNL d   1      -2.201   3.894  -7.000  0.00  0.00     0.316 HD
ENDROOT
BRANCH   1   3
ATOM      3  C   UNL d   1      -0.724   4.341  -5.665  0.00  0.00     0.284 C 
BRANCH   3   4
ATOM      4  C   UNL d   1      -1.599   4.990  -4.573  0.00  0.00     0.125 C 
BRANCH   4   5
ATOM      5  N   UNL d   1      -0.979   4.842  -3.272  0.00  0.00    -0.262 NA
ATOM      6  H   UNL d   1      -0.750   3.899  -2.981  0.00  0.00     0.130 HD
BRANCH   5   7
ATOM      7  C   UNL d   1      -1.680   5.425  -2.228  0.00  0.00     0.157 A 
ATOM      8  N   UNL d   1      -1.522   4.840  -1.040  0.00  0.00    -0.329 N 
ATOM      9  C   UNL d   1      -2.159   5.390   0.028  0.00  0.00     0.120 A 
ATOM     10  HN  UNL d   1      -0.942   4.007  -0.936  1.00  0.00     0.168 HD
ATOM     11  C   UNL d   1      -2.962   6.507  -0.101  0.00  0.00     0.051 A 
ATOM     12  C   UNL d   1      -3.078   7.023  -1.364  0.00  0.00     0.093 A 
ATOM     13  N   UNL d   1      -2.452   6.498  -2.432  0.00  0.00    -0.343 N 
ATOM     14  HN  UNL d   1      -2.562   6.903  -3.362  1.00  0.00     0.167 HD
BRANCH   9  15
ATOM     15  C   UNL d   1      -1.969   4.768   1.397  0.00  0.00     0.432 C 
ATOM     16  F   UNL d   1      -1.199   3.645   1.405  0.00  0.00    -0.165 F 
ATOM     17  F   UNL d   1      -3.155   4.409   1.971  0.00  0.00    -0.165 F 
ATOM     18  F   UNL d   1      -1.385   5.629   2.282  0.00  0.00    -0.165 F 
ENDBRANCH   9  15
ENDBRANCH   5   7
ENDBRANCH   4   5
ENDBRANCH   3   4
ENDBRANCH   1   3
BRANCH   1  19
ATOM     19  C   UNL d   1      -1.454   5.747  -7.517  0.00  0.00     0.303 C 
BRANCH  19  20
ATOM     20  C   UNL d   1      -2.030   5.864  -8.944  0.00  0.00     0.170 C 
BRANCH  20  21
ATOM     21  C   UNL d   1      -3.421   5.217  -9.050  0.00  0.00     0.209 C 
BRANCH  21  22
ATOM     22  O   UNL d   1      -3.927   5.378 -10.378  0.00  0.00    -0.349 OA
BRANCH  22  23
ATOM     23  C   UNL d   1      -5.176   4.867 -10.600  0.00  0.00     0.068 A 
ATOM     24  C   UNL d   1      -5.881   5.452 -11.646  0.00  0.00     0.037 A 
ATOM     25  C   UNL d   1      -7.164   5.002 -11.978  0.00  0.00     0.011 A 
ATOM     26  C   UNL d   1      -7.773   3.941 -11.282  0.00  0.00    -0.050 A 
ATOM     27  C   UNL d   1      -7.037   3.356 -10.240  0.00  0.00     0.011 A 
ATOM     28  C   UNL d   1      -5.755   3.811  -9.903  0.00  0.00     0.037 A 
BRANCH  26  29
ATOM     29  C   UNL d   1      -9.183   3.465 -11.668  0.00  0.00    -0.024 C 
ATOM     30  C   UNL d   1      -9.683   2.266 -10.829  0.00  0.00     0.019 C 
ATOM     31  C   UNL d   1     -10.189   4.618 -11.467  0.00  0.00     0.019 C 
ATOM     32  C   UNL d   1      -9.207   3.024 -13.147  0.00  0.00     0.019 C 
ENDBRANCH  26  29
ENDBRANCH  22  23
ENDBRANCH  21  22
ENDBRANCH  20  21
BRANCH  20  33
ATOM     33  O   UNL d   1      -2.092   7.261  -9.278  0.00  0.00    -0.392 OA
ATOM     34  H   UNL d   1      -2.818   7.663  -8.773  0.00  0.00     0.210 HD
ENDBRANCH  20  33
ENDBRANCH  19  20
ENDBRANCH   1  19
TORSDOF 12
