REMARK  0 active torsions:
REMARK  status: ('A' for Active; 'I' for Inactive)
ROOT
ATOM      1  N   UNL d   1       0.517   1.453   0.003  0.00  0.00    -0.354 N 
ATOM      2  HN  UNL d   1       0.497   2.473   0.013  1.00  0.00     0.166 HD
ATOM      3  N   UNL d   1       0.535  -1.385  -0.031  0.00  0.00    -0.320 N 
ATOM      4  C   UNL d   1       1.736  -0.721  -0.008  0.00  0.00     0.268 A 
ATOM      5  C   UNL d   1       1.647   0.806  -0.018  0.00  0.00     0.074 A 
ATOM      6  C   UNL d   1      -0.673   0.705   0.013  0.00  0.00     0.059 A 
ATOM      7  C   UNL d   1      -0.681  -0.698  -0.021  0.00  0.00     0.061 A 
ATOM      8  O   UNL d   1       2.814  -1.294   0.017  0.00  0.00    -0.266 OA
ATOM      9  C   UNL d   1       2.934   1.579  -0.070  0.00  0.00     0.074 C 
ATOM     10  C   UNL d   1      -1.892   1.384   0.041  0.00  0.00     0.032 A 
ATOM     11  C   UNL d   1      -1.881  -1.411  -0.040  0.00  0.00     0.032 A 
ATOM     12  C   UNL d   1      -3.097   0.678   0.025  0.00  0.00     0.002 A 
ATOM     13  C   UNL d   1      -3.091  -0.717  -0.020  0.00  0.00     0.002 A 
ATOM     14  H   UNL d   1       0.566  -2.395  -0.035  0.00  0.00     0.169 HD
ENDROOT
TORSDOF 0
