REMARK  7 active torsions:
REMARK  status: ('A' for Active; 'I' for Inactive)
REMARK    1  A    between atoms: S_3  and  C_1 
REMARK    2  A    between atoms: C_7  and  C_2 
REMARK    3  A    between atoms: N_8  and  S_3 
REMARK    4  A    between atoms: O_13  and  C_7 
REMARK    5  A    between atoms: C_12  and  N_8 
REMARK    6  A    between atoms: C_16  and  C_12 
REMARK    7  A    between atoms: O_22  and  C_17 
ROOT
ATOM      1  S   UNL d   1       1.790   2.696  -0.048  0.00  0.00     0.245 S 
ATOM      2  O   UNL d   1       1.499   3.519   1.105  0.00  0.00    -0.206 OA
ATOM      3  O   UNL d   1       3.077   2.073  -0.239  0.00  0.00    -0.206 OA
ENDROOT
BRANCH   1   4
ATOM      4  C   UNL d   1       0.710   1.355   0.053  0.00  0.00     0.122 A 
ATOM      5  C   UNL d   1       0.630   0.300  -0.918  0.00  0.00     0.094 A 
ATOM      6  C   UNL d   1      -0.315  -0.583  -0.419  0.00  0.00     0.067 A 
ATOM      7  C   UNL d   1      -0.912  -1.856  -0.882  0.00  0.00     0.078 C 
ATOM      8  O   UNL d   1      -0.810  -0.124   0.762  0.00  0.00    -0.318 OA
ATOM      9  C   UNL d   1      -0.185   1.050   1.057  0.00  0.00     0.073 A 
ATOM     10  C   UNL d   1      -0.616   1.659   2.334  0.00  0.00     0.078 C 
BRANCH   5  11
ATOM     11  C   UNL d   1       1.355   0.176  -2.170  0.00  0.00     0.297 C 
ATOM     12  O   UNL d   1       1.717   1.150  -2.820  0.00  0.00    -0.259 OA
BRANCH  11  13
ATOM     13  O   UNL d   1       1.532  -1.121  -2.542  0.00  0.00    -0.322 OA
ATOM     14  C   UNL d   1       2.185  -1.327  -3.794  0.00  0.00     0.213 C 
ENDBRANCH  11  13
ENDBRANCH   5  11
ENDBRANCH   1   4
BRANCH   1  15
ATOM     15  N   UNL d   1       1.419   3.578  -1.426  0.00  0.00    -0.211 NA
ATOM     16  H   UNL d   1       1.579   3.013  -2.270  0.00  0.00     0.140 HD
BRANCH  15  17
ATOM     17  C   UNL d   1       0.147   4.306  -1.400  0.00  0.00     0.143 C 
BRANCH  17  18
ATOM     18  C   UNL d   1      -0.084   5.065  -2.684  0.00  0.00    -0.044 A 
ATOM     19  C   UNL d   1      -1.190   4.783  -3.496  0.00  0.00     0.011 A 
ATOM     20  C   UNL d   1      -1.398   5.486  -4.688  0.00  0.00     0.037 A 
ATOM     21  C   UNL d   1      -0.500   6.479  -5.081  0.00  0.00     0.068 A 
ATOM     22  C   UNL d   1       0.585   6.787  -4.261  0.00  0.00     0.037 A 
ATOM     23  C   UNL d   1       0.799   6.081  -3.075  0.00  0.00     0.011 A 
BRANCH  21  24
ATOM     24  O   UNL d   1      -0.612   7.233  -6.217  0.00  0.00    -0.356 OA
ATOM     25  C   UNL d   1      -1.234   6.583  -7.320  0.00  0.00     0.210 C 
ENDBRANCH  21  24
ENDBRANCH  17  18
ENDBRANCH  15  17
ENDBRANCH   1  15
TORSDOF 7
