REMARK  3 active torsions:
REMARK  status: ('A' for Active; 'I' for Inactive)
REMARK    1  A    between atoms: C_3  and  C_1 
REMARK    2  A    between atoms: C_6  and  C_2 
REMARK       I    between atoms: N_9  and  C_3 
REMARK    3  A    between atoms: O_10  and  C_8 
ROOT
ATOM      1  C   UNL d   1       0.776  -0.826  -0.316  0.00  0.00     0.112 C 
ATOM      2  C   UNL d   1       0.330  -0.672   0.946  0.00  0.00     0.042 C 
ATOM      3  C   UNL d   1       1.879  -1.657  -0.650  0.00  0.00     0.105 C 
ATOM      4  N   UNL d   1       2.765  -2.328  -0.991  0.00  0.00    -0.191 NA
ENDROOT
BRANCH   1   5
ATOM      5  C   UNL d   1       0.056  -0.075  -1.387  0.00  0.00     0.260 C 
ATOM      6  O   UNL d   1      -0.885   0.677  -1.156  0.00  0.00    -0.267 OA
ATOM      7  N   UNL d   1       0.486  -0.253  -2.668  0.00  0.00    -0.365 N 
ATOM      8  H   UNL d   1       1.256  -0.849  -2.949  0.00  0.00     0.159 HD
ATOM      9  H   UNL d   1      -0.001   0.254  -3.396  0.00  0.00     0.159 HD
ENDBRANCH   1   5
BRANCH   2  10
ATOM     10  C   UNL d   1       0.928  -1.341   2.107  0.00  0.00    -0.001 A 
ATOM     11  C   UNL d   1       2.028  -0.850   2.829  0.00  0.00     0.078 A 
ATOM     12  C   UNL d   1       2.591  -1.642   3.839  0.00  0.00     0.037 A 
ATOM     13  C   UNL d   1       2.070  -2.901   4.142  0.00  0.00     0.003 A 
ATOM     14  C   UNL d   1       0.976  -3.385   3.435  0.00  0.00     0.001 A 
ATOM     15  C   UNL d   1       0.405  -2.607   2.428  0.00  0.00     0.014 A 
BRANCH  11  16
ATOM     16  O   UNL d   1       2.721   0.309   2.598  0.00  0.00    -0.355 OA
ATOM     17  C   UNL d   1       1.968   1.470   2.273  0.00  0.00     0.210 C 
ENDBRANCH  11  16
ENDBRANCH   2  10
TORSDOF 3
