REMARK  5 active torsions:
REMARK  status: ('A' for Active; 'I' for Inactive)
REMARK    1  A    between atoms: C_11  and  C_1 
REMARK    2  A    between atoms: S_16  and  C_5 
REMARK    3  A    between atoms: C_17  and  C_10 
REMARK    4  A    between atoms: C_14  and  C_18 
REMARK    5  A    between atoms: C_18  and  S_16 
ROOT
ATOM      1  C   UNL d   1       2.135  -2.904  -0.150  0.00  0.00     0.169 C 
ENDROOT
BRANCH   1   2
ATOM      2  C   UNL d   1       2.592  -4.320  -0.220  0.00  0.00     0.158 A 
ATOM      3  N   UNL d   1       3.716  -4.860   0.199  0.00  0.00    -0.322 N 
ATOM      4  C   UNL d   1       3.590  -6.179  -0.198  0.00  0.00     0.137 A 
ATOM      5  HN  UNL d   1       4.490  -4.416   0.695  1.00  0.00     0.169 HD
ATOM      6  N   UNL d   1       2.433  -6.441  -0.828  0.00  0.00    -0.242 N 
ATOM      7  O   UNL d   1       1.783  -5.214  -0.862  0.00  0.00    -0.222 OA
ATOM      8  HN  UNL d   1       2.107  -7.334  -1.196  1.00  0.00     0.196 HD
BRANCH   4   9
ATOM      9  C   UNL d   1       4.632  -7.178   0.031  0.00  0.00     0.010 A 
ATOM     10  C   UNL d   1       5.842  -6.819   0.643  0.00  0.00     0.015 A 
ATOM     11  C   UNL d   1       6.846  -7.770   0.851  0.00  0.00     0.001 A 
ATOM     12  C   UNL d   1       6.652  -9.090   0.450  0.00  0.00     0.000 A 
ATOM     13  C   UNL d   1       5.456  -9.463  -0.158  0.00  0.00     0.001 A 
ATOM     14  C   UNL d   1       4.452  -8.512  -0.367  0.00  0.00     0.015 A 
ENDBRANCH   4   9
ENDBRANCH   1   2
BRANCH   1  15
ATOM     15  S   UNL d   1       0.339  -2.760   0.139  0.00  0.00    -0.084 SA
BRANCH  15  16
ATOM     16  C   UNL d   1       0.123  -1.048   0.068  0.00  0.00     0.163 A 
ATOM     17  N   UNL d   1      -1.099  -0.428   0.180  0.00  0.00    -0.312 N 
ATOM     18  C   UNL d   1      -0.835   0.924   0.119  0.00  0.00     0.209 A 
ATOM     19  C   UNL d   1      -2.360  -1.111   0.328  0.00  0.00     0.160 C 
ATOM     20  N   UNL d   1       0.471   1.081  -0.054  0.00  0.00    -0.279 N 
ATOM     21  N   UNL d   1       1.065  -0.154  -0.085  0.00  0.00    -0.278 N 
ATOM     22  HN  UNL d   1       0.954   1.974  -0.148  1.00  0.00     0.188 HD
ATOM     23  HN  UNL d   1       2.061  -0.341  -0.206  1.00  0.00     0.189 HD
BRANCH  18  24
ATOM     24  C   UNL d   1      -1.817   2.039   0.232  0.00  0.00     0.450 C 
ATOM     25  F   UNL d   1      -3.095   1.630   0.448  0.00  0.00    -0.163 F 
ATOM     26  F   UNL d   1      -1.518   2.875   1.260  0.00  0.00    -0.163 F 
ATOM     27  F   UNL d   1      -1.854   2.798  -0.895  0.00  0.00    -0.163 F 
ENDBRANCH  18  24
ENDBRANCH  15  16
ENDBRANCH   1  15
TORSDOF 5
