REMARK  5 active torsions:
REMARK  status: ('A' for Active; 'I' for Inactive)
REMARK    1  A    between atoms: N_7  and  S_1 
REMARK    2  A    between atoms: C_8  and  S_1 
REMARK    3  A    between atoms: C_2  and  N_7 
REMARK    4  A    between atoms: C_9  and  C_3 
REMARK    5  A    between atoms: C_12  and  C_5 
ROOT
ATOM      1  C   UNL d   1       0.870   2.501   0.517  0.00  0.00     0.045 A 
ATOM      2  C   UNL d   1       2.093   2.954   0.981  0.00  0.00     0.073 A 
ATOM      3  S   UNL d   1       1.901   4.251   2.063  0.00  0.00    -0.084 SA
ATOM      4  C   UNL d   1       0.195   4.264   1.913  0.00  0.00     0.017 A 
ATOM      5  C   UNL d   1      -0.215   3.278   1.030  0.00  0.00     0.045 A 
ENDROOT
BRANCH   1   6
ATOM      6  N   UNL d   1       0.701   1.400  -0.355  0.00  0.00    -0.180 NA
ATOM      7  H   UNL d   1       1.490   0.743  -0.316  0.00  0.00     0.146 HD
BRANCH   6   8
ATOM      8  S   UNL d   1       0.411   1.754  -2.006  0.00  0.00     0.245 S 
ATOM      9  O   UNL d   1       1.352   2.775  -2.423  0.00  0.00    -0.206 OA
ATOM     10  O   UNL d   1      -1.014   1.913  -2.199  0.00  0.00    -0.206 OA
BRANCH   8  11
ATOM     11  C   UNL d   1       0.917   0.226  -2.769  0.00  0.00     0.074 A 
ATOM     12  C   UNL d   1      -0.035  -0.732  -3.124  0.00  0.00     0.025 A 
ATOM     13  C   UNL d   1       0.382  -1.930  -3.713  0.00  0.00     0.008 A 
ATOM     14  C   UNL d   1       1.743  -2.170  -3.955  0.00  0.00    -0.062 A 
ATOM     15  C   UNL d   1       2.683  -1.190  -3.612  0.00  0.00     0.008 A 
ATOM     16  C   UNL d   1       2.179  -3.467  -4.574  0.00  0.00     0.048 C 
ATOM     17  C   UNL d   1       2.275   0.009  -3.024  0.00  0.00     0.025 A 
ENDBRANCH   8  11
ENDBRANCH   6   8
ENDBRANCH   1   6
BRANCH   2  18
ATOM     18  C   UNL d   1       3.403   2.429   0.626  0.00  0.00     0.164 C 
ATOM     19  O   UNL d   1       3.519   1.328   0.069  0.00  0.00    -0.292 OA
ATOM     20  C   UNL d   1       4.654   3.237   0.895  0.00  0.00     0.097 C 
ENDBRANCH   2  18
BRANCH   4  21
ATOM     21  C   UNL d   1      -0.597   5.268   2.650  0.00  0.00    -0.019 A 
ATOM     22  C   UNL d   1      -0.186   5.761   3.904  0.00  0.00     0.016 A 
ATOM     23  C   UNL d   1      -0.922   6.745   4.570  0.00  0.00     0.043 A 
ATOM     24  C   UNL d   1      -2.084   7.234   3.993  0.00  0.00     0.116 A 
ATOM     25  C   UNL d   1      -2.524   6.756   2.766  0.00  0.00     0.043 A 
ATOM     26  F   UNL d   1      -2.787   8.182   4.626  0.00  0.00    -0.206 F 
ATOM     27  C   UNL d   1      -1.784   5.776   2.096  0.00  0.00     0.016 A 
ENDBRANCH   4  21
TORSDOF 5
