REMARK  7 active torsions:
REMARK  status: ('A' for Active; 'I' for Inactive)
REMARK    1  A    between atoms: C_3  and  C_1 
REMARK       I    between atoms: C_2  and  N_10 
REMARK    2  A    between atoms: C_4  and  C_2 
REMARK    3  A    between atoms: N_10  and  C_21 
REMARK    4  A    between atoms: C_20  and  C_13 
REMARK    5  A    between atoms: S_17  and  C_20 
REMARK    6  A    between atoms: C_23  and  S_17 
REMARK    7  A    between atoms: C_21  and  C_23 
ROOT
ATOM      1  C   UNL d   1      -3.077   1.684   5.218  0.00  0.00     0.093 C 
ENDROOT
BRANCH   1   2
ATOM      2  C   UNL d   1      -3.474   0.374   5.910  0.00  0.00     0.133 C 
BRANCH   2   3
ATOM      3  N   UNL d   1      -4.083   0.546   7.221  0.00  0.00    -0.356 N 
ATOM      4  C   UNL d   1      -5.384   0.981   7.360  0.00  0.00     0.251 C 
ATOM      5  O   UNL d   1      -6.026   1.430   6.415  0.00  0.00    -0.268 OA
ATOM      6  H   UNL d   1      -3.573   0.185   8.012  0.00  0.00     0.162 HD
BRANCH   4   7
ATOM      7  C   UNL d   1      -6.019   0.880   8.716  0.00  0.00     0.032 A 
ATOM      8  C   UNL d   1      -5.465   0.157   9.778  0.00  0.00     0.017 A 
ATOM      9  C   UNL d   1      -6.142   0.066  11.003  0.00  0.00     0.007 A 
ATOM     10  C   UNL d   1      -7.381   0.691  11.183  0.00  0.00    -0.062 A 
ATOM     11  C   UNL d   1      -7.936   1.412  10.123  0.00  0.00     0.007 A 
ATOM     12  C   UNL d   1      -8.110   0.552  12.489  0.00  0.00     0.048 C 
ATOM     13  C   UNL d   1      -7.261   1.505   8.901  0.00  0.00     0.017 A 
ENDBRANCH   4   7
ENDBRANCH   2   3
ENDBRANCH   1   2
BRANCH   1  14
ATOM     14  S   UNL d   1      -2.187   1.268   3.674  0.00  0.00    -0.163 SA
BRANCH  14  15
ATOM     15  C   UNL d   1      -1.857   2.941   3.038  0.00  0.00     0.112 C 
BRANCH  15  16
ATOM     16  C   UNL d   1      -1.142   2.869   1.706  0.00  0.00    -0.048 A 
ATOM     17  C   UNL d   1       0.259   2.784   1.648  0.00  0.00     0.024 A 
ATOM     18  C   UNL d   1       0.931   2.684   0.417  0.00  0.00     0.048 A 
ATOM     19  C   UNL d   1       0.178   2.659  -0.767  0.00  0.00     0.016 A 
ATOM     20  C   UNL d   1      -1.213   2.733  -0.721  0.00  0.00     0.001 A 
ATOM     21  C   UNL d   1      -1.869   2.836   0.507  0.00  0.00     0.008 A 
BRANCH  18  22
ATOM     22  C   UNL d   1       2.436   2.604   0.351  0.00  0.00     0.417 C 
ATOM     23  F   UNL d   1       3.041   2.644   1.572  0.00  0.00    -0.166 F 
ATOM     24  F   UNL d   1       2.979   3.630  -0.364  0.00  0.00    -0.166 F 
ATOM     25  F   UNL d   1       2.877   1.462  -0.245  0.00  0.00    -0.166 F 
ENDBRANCH  18  22
ENDBRANCH  15  16
ENDBRANCH  14  15
ENDBRANCH   1  14
TORSDOF 7
