REMARK  5 active torsions:
REMARK  status: ('A' for Active; 'I' for Inactive)
REMARK    1  A    between atoms: C_2  and  C_1 
REMARK    2  A    between atoms: O_7  and  C_1 
REMARK    3  A    between atoms: O_9  and  C_3 
REMARK    4  A    between atoms: C_8  and  O_7 
REMARK    5  A    between atoms: C_16  and  O_9 
ROOT
ATOM      1  C   UNL d   1      -1.263   0.957  -0.204  0.00  0.00     0.298 C 
ATOM      2  O   UNL d   1      -1.467   2.103   0.144  0.00  0.00    -0.259 OA
ENDROOT
BRANCH   1   3
ATOM      3  C   UNL d   1      -0.606  -0.141   0.559  0.00  0.00     0.090 A 
ATOM      4  C   UNL d   1       0.136   0.103   1.708  0.00  0.00     0.164 A 
ATOM      5  N   UNL d   1       0.697  -0.886   2.463  0.00  0.00    -0.346 N 
ATOM      6  C   UNL d   1       0.537  -2.163   2.055  0.00  0.00     0.090 A 
ATOM      7  HN  UNL d   1       1.222  -0.667   3.309  1.00  0.00     0.167 HD
ATOM      8  C   UNL d   1      -0.170  -2.515   0.926  0.00  0.00     0.018 A 
ATOM      9  C   UNL d   1      -0.749  -1.496   0.173  0.00  0.00     0.023 A 
BRANCH   4  10
ATOM     10  O   UNL d   1       0.280   1.415   2.135  0.00  0.00    -0.293 OA
BRANCH  10  11
ATOM     11  C   UNL d   1       1.323   1.684   2.992  0.00  0.00     0.077 A 
ATOM     12  C   UNL d   1       2.652   1.501   2.605  0.00  0.00     0.037 A 
ATOM     13  C   UNL d   1       3.679   1.841   3.485  0.00  0.00     0.003 A 
ATOM     14  C   UNL d   1       3.376   2.377   4.738  0.00  0.00     0.000 A 
ATOM     15  C   UNL d   1       2.047   2.576   5.111  0.00  0.00     0.003 A 
ATOM     16  C   UNL d   1       1.017   2.238   4.233  0.00  0.00     0.037 A 
ENDBRANCH  10  11
ENDBRANCH   4  10
ENDBRANCH   1   3
BRANCH   1  17
ATOM     17  O   UNL d   1      -1.653   0.395  -1.403  0.00  0.00    -0.302 OA
BRANCH  17  18
ATOM     18  C   UNL d   1      -2.666   0.839  -2.463  0.00  0.00     0.205 C 
ATOM     19  C   UNL d   1      -1.997   0.779  -3.692  0.00  0.00     0.053 C 
ATOM     20  N   UNL d   1      -1.174   1.766  -4.111  0.00  0.00    -0.360 N 
ATOM     21  C   UNL d   1      -2.200  -0.392  -4.443  0.00  0.00    -0.011 C 
ATOM     22  C   UNL d   1      -0.530   1.612  -5.291  0.00  0.00     0.005 C 
ATOM     23  HN  UNL d   1      -1.041   2.607  -3.550  1.00  0.00     0.165 HD
ATOM     24  C   UNL d   1       0.127   2.825  -5.879  0.00  0.00     0.068 C 
ATOM     25  C   UNL d   1      -0.520   0.407  -5.975  0.00  0.00     0.025 C 
ATOM     26  C   UNL d   1      -1.365  -0.608  -5.543  0.00  0.00     0.015 C 
ATOM     27  C   UNL d   1      -3.218  -1.298  -4.084  0.00  0.00     0.013 C 
ATOM     28  C   UNL d   1      -4.079  -1.020  -3.020  0.00  0.00    -0.000 C 
ATOM     29  C   UNL d   1      -3.817   0.076  -2.205  0.00  0.00     0.011 C 
ENDBRANCH  17  18
ENDBRANCH   1  17
TORSDOF 5
