REMARK  2 active torsions:
REMARK  status: ('A' for Active; 'I' for Inactive)
REMARK    1  A    between atoms: C_4  and  C_1 
REMARK    2  A    between atoms: C_12  and  C_6 
ROOT
ATOM      1  C   UNL d   1      -3.728  -0.030   0.003  0.00  0.00     0.089 C 
ATOM      2  C   UNL d   1      -4.430   1.131  -0.015  0.00  0.00     0.038 C 
ATOM      3  C   UNL d   1      -2.248  -0.022  -0.002  0.00  0.00     0.103 C 
ATOM      4  N   UNL d   1      -1.090  -0.000  -0.009  0.00  0.00    -0.191 NA
ENDROOT
BRANCH   1   5
ATOM      5  C   UNL d   1      -4.514  -1.244   0.009  0.00  0.00     0.127 A 
ATOM      6  N   UNL d   1      -5.832  -1.422   0.002  0.00  0.00    -0.339 N 
ATOM      7  C   UNL d   1      -6.046  -2.781  -0.009  0.00  0.00     0.060 A 
ATOM      8  HN  UNL d   1      -6.546  -0.693   0.004  1.00  0.00     0.167 HD
ATOM      9  C   UNL d   1      -7.247  -3.506  -0.030  0.00  0.00     0.032 A 
ATOM     10  C   UNL d   1      -4.837  -3.464  -0.003  0.00  0.00     0.060 A 
ATOM     11  C   UNL d   1      -7.186  -4.905  -0.044  0.00  0.00     0.002 A 
ATOM     12  C   UNL d   1      -5.955  -5.566  -0.035  0.00  0.00     0.002 A 
ATOM     13  C   UNL d   1      -4.747  -4.858  -0.014  0.00  0.00     0.032 A 
ATOM     14  N   UNL d   1      -3.888  -2.474   0.015  0.00  0.00    -0.339 N 
ATOM     15  H   UNL d   1      -2.889  -2.631   0.021  0.00  0.00     0.167 HD
ENDBRANCH   1   5
BRANCH   2  16
ATOM     16  C   UNL d   1      -3.788   2.453  -0.023  0.00  0.00    -0.033 A 
ATOM     17  C   UNL d   1      -3.431   3.064  -1.232  0.00  0.00     0.037 A 
ATOM     18  C   UNL d   1      -2.727   4.277  -1.231  0.00  0.00     0.056 A 
ATOM     19 CL   UNL d   1      -2.298   4.959  -2.761  0.00  0.00    -0.083 Cl
ATOM     20  C   UNL d   1      -2.386   4.888  -0.020  0.00  0.00     0.055 A 
ATOM     21  C   UNL d   1      -2.761   4.289   1.186  0.00  0.00     0.026 A 
ATOM     22 CL   UNL d   1      -1.500   6.369   0.059  0.00  0.00    -0.083 Cl
ATOM     23  C   UNL d   1      -3.457   3.075   1.184  0.00  0.00     0.013 A 
ENDBRANCH   2  16
TORSDOF 2
