REMARK  4 active torsions:
REMARK  status: ('A' for Active; 'I' for Inactive)
REMARK    1  A    between atoms: C_5  and  C_1 
REMARK    2  A    between atoms: C_7  and  C_2 
REMARK    3  A    between atoms: O_12  and  C_7 
REMARK    4  A    between atoms: N_9  and  O_12 
ROOT
ATOM      1  C   UNL d   1      -1.372  -0.741  -0.046  0.00  0.00     0.085 A 
ATOM      2  C   UNL d   1      -0.097  -1.402  -0.157  0.00  0.00     0.102 A 
ATOM      3  N   UNL d   1      -1.189   0.588   0.029  0.00  0.00    -0.259 N 
ATOM      4  HN  UNL d   1      -1.919   1.294   0.119  1.00  0.00     0.195 HD
ATOM      5  O   UNL d   1       0.154   0.819  -0.038  0.00  0.00    -0.241 OA
ATOM      6  C   UNL d   1       0.815  -0.358  -0.114  0.00  0.00     0.091 A 
ATOM      7  C   UNL d   1       2.286  -0.228  -0.130  0.00  0.00     0.080 C 
ENDROOT
BRANCH   2   8
ATOM      8  C   UNL d   1       0.300  -2.795  -0.287  0.00  0.00     0.320 C 
ATOM      9  O   UNL d   1       1.435  -3.184  -0.038  0.00  0.00    -0.257 OA
BRANCH   8  10
ATOM     10  O   UNL d   1      -0.698  -3.628  -0.747  0.00  0.00    -0.194 OA
BRANCH  10  11
ATOM     11  N   UNL d   1      -0.154  -4.474  -1.736  0.00  0.00    -0.251 N 
ATOM     12  C   UNL d   1      -0.542  -5.714  -1.649  0.00  0.00     0.078 C 
ATOM     13  N   UNL d   1      -0.170  -6.581  -2.655  0.00  0.00    -0.281 NA
ATOM     14  C   UNL d   1      -1.355  -6.316  -0.520  0.00  0.00     0.072 C 
ATOM     15  C   UNL d   1      -1.192  -7.438  -3.236  0.00  0.00     0.093 C 
ATOM     16  H   UNL d   1       0.375  -6.093  -3.361  0.00  0.00     0.128 HD
ATOM     17  C   UNL d   1      -1.971  -8.158  -2.140  0.00  0.00     0.015 C 
ATOM     18  C   UNL d   1      -2.485  -7.171  -1.090  0.00  0.00     0.008 C 
ATOM     19  HN  UNL d   1       0.487  -4.144  -2.457  1.00  0.00     0.196 HD
ENDBRANCH  10  11
ENDBRANCH   8  10
ENDBRANCH   2   8
BRANCH   1  20
ATOM     20  C   UNL d   1      -2.735  -1.265   0.128  0.00  0.00     0.015 A 
ATOM     21  C   UNL d   1      -3.879  -0.638  -0.415  0.00  0.00     0.046 A 
ATOM     22 CL   UNL d   1      -3.811   0.684  -1.535  0.00  0.00    -0.083 Cl
ATOM     23  C   UNL d   1      -5.165  -1.081  -0.074  0.00  0.00     0.025 A 
ATOM     24  C   UNL d   1      -5.337  -2.160   0.786  0.00  0.00     0.002 A 
ATOM     25  C   UNL d   1      -4.220  -2.804   1.310  0.00  0.00     0.001 A 
ATOM     26  C   UNL d   1      -2.934  -2.353   0.995  0.00  0.00     0.015 A 
ENDBRANCH   1  20
TORSDOF 4
