REMARK  3 active torsions:
REMARK  status: ('A' for Active; 'I' for Inactive)
REMARK    1  A    between atoms: N_9  and  C_2 
REMARK       I    between atoms: C_11  and  N_9 
REMARK    2  A    between atoms: C_13  and  C_11 
REMARK    3  A    between atoms: C_15  and  C_16 
ROOT
ATOM      1  N   UNL d   1      -4.569   1.255  -1.268  0.00  0.00    -0.303 N 
ATOM      2  C   UNL d   1      -4.470   0.661  -0.006  0.00  0.00     0.257 C 
ATOM      3  O   UNL d   1      -4.219   1.236   1.048  0.00  0.00    -0.267 OA
ATOM      4  H   UNL d   1      -4.665   0.640  -2.063  0.00  0.00     0.171 HD
ENDROOT
BRANCH   1   5
ATOM      5  C   UNL d   1      -4.620   2.586  -1.656  0.00  0.00     0.155 C 
ATOM      6  S   UNL d   1      -4.449   3.777  -0.403  0.00  0.00    -0.010 SA
ATOM      7  C   UNL d   1      -5.527   4.983  -1.049  0.00  0.00     0.235 C 
ATOM      8  C   UNL d   1      -5.404   5.104  -2.473  0.00  0.00     0.089 A 
ATOM      9  O   UNL d   1      -6.225   5.663  -0.316  0.00  0.00    -0.279 OA
ATOM     10  C   UNL d   1      -4.987   4.125  -3.329  0.00  0.00     0.062 A 
ATOM     11  S   UNL d   1      -5.771   6.557  -3.266  0.00  0.00    -0.095 SA
ATOM     12  N   UNL d   1      -4.783   2.793  -2.927  0.00  0.00    -0.335 N 
ATOM     13  C   UNL d   1      -4.878   4.585  -4.681  0.00  0.00    -0.027 A 
ATOM     14  HN  UNL d   1      -4.764   2.028  -3.600  1.00  0.00     0.168 HD
ATOM     15  C   UNL d   1      -4.403   3.808  -5.864  0.00  0.00     0.051 C 
ATOM     16  C   UNL d   1      -5.281   5.908  -4.770  0.00  0.00     0.059 A 
ENDBRANCH   1   5
BRANCH   2  17
ATOM     17  C   UNL d   1      -4.606  -0.822   0.026  0.00  0.00     0.032 A 
ATOM     18  C   UNL d   1      -3.886  -1.545   0.983  0.00  0.00     0.017 A 
ATOM     19  C   UNL d   1      -3.900  -2.943   0.970  0.00  0.00     0.009 A 
ATOM     20  C   UNL d   1      -4.637  -3.658   0.006  0.00  0.00    -0.051 A 
ATOM     21  C   UNL d   1      -5.431  -2.909  -0.881  0.00  0.00     0.009 A 
ATOM     22  C   UNL d   1      -5.423  -1.510  -0.873  0.00  0.00     0.017 A 
BRANCH  20  23
ATOM     23  C   UNL d   1      -4.526  -5.192  -0.085  0.00  0.00    -0.024 C 
ATOM     24  C   UNL d   1      -5.373  -5.797  -1.227  0.00  0.00     0.019 C 
ATOM     25  C   UNL d   1      -3.055  -5.580  -0.358  0.00  0.00     0.019 C 
ATOM     26  C   UNL d   1      -4.980  -5.857   1.230  0.00  0.00     0.019 C 
ENDBRANCH  20  23
ENDBRANCH   2  17
TORSDOF 3
