REMARK  3 active torsions:
REMARK  status: ('A' for Active; 'I' for Inactive)
REMARK    1  A    between atoms: O_10  and  C_4 
REMARK    2  A    between atoms: C_7  and  O_10 
REMARK    3  A    between atoms: N_15  and  C_13 
ROOT
ATOM      1  N   UNL d   1       3.942   1.604  -1.850  0.00  0.00    -0.345 N 
ATOM      2  HN  UNL d   1       3.037   1.290  -2.202  1.00  0.00     0.167 HD
ATOM      3  C   UNL d   1       4.509   1.052  -0.755  0.00  0.00     0.148 A 
ATOM      4  C   UNL d   1       4.634   2.595  -2.454  0.00  0.00     0.113 A 
ATOM      5  C   UNL d   1       5.858   3.093  -2.013  0.00  0.00     0.021 A 
ATOM      6  C   UNL d   1       5.770   1.394  -0.296  0.00  0.00     0.058 A 
ATOM      7  C   UNL d   1       6.456   2.419  -0.951  0.00  0.00     0.029 A 
ENDROOT
BRANCH   3   8
ATOM      8  O   UNL d   1       3.830   0.065  -0.051  0.00  0.00    -0.294 OA
BRANCH   8   9
ATOM      9  C   UNL d   1       2.453   0.098  -0.053  0.00  0.00     0.079 A 
ATOM     10  C   UNL d   1       1.797  -1.130  -0.014  0.00  0.00     0.045 A 
ATOM     11  C   UNL d   1       0.390  -1.202   0.009  0.00  0.00    -0.037 A 
ATOM     12  C   UNL d   1      -0.356  -0.004   0.004  0.00  0.00     0.046 A 
ATOM     13  C   UNL d   1      -0.223  -2.576   0.031  0.00  0.00     0.050 C 
ATOM     14  C   UNL d   1       0.298   1.244  -0.011  0.00  0.00    -0.037 A 
ATOM     15 CL   UNL d   1      -2.090  -0.064   0.027  0.00  0.00    -0.083 Cl
ATOM     16  C   UNL d   1       1.704   1.274  -0.015  0.00  0.00     0.045 A 
ATOM     17  C   UNL d   1      -0.404   2.575  -0.032  0.00  0.00     0.050 C 
ENDBRANCH   8   9
ENDBRANCH   3   8
BRANCH   5  18
ATOM     18  N   UNL d   1       6.566   4.060  -2.736  0.00  0.00    -0.302 NA
ATOM     19  H   UNL d   1       7.257   4.561  -2.187  0.00  0.00     0.124 HD
ATOM     20  H   UNL d   1       5.971   4.693  -3.266  0.00  0.00     0.124 HD
ENDBRANCH   5  18
TORSDOF 3
