REMARK  5 active torsions:
REMARK  status: ('A' for Active; 'I' for Inactive)
REMARK    1  A    between atoms: S_5  and  C_3 
REMARK    2  A    between atoms: S_7  and  C_4 
REMARK    3  A    between atoms: C_10  and  S_5 
REMARK    4  A    between atoms: N_11  and  C_6 
REMARK    5  A    between atoms: C_12  and  S_7 
ROOT
ATOM      1  N   UNL d   1      -1.129  -1.067   0.075  0.00  0.00    -0.343 N 
ATOM      2  HN  UNL d   1      -1.655  -1.941   0.060  1.00  0.00     0.167 HD
ATOM      3  C   UNL d   1       0.228  -1.061   0.023  0.00  0.00     0.096 C 
ATOM      4  C   UNL d   1      -1.756   0.127   0.147  0.00  0.00     0.075 C 
ATOM      5  C   UNL d   1       0.999   0.120  -0.029  0.00  0.00     0.040 C 
ATOM      6  C   UNL d   1       0.316   1.324   0.141  0.00  0.00     0.029 C 
ATOM      7  C   UNL d   1      -1.073   1.336   0.206  0.00  0.00     0.039 C 
ENDROOT
BRANCH   3   8
ATOM      8  S   UNL d   1       0.994  -2.673  -0.137  0.00  0.00    -0.071 SA
BRANCH   8   9
ATOM      9  C   UNL d   1       1.209  -3.170   1.565  0.00  0.00     0.007 A 
ATOM     10  C   UNL d   1       0.143  -3.227   2.468  0.00  0.00     0.019 A 
ATOM     11  C   UNL d   1       0.349  -3.643   3.787  0.00  0.00     0.001 A 
ATOM     12  C   UNL d   1       1.622  -4.023   4.208  0.00  0.00     0.000 A 
ATOM     13  C   UNL d   1       2.684  -4.001   3.308  0.00  0.00     0.001 A 
ATOM     14  C   UNL d   1       2.477  -3.582   1.991  0.00  0.00     0.019 A 
ENDBRANCH   8   9
ENDBRANCH   3   8
BRANCH   5  15
ATOM     15  N   UNL d   1       2.406   0.135  -0.044  0.00  0.00    -0.300 NA
ATOM     16  H   UNL d   1       2.795  -0.702  -0.476  0.00  0.00     0.124 HD
ATOM     17  H   UNL d   1       2.805   0.986  -0.430  0.00  0.00     0.124 HD
ENDBRANCH   5  15
BRANCH   4  18
ATOM     18  S   UNL d   1      -3.536   0.122   0.052  0.00  0.00    -0.073 SA
BRANCH  18  19
ATOM     19  C   UNL d   1      -3.990  -0.072   1.763  0.00  0.00     0.007 A 
ATOM     20  C   UNL d   1      -4.812   0.885   2.369  0.00  0.00     0.019 A 
ATOM     21  C   UNL d   1      -5.210   0.734   3.700  0.00  0.00     0.001 A 
ATOM     22  C   UNL d   1      -4.794  -0.378   4.430  0.00  0.00     0.000 A 
ATOM     23  C   UNL d   1      -3.987  -1.343   3.829  0.00  0.00     0.001 A 
ATOM     24  C   UNL d   1      -3.594  -1.193   2.498  0.00  0.00     0.019 A 
ENDBRANCH  18  19
ENDBRANCH   4  18
TORSDOF 5
