REMARK  5 active torsions:
REMARK  status: ('A' for Active; 'I' for Inactive)
REMARK    1  A    between atoms: S_8  and  C_1 
REMARK    2  A    between atoms: N_7  and  C_2 
REMARK    3  A    between atoms: C_11  and  S_8 
REMARK       I    between atoms: C_9  and  N_10 
REMARK    4  A    between atoms: C_13  and  C_9 
REMARK    5  A    between atoms: N_10  and  C_12 
ROOT
ATOM      1  C   UNL d   1       0.560  -4.268   0.452  0.00  0.00     0.034 C 
ATOM      2  C   UNL d   1       0.507  -4.373  -0.954  0.00  0.00     0.052 C 
ATOM      3  C   UNL d   1       0.361  -5.418   1.234  0.00  0.00     0.021 C 
ATOM      4  C   UNL d   1       0.045  -5.565  -1.518  0.00  0.00     0.031 C 
ATOM      5  C   UNL d   1      -0.026  -6.620   0.648  0.00  0.00     0.002 C 
ATOM      6  C   UNL d   1      -0.223  -6.682  -0.725  0.00  0.00     0.002 C 
ENDROOT
BRANCH   1   7
ATOM      7  S   UNL d   1       0.915  -2.725   1.314  0.00  0.00    -0.066 SA
BRANCH   7   8
ATOM      8  C   UNL d   1      -0.739  -2.297   1.686  0.00  0.00     0.127 C 
ATOM      9  C   UNL d   1      -1.657  -1.481   1.051  0.00  0.00     0.161 C 
ATOM     10  C   UNL d   1      -2.882  -1.694   1.737  0.00  0.00     0.058 C 
ATOM     11  C   UNL d   1      -4.252  -1.226   1.412  0.00  0.00     0.072 C 
ATOM     12  N   UNL d   1      -2.707  -2.486   2.803  0.00  0.00    -0.300 N 
ATOM     13  N   UNL d   1      -1.386  -2.763   2.805  0.00  0.00    -0.287 N 
ATOM     14  HN  UNL d   1      -3.413  -2.808   3.465  1.00  0.00     0.187 HD
ATOM     15  C   UNL d   1      -0.856  -3.469   3.949  0.00  0.00     0.178 C 
BRANCH   9  16
ATOM     16  N   UNL d   1      -1.430  -0.631  -0.074  0.00  0.00    -0.111 N 
ATOM     17  O   UNL d   1      -0.591  -0.996  -0.905  0.00  0.00    -0.532 OA
ATOM     18  O   UNL d   1      -2.080   0.418  -0.120  0.00  0.00    -0.532 OA
ENDBRANCH   9  16
ENDBRANCH   7   8
ENDBRANCH   1   7
BRANCH   2  19
ATOM     19  N   UNL d   1       0.869  -3.270  -1.749  0.00  0.00    -0.324 N 
ATOM     20  C   UNL d   1       1.509  -3.162  -2.954  0.00  0.00     0.255 C 
ATOM     21  O   UNL d   1       1.593  -2.015  -3.426  0.00  0.00    -0.270 OA
ATOM     22  H   UNL d   1       0.730  -2.353  -1.322  0.00  0.00     0.169 HD
BRANCH  20  23
ATOM     23  C   UNL d   1       2.170  -4.306  -3.720  0.00  0.00     0.270 C 
ATOM     24 CL   UNL d   1       3.036  -5.467  -2.708  0.00  0.00    -0.098 Cl
ATOM     25 CL   UNL d   1       1.034  -5.059  -4.850  0.00  0.00    -0.098 Cl
ENDBRANCH  20  23
ENDBRANCH   2  19
TORSDOF 5
