REMARK  3 active torsions:
REMARK  status: ('A' for Active; 'I' for Inactive)
REMARK    1  A    between atoms: C_5  and  C_1 
REMARK    2  A    between atoms: C_7  and  C_5 
REMARK    3  A    between atoms: O_9  and  C_7 
ROOT
ATOM      1  C   UNL d   1       0.820  -1.728   0.010  0.00  0.00    -0.030 A 
ATOM      2  S   UNL d   1       1.730   0.682   0.085  0.00  0.00    -0.101 SA
ATOM      3  C   UNL d   1       1.991  -0.998   0.093  0.00  0.00     0.059 A 
ATOM      4  C   UNL d   1      -0.341  -0.858  -0.055  0.00  0.00    -0.012 A 
ATOM      5  C   UNL d   1       0.024   0.492   0.005  0.00  0.00     0.015 A 
ATOM      6  C   UNL d   1      -1.726  -1.156  -0.145  0.00  0.00     0.013 A 
ATOM      7  C   UNL d   1      -0.937   1.524  -0.001  0.00  0.00     0.019 A 
ATOM      8  C   UNL d   1      -2.682  -0.135  -0.153  0.00  0.00     0.001 A 
ATOM      9  C   UNL d   1      -2.290   1.192  -0.074  0.00  0.00     0.001 A 
ENDROOT
BRANCH   1  10
ATOM     10  C   UNL d   1       0.772  -3.235   0.036  0.00  0.00     0.149 C 
BRANCH  10  11
ATOM     11  C   UNL d   1       1.578  -3.919  -1.048  0.00  0.00     0.143 C 
ATOM     12  O   UNL d   1       2.113  -5.008  -0.887  0.00  0.00    -0.650 OA
BRANCH  11  13
ATOM     13  O   UNL d   1       1.605  -3.291  -2.244  0.00  0.00    -0.776 OA
ATOM     14  H   UNL d   1       1.132  -2.434  -2.263  0.00  0.00     0.167 HD
ENDBRANCH  11  13
ENDBRANCH  10  11
ENDBRANCH   1  10
TORSDOF 3
