REMARK  3 active torsions:
REMARK  status: ('A' for Active; 'I' for Inactive)
REMARK    1  A    between atoms: C_6  and  N_1 
REMARK    2  A    between atoms: C_4  and  O_8 
REMARK    3  A    between atoms: O_8  and  C_17 
ROOT
ATOM      1  C   UNL d   1       1.397   2.196  -1.032  0.00  0.00     0.045 A 
ATOM      2  C   UNL d   1       2.562   1.845  -1.738  0.00  0.00     0.033 A 
ATOM      3  C   UNL d   1       0.917   3.500  -1.194  0.00  0.00     0.033 A 
ATOM      4  C   UNL d   1       2.698   4.008  -2.778  0.00  0.00     0.078 A 
ATOM      5  C   UNL d   1       3.212   2.737  -2.584  0.00  0.00     0.039 A 
ATOM      6  C   UNL d   1       1.575   4.401  -2.046  0.00  0.00     0.039 A 
ENDROOT
BRANCH   1   7
ATOM      7  N   UNL d   1       0.693   1.159  -0.341  0.00  0.00    -0.252 N 
ATOM      8  C   UNL d   1       1.395   0.011   0.033  0.00  0.00     0.239 C 
ATOM      9  C   UNL d   1       0.656  -1.290  -0.273  0.00  0.00     0.035 C 
ATOM     10  O   UNL d   1       2.528   0.009   0.504  0.00  0.00    -0.272 OA
ATOM     11  C   UNL d   1       0.641  -1.478  -1.804  0.00  0.00     0.025 C 
ATOM     12  C   UNL d   1       1.402  -2.486   0.344  0.00  0.00     0.025 C 
ATOM     13  C   UNL d   1      -0.751  -1.191   0.323  0.00  0.00     0.028 C 
ATOM     14  C   UNL d   1      -1.467   0.083  -0.097  0.00  0.00     0.105 C 
ATOM     15  C   UNL d   1      -0.614   1.323   0.116  0.00  0.00     0.231 C 
ATOM     16  O   UNL d   1      -1.115   2.356   0.575  0.00  0.00    -0.273 OA
ENDBRANCH   1   7
BRANCH   4  17
ATOM     17  O   UNL d   1       3.213   4.942  -3.620  0.00  0.00    -0.255 OA
BRANCH  17  18
ATOM     18  C   UNL d   1       3.922   4.516  -4.777  0.00  0.00     0.530 C 
ATOM     19  F   UNL d   1       3.834   3.191  -5.038  0.00  0.00    -0.144 F 
ATOM     20  F   UNL d   1       3.421   5.166  -5.849  0.00  0.00    -0.144 F 
ATOM     21  F   UNL d   1       5.227   4.842  -4.651  0.00  0.00    -0.144 F 
ENDBRANCH  17  18
ENDBRANCH   4  17
TORSDOF 3
