REMARK  5 active torsions:
REMARK  status: ('A' for Active; 'I' for Inactive)
REMARK    1  A    between atoms: C_3  and  S_1 
REMARK    2  A    between atoms: N_4  and  S_1 
REMARK    3  A    between atoms: S_2  and  C_3 
REMARK    4  A    between atoms: C_11  and  N_4 
REMARK    5  A    between atoms: C_5  and  C_11 
ROOT
ATOM      1  S   UNL d   1       1.044   0.037   0.039  0.00  0.00     0.223 S 
ATOM      2  O   UNL d   1       0.475  -1.127   0.667  0.00  0.00    -0.210 OA
ATOM      3  O   UNL d   1       2.459   0.151  -0.236  0.00  0.00    -0.210 OA
ENDROOT
BRANCH   1   4
ATOM      4  C   UNL d   1       0.503   1.515   0.820  0.00  0.00     0.296 C 
BRANCH   4   5
ATOM      5  S   UNL d   1       1.144   1.700   2.450  0.00  0.00     0.155 S 
ATOM      6  O   UNL d   1       0.659   2.986   2.928  0.00  0.00    -0.227 OA
ATOM      7  O   UNL d   1       0.876   0.507   3.225  0.00  0.00    -0.227 OA
ATOM      8  C   UNL d   1       2.908   1.870   2.280  0.00  0.00     0.162 C 
ENDBRANCH   4   5
ENDBRANCH   1   4
BRANCH   1   9
ATOM      9  N   UNL d   1       0.302   0.171  -1.483  0.00  0.00    -0.214 NA
ATOM     10  H   UNL d   1       0.638   0.993  -1.994  0.00  0.00     0.140 HD
BRANCH   9  11
ATOM     11  C   UNL d   1       0.519  -1.035  -2.319  0.00  0.00     0.150 C 
BRANCH  11  12
ATOM     12  C   UNL d   1      -0.090  -0.764  -3.660  0.00  0.00    -0.004 A 
ATOM     13  S   UNL d   1       0.851  -0.064  -4.911  0.00  0.00    -0.105 SA
ATOM     14  C   UNL d   1      -0.460  -0.103  -6.007  0.00  0.00     0.050 A 
ATOM     15  C   UNL d   1      -1.597  -0.625  -5.433  0.00  0.00     0.008 A 
ATOM     16  C   UNL d   1      -1.385  -1.004  -4.076  0.00  0.00     0.016 A 
ENDBRANCH  11  12
ENDBRANCH   9  11
ENDBRANCH   1   9
TORSDOF 5
