REMARK  4 active torsions:
REMARK  status: ('A' for Active; 'I' for Inactive)
REMARK    1  A    between atoms: C_4  and  C_1 
REMARK    2  A    between atoms: C_14  and  C_5 
REMARK    3  A    between atoms: O_11  and  C_14 
REMARK    4  A    between atoms: C_12  and  O_11 
ROOT
ATOM      1  C   UNL d   1       1.318   0.770   0.121  0.00  0.00     0.050 A 
ATOM      2  N   UNL d   1       1.438  -0.606   0.222  0.00  0.00    -0.351 N 
ATOM      3  HN  UNL d   1       2.323  -1.109   0.296  1.00  0.00     0.166 HD
ATOM      4  C   UNL d   1       0.251  -1.173   0.209  0.00  0.00     0.075 A 
ATOM      5  C   UNL d   1       0.017   1.232   0.084  0.00  0.00     0.082 A 
ATOM      6  S   UNL d   1      -1.080  -0.080   0.183  0.00  0.00    -0.084 SA
ENDROOT
BRANCH   4   7
ATOM      7  C   UNL d   1       0.009  -2.646   0.101  0.00  0.00     0.240 C 
BRANCH   7   8
ATOM      8  O   UNL d   1      -0.166  -3.174   1.415  0.00  0.00    -0.343 OA
BRANCH   8   9
ATOM      9  C   UNL d   1      -0.463  -4.514   1.466  0.00  0.00     0.090 A 
ATOM     10  C   UNL d   1       0.054  -5.274   2.526  0.00  0.00     0.067 A 
ATOM     11 CL   UNL d   1       1.115  -4.581   3.700  0.00  0.00    -0.081 Cl
ATOM     12  C   UNL d   1      -0.270  -6.631   2.654  0.00  0.00     0.026 A 
ATOM     13  C   UNL d   1      -1.121  -7.236   1.732  0.00  0.00     0.002 A 
ATOM     14  C   UNL d   1      -1.653  -6.486   0.686  0.00  0.00     0.003 A 
ATOM     15  C   UNL d   1      -1.333  -5.133   0.559  0.00  0.00     0.038 A 
ENDBRANCH   8   9
ENDBRANCH   7   8
ENDBRANCH   4   7
BRANCH   1  16
ATOM     16  C   UNL d   1       2.495   1.643   0.038  0.00  0.00    -0.003 A 
ATOM     17  C   UNL d   1       3.688   1.258  -0.613  0.00  0.00    -0.049 A 
ATOM     18  C   UNL d   1       4.788   2.143  -0.604  0.00  0.00     0.014 A 
ATOM     19  C   UNL d   1       3.900  -0.061  -1.308  0.00  0.00     0.049 C 
ATOM     20  C   UNL d   1       4.718   3.401   0.002  0.00  0.00    -0.061 A 
ATOM     21  C   UNL d   1       3.529   3.787   0.615  0.00  0.00     0.007 A 
ATOM     22  C   UNL d   1       5.915   4.303  -0.009  0.00  0.00     0.048 C 
ATOM     23  C   UNL d   1       2.438   2.916   0.639  0.00  0.00     0.015 A 
ENDBRANCH   1  16
TORSDOF 4
