REMARK  8 active torsions:
REMARK  status: ('A' for Active; 'I' for Inactive)
REMARK    1  A    between atoms: N_3  and  S_1 
REMARK    2  A    between atoms: C_11  and  S_1 
REMARK    3  A    between atoms: C_2  and  N_3 
REMARK    4  A    between atoms: C_9  and  C_6 
REMARK    5  A    between atoms: C_12  and  C_9 
REMARK    6  A    between atoms: C_10  and  O_15 
REMARK    7  A    between atoms: O_25  and  C_12 
REMARK    8  A    between atoms: O_15  and  C_22 
ROOT
ATOM      1  S   UNL d   1       1.116   0.230  -0.060  0.00  0.00     0.247 S 
ATOM      2  O   UNL d   1      -0.028  -0.651   0.079  0.00  0.00    -0.205 OA
ATOM      3  O   UNL d   1       1.659   0.927   1.083  0.00  0.00    -0.205 OA
ENDROOT
BRANCH   1   4
ATOM      4  N   UNL d   1       0.687   1.280  -1.315  0.00  0.00    -0.160 NA
ATOM      5  H   UNL d   1      -0.272   1.028  -1.549  0.00  0.00     0.148 HD
BRANCH   4   6
ATOM      6  C   UNL d   1       0.743   2.627  -0.886  0.00  0.00     0.137 A 
ATOM      7  N   UNL d   1       1.851   3.315  -0.988  0.00  0.00    -0.343 N 
ATOM      8  C   UNL d   1       1.630   4.623  -0.559  0.00  0.00     0.033 A 
ATOM      9  HN  UNL d   1       2.741   2.950  -1.329  1.00  0.00     0.167 HD
ATOM     10  C   UNL d   1       0.340   4.865  -0.098  0.00  0.00     0.005 A 
ATOM     11  S   UNL d   1      -0.632   3.471  -0.343  0.00  0.00    -0.062 SA
ATOM     12  C   UNL d   1      -0.240   6.099   0.499  0.00  0.00     0.058 C 
BRANCH   8  13
ATOM     13  C   UNL d   1       2.779   5.579  -0.593  0.00  0.00     0.169 C 
BRANCH  13  14
ATOM     14  C   UNL d   1       2.560   6.747  -1.535  0.00  0.00     0.264 C 
ATOM     15  O   UNL d   1       1.564   6.965  -2.207  0.00  0.00    -0.265 OA
BRANCH  14  16
ATOM     16  O   UNL d   1       3.659   7.561  -1.499  0.00  0.00    -0.326 OA
ATOM     17  C   UNL d   1       3.558   8.719  -2.328  0.00  0.00     0.213 C 
ENDBRANCH  14  16
ENDBRANCH  13  14
ENDBRANCH   8  13
ENDBRANCH   4   6
ENDBRANCH   1   4
BRANCH   1  18
ATOM     18  C   UNL d   1       2.435  -0.715  -0.779  0.00  0.00     0.075 A 
ATOM     19  C   UNL d   1       3.595  -0.060  -1.203  0.00  0.00     0.027 A 
ATOM     20  C   UNL d   1       4.679  -0.807  -1.682  0.00  0.00     0.038 A 
ATOM     21  C   UNL d   1       4.613  -2.201  -1.705  0.00  0.00     0.078 A 
ATOM     22  C   UNL d   1       3.425  -2.840  -1.328  0.00  0.00     0.038 A 
ATOM     23  C   UNL d   1       2.336  -2.105  -0.859  0.00  0.00     0.027 A 
BRANCH  21  24
ATOM     24  O   UNL d   1       5.612  -3.053  -2.071  0.00  0.00    -0.255 OA
BRANCH  24  25
ATOM     25  C   UNL d   1       6.955  -2.603  -1.984  0.00  0.00     0.530 C 
ATOM     26  F   UNL d   1       7.146  -1.680  -1.018  0.00  0.00    -0.144 F 
ATOM     27  F   UNL d   1       7.742  -3.665  -1.696  0.00  0.00    -0.144 F 
ATOM     28  F   UNL d   1       7.349  -2.095  -3.171  0.00  0.00    -0.144 F 
ENDBRANCH  24  25
ENDBRANCH  21  24
ENDBRANCH   1  18
TORSDOF 8
