REMARK  5 active torsions:
REMARK  status: ('A' for Active; 'I' for Inactive)
REMARK    1  A    between atoms: C_10  and  C_2 
REMARK       I    between atoms: C_3  and  N_4 
REMARK    2  A    between atoms: C_11  and  C_3 
REMARK    3  A    between atoms: N_4  and  C_10 
REMARK    4  A    between atoms: S_8  and  C_11 
REMARK    5  A    between atoms: C_12  and  S_8 
ROOT
ATOM      1  C   UNL d   1       0.910   5.026  -0.067  0.00  0.00     0.227 C 
ATOM      2  N   UNL d   1      -0.134   5.523  -0.811  0.00  0.00    -0.356 N 
ATOM      3  O   UNL d   1       0.852   3.940   0.507  0.00  0.00    -0.273 OA
ATOM      4  H   UNL d   1      -0.080   6.494  -1.102  0.00  0.00     0.162 HD
ENDROOT
BRANCH   1   5
ATOM      5  C   UNL d   1       2.187   5.861  -0.067  0.00  0.00     0.182 C 
BRANCH   5   6
ATOM      6  S   UNL d   1       1.817   7.652  -0.078  0.00  0.00    -0.121 SA
BRANCH   6   7
ATOM      7  C   UNL d   1       3.441   8.379  -0.233  0.00  0.00     0.001 A 
ATOM      8  C   UNL d   1       3.550   9.565  -0.971  0.00  0.00     0.018 A 
ATOM      9  C   UNL d   1       4.774  10.229  -1.080  0.00  0.00     0.001 A 
ATOM     10  C   UNL d   1       5.902   9.717  -0.446  0.00  0.00     0.000 A 
ATOM     11  C   UNL d   1       5.806   8.539   0.292  0.00  0.00     0.001 A 
ATOM     12  C   UNL d   1       4.580   7.874   0.402  0.00  0.00     0.018 A 
ENDBRANCH   6   7
ENDBRANCH   5   6
ENDBRANCH   1   5
BRANCH   2  13
ATOM     13  C   UNL d   1      -1.420   4.869  -0.812  0.00  0.00     0.168 C 
BRANCH  13  14
ATOM     14  C   UNL d   1      -2.365   5.655  -1.662  0.00  0.00     0.000 A 
ATOM     15  S   UNL d   1      -2.465   5.362  -3.348  0.00  0.00    -0.105 SA
ATOM     16  C   UNL d   1      -3.677   6.552  -3.548  0.00  0.00     0.050 A 
ATOM     17  C   UNL d   1      -3.998   7.168  -2.360  0.00  0.00     0.008 A 
ATOM     18  C   UNL d   1      -3.238   6.653  -1.270  0.00  0.00     0.017 A 
ENDBRANCH  13  14
ENDBRANCH   2  13
TORSDOF 5
