REMARK  7 active torsions:
REMARK  status: ('A' for Active; 'I' for Inactive)
REMARK    1  A    between atoms: O_7  and  C_1 
REMARK    2  A    between atoms: C_9  and  C_1 
REMARK    3  A    between atoms: C_2  and  O_7 
REMARK    4  A    between atoms: C_3  and  C_10 
REMARK    5  A    between atoms: C_11  and  N_4 
REMARK    6  A    between atoms: O_28  and  C_8 
REMARK    7  A    between atoms: C_17  and  C_24 
ROOT
ATOM      1  C   UNL d   1      -1.091   1.139  -0.579  0.00  0.00     0.112 A 
ATOM      2  C   UNL d   1      -1.792   1.130   0.635  0.00  0.00     0.102 A 
ATOM      3  C   UNL d   1      -3.184   1.235   0.604  0.00  0.00     0.052 A 
ATOM      4  C   UNL d   1      -1.760   1.292  -1.801  0.00  0.00     0.041 A 
ATOM      5  C   UNL d   1      -3.862   1.351  -0.615  0.00  0.00    -0.018 A 
ATOM      6  C   UNL d   1      -3.154   1.394  -1.821  0.00  0.00     0.016 A 
ENDROOT
BRANCH   5   7
ATOM      7  C   UNL d   1      -5.344   1.393  -0.634  0.00  0.00     0.100 C 
ATOM      8  N   UNL d   1      -6.024   1.174   0.446  0.00  0.00    -0.365 N 
ATOM      9  HN  UNL d   1      -5.535   1.025   1.328  1.00  0.00     0.165 HD
BRANCH   8  10
ATOM     10  C   UNL d   1      -7.428   1.140   0.415  0.00  0.00     0.035 A 
ATOM     11  C   UNL d   1      -8.160   0.529  -0.610  0.00  0.00     0.053 A 
ATOM     12  C   UNL d   1      -9.550   0.439  -0.525  0.00  0.00     0.037 A 
ATOM     13 CL   UNL d   1     -10.431  -0.316  -1.796  0.00  0.00    -0.084 Cl
ATOM     14  C   UNL d   1     -10.230   0.935   0.583  0.00  0.00     0.048 A 
ATOM     15  C   UNL d   1      -9.504   1.528   1.611  0.00  0.00     0.037 A 
ATOM     16  C   UNL d   1      -8.116   1.633   1.529  0.00  0.00     0.053 A 
ATOM     17 CL   UNL d   1     -10.324   2.115   3.005  0.00  0.00    -0.084 Cl
ENDBRANCH   8  10
ENDBRANCH   5   7
BRANCH   2  18
ATOM     18  O   UNL d   1      -1.053   1.044   1.785  0.00  0.00    -0.353 OA
ATOM     19  C   UNL d   1      -1.739   0.499   2.909  0.00  0.00     0.210 C 
ENDBRANCH   2  18
BRANCH   1  20
ATOM     20  O   UNL d   1       0.313   1.054  -0.638  0.00  0.00    -0.273 OA
BRANCH  20  21
ATOM     21  C   UNL d   1       0.843  -0.151  -0.213  0.00  0.00     0.288 C 
ATOM     22  O   UNL d   1       0.240  -1.116   0.240  0.00  0.00    -0.260 OA
BRANCH  21  23
ATOM     23  C   UNL d   1       2.304  -0.228  -0.463  0.00  0.00     0.084 C 
ATOM     24  C   UNL d   1       3.043   0.710  -1.076  0.00  0.00     0.025 C 
BRANCH  24  25
ATOM     25  C   UNL d   1       4.415   0.487  -1.412  0.00  0.00     0.005 A 
ATOM     26  S   UNL d   1       5.331   1.791  -2.084  0.00  0.00    -0.102 SA
ATOM     27  C   UNL d   1       6.720   0.819  -2.300  0.00  0.00     0.050 A 
ATOM     28  C   UNL d   1       6.520  -0.466  -1.859  0.00  0.00     0.008 A 
ATOM     29  C   UNL d   1       5.205  -0.652  -1.339  0.00  0.00     0.019 A 
ENDBRANCH  24  25
ENDBRANCH  21  23
ENDBRANCH  20  21
ENDBRANCH   1  20
TORSDOF 7
