REMARK  2 active torsions:
REMARK  status: ('A' for Active; 'I' for Inactive)
REMARK    1  A    between atoms: N_2  and  C_1 
REMARK       I    between atoms: C_4  and  N_2 
REMARK       I    between atoms: N_8  and  C_4 
REMARK    2  A    between atoms: C_11  and  N_8 
ROOT
ATOM      1  N   UNL d   1      -0.381  -2.753   0.428  0.00  0.00    -0.293 N 
ATOM      2  C   UNL d   1      -1.472  -3.494   0.006  0.00  0.00     0.326 C 
ATOM      3  N   UNL d   1      -2.614  -3.037   0.657  0.00  0.00    -0.309 N 
ATOM      4  O   UNL d   1      -1.418  -4.435  -0.782  0.00  0.00    -0.247 OA
ATOM      5  H   UNL d   1      -0.570  -1.774   0.593  0.00  0.00     0.172 HD
ATOM      6  H   UNL d   1      -2.437  -2.429   1.442  0.00  0.00     0.170 HD
ENDROOT
BRANCH   1   7
ATOM      7  C   UNL d   1       0.947  -3.100   0.260  0.00  0.00     0.126 A 
ATOM      8  N   UNL d   1       1.530  -4.344   0.114  0.00  0.00    -0.281 N 
ATOM      9  N   UNL d   1       2.880  -4.271  -0.017  0.00  0.00    -0.308 N 
ATOM     10  C   UNL d   1       0.982  -5.673   0.249  0.00  0.00     0.179 C 
ATOM     11  C   UNL d   1       3.154  -2.976   0.099  0.00  0.00     0.111 A 
ATOM     12  HN  UNL d   1       3.535  -5.038  -0.169  1.00  0.00     0.186 HD
ATOM     13  C   UNL d   1       2.000  -2.206   0.290  0.00  0.00     0.068 A 
ENDBRANCH   1   7
BRANCH   3  14
ATOM     14  C   UNL d   1      -3.881  -3.656   0.641  0.00  0.00     0.036 A 
ATOM     15  C   UNL d   1      -4.725  -3.423   1.736  0.00  0.00     0.029 A 
ATOM     16  C   UNL d   1      -5.933  -4.113   1.857  0.00  0.00     0.002 A 
ATOM     17  C   UNL d   1      -6.324  -5.008   0.865  0.00  0.00     0.000 A 
ATOM     18  C   UNL d   1      -5.522  -5.190  -0.260  0.00  0.00     0.002 A 
ATOM     19  C   UNL d   1      -4.305  -4.512  -0.374  0.00  0.00     0.029 A 
ENDBRANCH   3  14
TORSDOF 2
