REMARK  6 active torsions:
REMARK  status: ('A' for Active; 'I' for Inactive)
REMARK       I    between atoms: N_2  and  C_1 
REMARK    1  A    between atoms: C_3  and  C_1 
REMARK    2  A    between atoms: C_7  and  N_2 
REMARK    3  A    between atoms: C_4  and  C_7 
REMARK    4  A    between atoms: O_13  and  C_4 
REMARK    5  A    between atoms: O_14  and  C_10 
REMARK    6  A    between atoms: C_15  and  O_13 
ROOT
ATOM      1  C   UNL d   1       1.079   0.094   0.061  0.00  0.00     0.252 C 
ATOM      2  N   UNL d   1       0.361   0.936   0.874  0.00  0.00    -0.348 N 
ATOM      3  O   UNL d   1       2.300   0.005   0.097  0.00  0.00    -0.268 OA
ATOM      4  H   UNL d   1      -0.650   0.882   0.923  0.00  0.00     0.163 HD
ENDROOT
BRANCH   1   5
ATOM      5  C   UNL d   1       0.278  -0.755  -0.860  0.00  0.00     0.032 A 
ATOM      6  C   UNL d   1      -0.956  -0.329  -1.367  0.00  0.00     0.020 A 
ATOM      7  C   UNL d   1      -1.701  -1.167  -2.200  0.00  0.00     0.038 A 
ATOM      8  C   UNL d   1      -1.215  -2.433  -2.533  0.00  0.00     0.068 A 
ATOM      9  C   UNL d   1       0.038  -2.835  -2.068  0.00  0.00     0.038 A 
ATOM     10  C   UNL d   1       0.785  -2.002  -1.231  0.00  0.00     0.020 A 
BRANCH   8  11
ATOM     11  O   UNL d   1      -1.859  -3.333  -3.337  0.00  0.00    -0.356 OA
ATOM     12  C   UNL d   1      -3.280  -3.252  -3.331  0.00  0.00     0.210 C 
ENDBRANCH   8  11
ENDBRANCH   1   5
BRANCH   2  13
ATOM     13  C   UNL d   1       1.024   1.800   1.834  0.00  0.00     0.233 C 
BRANCH  13  14
ATOM     14  C   UNL d   1       0.008   2.719   2.479  0.00  0.00     0.276 C 
ATOM     15  O   UNL d   1      -1.192   2.726   2.215  0.00  0.00    -0.263 OA
BRANCH  14  16
ATOM     16  O   UNL d   1       0.637   3.572   3.334  0.00  0.00    -0.321 OA
BRANCH  16  17
ATOM     17  C   UNL d   1      -0.124   4.718   3.733  0.00  0.00     0.174 C 
ATOM     18  C   UNL d   1       0.095   5.809   2.701  0.00  0.00     0.034 C 
ENDBRANCH  16  17
ENDBRANCH  14  16
ENDBRANCH  13  14
ENDBRANCH   2  13
TORSDOF 6
