REMARK  4 active torsions:
REMARK  status: ('A' for Active; 'I' for Inactive)
REMARK    1  A    between atoms: C_8  and  N_1 
REMARK    2  A    between atoms: C_10  and  C_2 
REMARK    3  A    between atoms: S_13  and  C_5 
REMARK    4  A    between atoms: C_11  and  C_12 
ROOT
ATOM      1  N   UNL d   1      -0.275  -1.122  -0.433  0.00  0.00    -0.275 N 
ATOM      2  C   UNL d   1       0.958  -0.611  -0.005  0.00  0.00     0.139 A 
ATOM      3  N   UNL d   1       0.775   0.623   0.435  0.00  0.00    -0.282 N 
ATOM      4  HN  UNL d   1       1.492   1.213   0.857  1.00  0.00     0.188 HD
ATOM      5  C   UNL d   1      -1.147  -0.052  -0.288  0.00  0.00     0.165 A 
ATOM      6  N   UNL d   1      -0.525   0.977   0.235  0.00  0.00    -0.278 N 
ATOM      7  HN  UNL d   1      -0.941   1.882   0.454  1.00  0.00     0.189 HD
ENDROOT
BRANCH   2   8
ATOM      8  C   UNL d   1       2.281  -1.247  -0.069  0.00  0.00     0.010 A 
ATOM      9  C   UNL d   1       2.689  -2.036  -1.147  0.00  0.00     0.016 A 
ATOM     10  C   UNL d   1       3.946  -2.653  -1.146  0.00  0.00     0.009 A 
ATOM     11  C   UNL d   1       4.858  -2.470  -0.091  0.00  0.00    -0.051 A 
ATOM     12  C   UNL d   1       4.461  -1.626   0.955  0.00  0.00     0.009 A 
ATOM     13  C   UNL d   1       3.194  -1.025   0.967  0.00  0.00     0.016 A 
BRANCH  11  14
ATOM     14  C   UNL d   1       6.220  -3.186  -0.113  0.00  0.00    -0.024 C 
ATOM     15  C   UNL d   1       7.133  -2.824   1.081  0.00  0.00     0.019 C 
ATOM     16  C   UNL d   1       5.991  -4.712  -0.070  0.00  0.00     0.019 C 
ATOM     17  C   UNL d   1       6.991  -2.825  -1.401  0.00  0.00     0.019 C 
ENDBRANCH  11  14
ENDBRANCH   2   8
BRANCH   1  18
ATOM     18  C   UNL d   1      -0.556  -2.448  -0.882  0.00  0.00     0.046 A 
ATOM     19  C   UNL d   1      -1.410  -2.668  -1.968  0.00  0.00     0.072 A 
ATOM     20  C   UNL d   1      -1.649  -3.971  -2.401  0.00  0.00     0.118 A 
ATOM     21  F   UNL d   1      -2.467  -4.176  -3.440  0.00  0.00    -0.206 F 
ATOM     22  C   UNL d   1      -1.040  -5.058  -1.787  0.00  0.00     0.042 A 
ATOM     23  C   UNL d   1      -0.183  -4.847  -0.712  0.00  0.00     0.005 A 
ATOM     24  C   UNL d   1       0.052  -3.546  -0.250  0.00  0.00     0.030 A 
ENDBRANCH   1  18
BRANCH   5  25
ATOM     25  S   UNL d   1      -2.864  -0.050  -0.546  0.00  0.00    -0.105 SA
ATOM     26  H   UNL d   1      -3.110  -1.366  -0.515  0.00  0.00     0.110 HD
ENDBRANCH   5  25
TORSDOF 4
