REMARK  0 active torsions:
REMARK  status: ('A' for Active; 'I' for Inactive)
ROOT
ATOM      1  C   UNL d   1       1.057  -0.209  -0.016  0.00  0.00     0.280 A 
ATOM      2  C   UNL d   1      -0.378   0.249   0.015  0.00  0.00     0.042 A 
ATOM      3  C   UNL d   1       0.873  -1.781  -0.082  0.00  0.00     0.290 A 
ATOM      4  N   UNL d   1      -0.497  -2.037  -0.077  0.00  0.00    -0.321 N 
ATOM      5  C   UNL d   1      -1.227  -0.860  -0.023  0.00  0.00     0.047 A 
ATOM      6  O   UNL d   1       1.724   0.296  -1.174  0.00  0.00    -0.342 OA
ATOM      7  O   UNL d   1       1.750   0.200   1.163  0.00  0.00    -0.342 OA
ATOM      8  C   UNL d   1      -0.903   1.532   0.064  0.00  0.00     0.034 A 
ATOM      9  O   UNL d   1       1.746  -2.636  -0.127  0.00  0.00    -0.267 OA
ATOM     10  C   UNL d   1      -2.602  -0.745  -0.012  0.00  0.00     0.031 A 
ATOM     11  C   UNL d   1      -2.294   1.668   0.073  0.00  0.00     0.011 A 
ATOM     12  C   UNL d   1      -3.139   0.544   0.036  0.00  0.00     0.021 A 
ATOM     13 BR   UNL d   1      -3.059   3.398   0.131  0.00  0.00    -0.051 Br
ATOM     14  C   UNL d   1       2.883   0.965  -0.673  0.00  0.00     0.198 C 
ATOM     15  C   UNL d   1       3.087   0.388   0.703  0.00  0.00     0.198 C 
ATOM     16  H   UNL d   1      -0.875  -2.971  -0.113  0.00  0.00     0.169 HD
ENDROOT
TORSDOF 0
