REMARK  8 active torsions:
REMARK  status: ('A' for Active; 'I' for Inactive)
REMARK    1  A    between atoms: N_2  and  C_1 
REMARK    2  A    between atoms: C_3  and  C_1 
REMARK    3  A    between atoms: C_5  and  C_1 
REMARK    4  A    between atoms: N_6  and  C_1 
REMARK       I    between atoms: C_4  and  N_2 
REMARK    5  A    between atoms: C_7  and  C_4 
REMARK    6  A    between atoms: O_15  and  C_5 
REMARK    7  A    between atoms: C_14  and  N_6 
REMARK    8  A    between atoms: C_25  and  O_15 
ROOT
ATOM      1  C   UNL d   1       0.771   0.010   0.079  0.00  0.00     0.297 C 
ENDROOT
BRANCH   1   2
ATOM      2  N   UNL d   1       0.553  -1.258  -0.636  0.00  0.00    -0.315 N 
ATOM      3  C   UNL d   1       0.207  -2.453  -0.072  0.00  0.00     0.254 C 
ATOM      4  O   UNL d   1       0.106  -2.601   1.140  0.00  0.00    -0.268 OA
ATOM      5  H   UNL d   1       0.696  -1.202  -1.629  0.00  0.00     0.166 HD
BRANCH   3   6
ATOM      6  C   UNL d   1      -0.088  -3.593  -1.015  0.00  0.00     0.032 A 
ATOM      7  C   UNL d   1      -0.540  -4.807  -0.468  0.00  0.00     0.023 A 
ATOM      8  C   UNL d   1      -0.847  -5.908  -1.285  0.00  0.00    -0.061 A 
ATOM      9  C   UNL d   1      -1.363  -7.187  -0.695  0.00  0.00     0.048 C 
ATOM     10  C   UNL d   1      -0.718  -5.784  -2.672  0.00  0.00     0.007 A 
ATOM     11  C   UNL d   1      -0.277  -4.590  -3.231  0.00  0.00     0.002 A 
ATOM     12  C   UNL d   1       0.037  -3.501  -2.412  0.00  0.00     0.017 A 
ENDBRANCH   3   6
ENDBRANCH   1   2
BRANCH   1  13
ATOM     13  C   UNL d   1      -0.188   0.342   1.288  0.00  0.00     0.442 C 
ATOM     14  F   UNL d   1      -1.293  -0.432   1.352  0.00  0.00    -0.166 F 
ATOM     15  F   UNL d   1       0.471   0.229   2.475  0.00  0.00    -0.166 F 
ATOM     16  F   UNL d   1      -0.643   1.625   1.257  0.00  0.00    -0.166 F 
ENDBRANCH   1  13
BRANCH   1  17
ATOM     17  C   UNL d   1       0.411   1.124  -0.934  0.00  0.00     0.318 C 
ATOM     18  O   UNL d   1      -0.364   0.964  -1.870  0.00  0.00    -0.260 OA
BRANCH  17  19
ATOM     19  O   UNL d   1       1.076   2.294  -0.685  0.00  0.00    -0.318 OA
BRANCH  19  20
ATOM     20  C   UNL d   1       0.784   3.375  -1.581  0.00  0.00     0.174 C 
ATOM     21  C   UNL d   1       1.524   3.222  -2.900  0.00  0.00     0.034 C 
ENDBRANCH  19  20
ENDBRANCH  17  19
ENDBRANCH   1  17
BRANCH   1  22
ATOM     22  N   UNL d   1       2.211   0.029   0.460  0.00  0.00    -0.348 N 
ATOM     23  H   UNL d   1       2.358   0.370   1.408  0.00  0.00     0.163 HD
BRANCH  22  24
ATOM     24  C   UNL d   1       3.332   0.050  -0.347  0.00  0.00     0.030 A 
ATOM     25  C   UNL d   1       3.312  -0.077  -1.738  0.00  0.00     0.029 A 
ATOM     26  C   UNL d   1       4.493  -0.170  -2.485  0.00  0.00     0.009 A 
ATOM     27  C   UNL d   1       5.738  -0.148  -1.856  0.00  0.00    -0.062 A 
ATOM     28  C   UNL d   1       5.781  -0.002  -0.470  0.00  0.00     0.009 A 
ATOM     29  C   UNL d   1       6.986  -0.310  -2.668  0.00  0.00     0.048 C 
ATOM     30  C   UNL d   1       4.594   0.087   0.268  0.00  0.00     0.029 A 
ENDBRANCH  22  24
ENDBRANCH   1  22
TORSDOF 8
