REMARK  3 active torsions:
REMARK  status: ('A' for Active; 'I' for Inactive)
REMARK    1  A    between atoms: C_4  and  C_1 
REMARK    2  A    between atoms: O_14  and  C_2 
REMARK    3  A    between atoms: C_13  and  N_6 
ROOT
ATOM      1  C   UNL d   1      -2.726   7.443   0.840  0.00  0.00    -0.078 C 
ATOM      2  C   UNL d   1      -2.170   8.445   1.213  0.00  0.00     0.018 C 
ATOM      3  C   UNL d   1      -3.367   6.267   0.340  0.00  0.00     0.019 A 
ATOM      4  C   UNL d   1      -3.328   3.870  -0.060  0.00  0.00     0.033 A 
ATOM      5  C   UNL d   1      -2.789   5.012   0.547  0.00  0.00     0.050 A 
ATOM      6  C   UNL d   1      -5.120   5.238  -0.967  0.00  0.00     0.004 A 
ATOM      7  C   UNL d   1      -4.535   6.377  -0.416  0.00  0.00     0.021 A 
ATOM      8  C   UNL d   1      -4.510   3.993  -0.797  0.00  0.00     0.029 A 
ENDROOT
BRANCH   4   9
ATOM      9  N   UNL d   1      -2.718   2.603  -0.008  0.00  0.00    -0.365 N 
ATOM     10  C   UNL d   1      -1.422   2.537   0.012  0.00  0.00     0.102 C 
ATOM     11  HN  UNL d   1      -3.283   1.754   0.013  1.00  0.00     0.165 HD
BRANCH  10  12
ATOM     12  C   UNL d   1      -0.724   1.235   0.012  0.00  0.00     0.015 A 
ATOM     13  C   UNL d   1      -1.419   0.014  -0.020  0.00  0.00     0.083 A 
ATOM     14  C   UNL d   1      -0.725  -1.203  -0.022  0.00  0.00    -0.026 A 
ATOM     15  C   UNL d   1      -1.425  -2.533  -0.050  0.00  0.00     0.051 C 
ATOM     16  C   UNL d   1       0.678  -1.179   0.003  0.00  0.00     0.033 A 
ATOM     17  C   UNL d   1       1.365   0.036   0.031  0.00  0.00     0.035 A 
ATOM     18  C   UNL d   1       0.674   1.245   0.036  0.00  0.00     0.039 A 
ATOM     19 CL   UNL d   1       3.086   0.040   0.058  0.00  0.00    -0.084 Cl
BRANCH  13  20
ATOM     20  O   UNL d   1      -2.789  -0.032  -0.053  0.00  0.00    -0.359 OA
ATOM     21  H   UNL d   1      -3.118   0.896  -0.067  0.00  0.00     0.217 HD
ENDBRANCH  13  20
ENDBRANCH  10  12
ENDBRANCH   4   9
TORSDOF 3
