REMARK  4 active torsions:
REMARK  status: ('A' for Active; 'I' for Inactive)
REMARK    1  A    between atoms: O_2  and  S_1 
REMARK    2  A    between atoms: C_3  and  S_1 
REMARK    3  A    between atoms: C_14  and  O_2 
REMARK    4  A    between atoms: C_4  and  C_9 
ROOT
ATOM      1  C   UNL d   1       1.441   5.320  -0.792  0.00  0.00    -0.035 A 
ATOM      2  C   UNL d   1       0.136   4.889  -1.080  0.00  0.00     0.012 A 
ATOM      3  C   UNL d   1       2.441   4.344  -0.642  0.00  0.00     0.012 A 
ATOM      4  C   UNL d   1       0.851   2.580  -1.140  0.00  0.00     0.089 A 
ATOM      5  C   UNL d   1      -0.159   3.533  -1.242  0.00  0.00     0.039 A 
ATOM      6  C   UNL d   1       2.146   2.986  -0.812  0.00  0.00     0.039 A 
ENDROOT
BRANCH   4   7
ATOM      7  O   UNL d   1       0.669   1.234  -1.338  0.00  0.00    -0.229 OA
BRANCH   7   8
ATOM      8  S   UNL d   1      -0.612   0.667  -2.180  0.00  0.00     0.303 S 
ATOM      9  O   UNL d   1      -0.737   1.387  -3.433  0.00  0.00    -0.193 OA
ATOM     10  O   UNL d   1      -1.738   0.547  -1.271  0.00  0.00    -0.193 OA
BRANCH   8  11
ATOM     11  C   UNL d   1      -0.122  -0.982  -2.635  0.00  0.00     0.086 A 
ATOM     12  C   UNL d   1      -0.969  -2.063  -2.372  0.00  0.00     0.027 A 
ATOM     13  C   UNL d   1      -0.596  -3.341  -2.792  0.00  0.00     0.020 A 
ATOM     14  C   UNL d   1       0.613  -3.525  -3.465  0.00  0.00     0.011 A 
ATOM     15  C   UNL d   1       1.461  -2.444  -3.718  0.00  0.00     0.020 A 
ATOM     16 BR   UNL d   1       1.100  -5.253  -4.056  0.00  0.00    -0.051 Br
ATOM     17  C   UNL d   1       1.094  -1.164  -3.303  0.00  0.00     0.027 A 
ENDBRANCH   8  11
ENDBRANCH   7   8
ENDBRANCH   4   7
BRANCH   1  18
ATOM     18  C   UNL d   1       1.705   6.800  -0.636  0.00  0.00     0.141 C 
ATOM     19  S   UNL d   1       2.992   7.446  -1.740  0.00  0.00    -0.148 SA
ATOM     20  C   UNL d   1       3.301   8.919  -0.741  0.00  0.00     0.085 C 
ATOM     21  C   UNL d   1       3.435   8.447   0.695  0.00  0.00     0.085 C 
ATOM     22  S   UNL d   1       2.099   7.274   1.080  0.00  0.00    -0.148 SA
ENDBRANCH   1  18
TORSDOF 4
