REMARK  4 active torsions:
REMARK  status: ('A' for Active; 'I' for Inactive)
REMARK       I    between atoms: N_2  and  C_1 
REMARK       I    between atoms: N_3  and  C_1 
REMARK    1  A    between atoms: C_5  and  N_3 
REMARK    2  A    between atoms: C_7  and  N_4 
REMARK    3  A    between atoms: C_15  and  C_7 
REMARK    4  A    between atoms: C_16  and  C_7 
ROOT
ATOM      1  C   UNL d   1       0.775  -0.048   0.246  0.00  0.00     0.323 C 
ATOM      2  N   UNL d   1       0.324  -0.638  -0.923  0.00  0.00    -0.331 N 
ATOM      3  N   UNL d   1       0.565   1.311   0.319  0.00  0.00    -0.306 N 
ATOM      4  N   UNL d   1      -0.371  -1.998  -3.464  0.00  0.00     0.105 N 
ATOM      5  O   UNL d   1       1.391  -0.693   1.095  0.00  0.00    -0.247 OA
ATOM      6  C   UNL d   1       0.707  -2.031  -1.155  0.00  0.00     0.158 C 
ATOM      7  C   UNL d   1      -0.812  -0.166  -1.726  0.00  0.00     0.158 C 
ATOM      8  C   UNL d   1       0.826  -2.341  -2.655  0.00  0.00     0.293 C 
ATOM      9  C   UNL d   1      -0.665  -0.559  -3.214  0.00  0.00     0.293 C 
ATOM     10  H   UNL d   1       0.512   1.770  -0.581  0.00  0.00     0.171 HD
ENDROOT
BRANCH   4  11
ATOM     11  C   UNL d   1      -1.549  -2.868  -3.164  0.00  0.00     0.289 C 
BRANCH  11  12
ATOM     12  C   UNL d   1      -2.768  -2.503  -4.021  0.00  0.00    -0.021 A 
ATOM     13  C   UNL d   1      -2.708  -2.533  -5.425  0.00  0.00     0.010 A 
ATOM     14  C   UNL d   1      -3.827  -2.209  -6.193  0.00  0.00     0.001 A 
ATOM     15  C   UNL d   1      -5.019  -1.845  -5.570  0.00  0.00     0.000 A 
ATOM     16  C   UNL d   1      -5.093  -1.804  -4.179  0.00  0.00     0.001 A 
ATOM     17  C   UNL d   1      -3.977  -2.132  -3.408  0.00  0.00     0.010 A 
ENDBRANCH  11  12
BRANCH  11  18
ATOM     18  C   UNL d   1      -1.285  -4.378  -3.271  0.00  0.00    -0.021 A 
ATOM     19  C   UNL d   1      -1.944  -5.251  -2.386  0.00  0.00     0.010 A 
ATOM     20  C   UNL d   1      -1.743  -6.630  -2.462  0.00  0.00     0.001 A 
ATOM     21  C   UNL d   1      -0.884  -7.160  -3.421  0.00  0.00     0.000 A 
ATOM     22  C   UNL d   1      -0.235  -6.310  -4.316  0.00  0.00     0.001 A 
ATOM     23  C   UNL d   1      -0.444  -4.931  -4.250  0.00  0.00     0.010 A 
ENDBRANCH  11  18
ENDBRANCH   4  11
BRANCH   3  24
ATOM     24  C   UNL d   1       1.107   2.120   1.345  0.00  0.00     0.075 A 
ATOM     25  C   UNL d   1       1.566   3.394   0.991  0.00  0.00     0.146 A 
ATOM     26  C   UNL d   1       2.230   4.201   1.905  0.00  0.00     0.086 A 
ATOM     27  F   UNL d   1       1.423   3.821  -0.274  0.00  0.00    -0.204 F 
ATOM     28  C   UNL d   1       2.400   3.738   3.203  0.00  0.00     0.119 A 
ATOM     29  C   UNL d   1       1.897   2.501   3.598  0.00  0.00     0.044 A 
ATOM     30  F   UNL d   1       3.063   4.492   4.089  0.00  0.00    -0.206 F 
ATOM     31  C   UNL d   1       1.246   1.689   2.666  0.00  0.00     0.036 A 
ENDBRANCH   3  24
TORSDOF 4
