REMARK  2 active torsions:
REMARK  status: ('A' for Active; 'I' for Inactive)
REMARK    1  A    between atoms: C_7  and  C_4 
REMARK    2  A    between atoms: C_8  and  C_5 
ROOT
ATOM      1  C   UNL d   1      -1.276  -0.054   0.131  0.00  0.00    -0.007 C 
ATOM      2  C   UNL d   1       1.277   0.032   0.160  0.00  0.00    -0.007 C 
ATOM      3  C   UNL d   1       0.028  -0.777  -0.043  0.00  0.00     0.184 C 
ATOM      4  C   UNL d   1      -2.360  -0.821   0.358  0.00  0.00     0.022 C 
ATOM      5  C   UNL d   1       2.435  -0.651   0.252  0.00  0.00     0.022 C 
ATOM      6  O   UNL d   1       0.069  -1.967  -0.334  0.00  0.00    -0.287 OA
ATOM      7  C   UNL d   1       1.169   1.527   0.237  0.00  0.00     0.043 C 
ATOM      8  C   UNL d   1      -1.310   1.446   0.049  0.00  0.00     0.043 C 
ATOM      9  C   UNL d   1      -0.037   2.038  -0.536  0.00  0.00     0.009 C 
ENDROOT
BRANCH   4  10
ATOM     10  C   UNL d   1      -3.712  -0.298   0.575  0.00  0.00    -0.035 A 
ATOM     11  C   UNL d   1      -4.574  -0.106  -0.511  0.00  0.00     0.014 A 
ATOM     12  C   UNL d   1      -5.874   0.358  -0.299  0.00  0.00     0.043 A 
ATOM     13  C   UNL d   1      -6.306   0.621   0.996  0.00  0.00     0.116 A 
ATOM     14  C   UNL d   1      -5.457   0.449   2.083  0.00  0.00     0.043 A 
ATOM     15  F   UNL d   1      -7.561   1.043   1.200  0.00  0.00    -0.206 F 
ATOM     16  C   UNL d   1      -4.152  -0.003   1.872  0.00  0.00     0.014 A 
ENDBRANCH   4  10
BRANCH   5  17
ATOM     17  C   UNL d   1       3.737  -0.029   0.508  0.00  0.00    -0.035 A 
ATOM     18  C   UNL d   1       4.178   0.153   1.826  0.00  0.00     0.014 A 
ATOM     19  C   UNL d   1       5.428   0.722   2.074  0.00  0.00     0.043 A 
ATOM     20  C   UNL d   1       6.230   1.107   1.005  0.00  0.00     0.116 A 
ATOM     21  C   UNL d   1       5.798   0.948  -0.307  0.00  0.00     0.043 A 
ATOM     22  F   UNL d   1       7.438   1.635   1.243  0.00  0.00    -0.206 F 
ATOM     23  C   UNL d   1       4.545   0.385  -0.557  0.00  0.00     0.014 A 
ENDBRANCH   5  17
TORSDOF 2
