REMARK  1 active torsions:
REMARK  status: ('A' for Active; 'I' for Inactive)
REMARK    1  A    between atoms: C_2  and  N_1 
ROOT
ATOM      1  C   UNL d   1      -0.042   2.345  -0.027  0.00  0.00     0.087 A 
ATOM      2  C   UNL d   1      -0.802   3.071   0.905  0.00  0.00     0.077 A 
ATOM      3  C   UNL d   1       0.631   3.089  -1.015  0.00  0.00     0.145 A 
ATOM      4  C   UNL d   1       0.547   4.483  -1.083  0.00  0.00     0.067 A 
ATOM      5  C   UNL d   1      -0.889   4.464   0.838  0.00  0.00     0.136 A 
ATOM      6  C   UNL d   1      -0.224   5.171  -0.156  0.00  0.00     0.052 A 
ATOM      7  F   UNL d   1       1.297   2.488  -2.009  0.00  0.00    -0.204 F 
ATOM      8  F   UNL d   1      -1.637   5.103   1.749  0.00  0.00    -0.205 F 
ATOM      9 BR   UNL d   1      -0.387   7.049  -0.285  0.00  0.00    -0.048 Br
ENDROOT
BRANCH   1  10
ATOM     10  N   UNL d   1      -0.004   0.921   0.011  0.00  0.00    -0.242 N 
ATOM     11  C   UNL d   1       0.970   0.123  -0.526  0.00  0.00     0.255 A 
ATOM     12  C   UNL d   1       0.564  -1.271  -0.316  0.00  0.00     0.080 A 
ATOM     13  O   UNL d   1       2.054   0.388  -1.015  0.00  0.00    -0.268 OA
ATOM     14  C   UNL d   1      -0.567  -1.269   0.383  0.00  0.00     0.080 A 
ATOM     15  C   UNL d   1      -0.944   0.129   0.614  0.00  0.00     0.255 A 
ATOM     16  O   UNL d   1      -1.964   0.416   1.216  0.00  0.00    -0.268 OA
ENDBRANCH   1  10
TORSDOF 1
