REMARK  11 active torsions:
REMARK  status: ('A' for Active; 'I' for Inactive)
REMARK    1  A    between atoms: C_7  and  C_1 
REMARK    2  A    between atoms: O_14  and  C_1 
REMARK    3  A    between atoms: C_8  and  C_2 
REMARK    4  A    between atoms: O_15  and  C_2 
REMARK    5  A    between atoms: C_9  and  C_4 
REMARK    6  A    between atoms: C_10  and  C_5 
REMARK    7  A    between atoms: C_12  and  C_6 
REMARK    8  A    between atoms: O_28  and  C_9 
REMARK    9  A    between atoms: O_27  and  C_10 
REMARK   10  A    between atoms: C_32  and  O_27 
REMARK   11  A    between atoms: C_31  and  O_28 
ROOT
ATOM      1  N   UNL d   1      -8.075   0.049   1.990  0.00  0.00    -0.191 NA
ATOM      2  C   UNL d   1      -2.896  -0.015   0.418  0.00  0.00    -0.052 A 
ATOM      3  C   UNL d   1      -6.961   0.015   1.651  0.00  0.00     0.099 C 
ATOM      4  C   UNL d   1      -3.277   0.565   1.637  0.00  0.00     0.009 A 
ATOM      5  C   UNL d   1      -3.893  -0.614  -0.371  0.00  0.00     0.009 A 
ATOM      6  C   UNL d   1      -5.605   0.011   1.240  0.00  0.00     0.044 A 
ATOM      7  C   UNL d   1      -4.613   0.570   2.047  0.00  0.00     0.023 A 
ATOM      8  C   UNL d   1      -5.232  -0.608   0.037  0.00  0.00     0.023 A 
ENDROOT
BRANCH   2   9
ATOM      9  C   UNL d   1      -1.453   0.024  -0.093  0.00  0.00     0.056 C 
ATOM     10  C   UNL d   1      -0.615  -1.202   0.376  0.00  0.00     0.170 C 
ATOM     11  C   UNL d   1       0.784  -1.184  -0.307  0.00  0.00     0.371 C 
ATOM     12  N   UNL d   1       1.463   0.070   0.036  0.00  0.00     0.174 N 
ATOM     13  C   UNL d   1       0.771   1.327  -0.325  0.00  0.00     0.371 C 
ATOM     14  H   UNL d   1       2.380   0.102  -0.412  0.00  0.00     0.324 HD
ATOM     15  C   UNL d   1      -0.703   1.353   0.170  0.00  0.00     0.170 C 
BRANCH  10  16
ATOM     16  C   UNL d   1      -0.415  -1.206   1.893  0.00  0.00     0.269 C 
ATOM     17  O   UNL d   1      -0.335  -0.206   2.589  0.00  0.00    -0.265 OA
BRANCH  16  18
ATOM     18  O   UNL d   1      -0.246  -2.472   2.365  0.00  0.00    -0.321 OA
BRANCH  18  19
ATOM     19  C   UNL d   1       0.462  -2.544   3.614  0.00  0.00     0.174 C 
ATOM     20  C   UNL d   1       1.957  -2.551   3.337  0.00  0.00     0.034 C 
ENDBRANCH  18  19
ENDBRANCH  16  18
ENDBRANCH  10  16
BRANCH  11  21
ATOM     21  C   UNL d   1       0.674  -1.610  -1.855  0.00  0.00     0.449 C 
ATOM     22  F   UNL d   1       1.379  -0.806  -2.676  0.00  0.00    -0.166 F 
ATOM     23  F   UNL d   1       1.204  -2.851  -2.036  0.00  0.00    -0.166 F 
ATOM     24  F   UNL d   1      -0.596  -1.658  -2.304  0.00  0.00    -0.166 F 
ENDBRANCH  11  21
BRANCH  11  25
ATOM     25  O   UNL d   1       1.582  -2.200   0.327  0.00  0.00    -0.355 OA
ATOM     26  H   UNL d   1       2.393  -2.316  -0.200  0.00  0.00     0.213 HD
ENDBRANCH  11  25
BRANCH  13  27
ATOM     27  C   UNL d   1       1.545   2.592   0.308  0.00  0.00     0.449 C 
ATOM     28  F   UNL d   1       2.678   2.209   0.950  0.00  0.00    -0.166 F 
ATOM     29  F   UNL d   1       1.920   3.476  -0.646  0.00  0.00    -0.166 F 
ATOM     30  F   UNL d   1       0.797   3.273   1.204  0.00  0.00    -0.166 F 
ENDBRANCH  13  27
BRANCH  13  31
ATOM     31  O   UNL d   1       0.860   1.344  -1.748  0.00  0.00    -0.355 OA
ATOM     32  H   UNL d   1      -0.002   1.550  -2.165  0.00  0.00     0.213 HD
ENDBRANCH  13  31
BRANCH  15  33
ATOM     33  C   UNL d   1      -1.431   2.490  -0.514  0.00  0.00     0.269 C 
ATOM     34  O   UNL d   1      -1.564   2.548  -1.730  0.00  0.00    -0.265 OA
BRANCH  33  35
ATOM     35  O   UNL d   1      -1.881   3.401   0.384  0.00  0.00    -0.321 OA
BRANCH  35  36
ATOM     36  C   UNL d   1      -2.553   4.548  -0.155  0.00  0.00     0.174 C 
ATOM     37  C   UNL d   1      -1.542   5.575  -0.630  0.00  0.00     0.034 C 
ENDBRANCH  35  36
ENDBRANCH  33  35
ENDBRANCH  15  33
ENDBRANCH   2   9
TORSDOF 11
