REMARK  2 active torsions:
REMARK  status: ('A' for Active; 'I' for Inactive)
REMARK       I    between atoms: N_4  and  C_1 
REMARK       I    between atoms: N_9  and  C_1 
REMARK    1  A    between atoms: C_3  and  C_10 
REMARK    2  A    between atoms: C_10  and  N_4 
ROOT
ATOM      1  C   UNL d   1       0.790  -0.104   0.474  0.00  0.00     0.314 C 
ATOM      2  N   UNL d   1       0.195   1.098   0.687  0.00  0.00    -0.339 N 
ATOM      3  O   UNL d   1       1.887  -0.441   0.898  0.00  0.00    -0.248 OA
ATOM      4  N   UNL d   1       0.033  -0.934  -0.282  0.00  0.00    -0.352 N 
ATOM      5  H   UNL d   1      -0.528   1.363   0.036  0.00  0.00     0.164 HD
ATOM      6  H   UNL d   1      -0.971  -0.832  -0.257  0.00  0.00     0.160 HD
ATOM      7  H   UNL d   1       0.380  -1.885  -0.326  0.00  0.00     0.160 HD
ENDROOT
BRANCH   2   8
ATOM      8  C   UNL d   1       0.926   2.173   1.316  0.00  0.00     0.170 C 
BRANCH   8   9
ATOM      9  C   UNL d   1      -0.061   3.131   1.897  0.00  0.00     0.000 A 
ATOM     10  S   UNL d   1      -0.661   4.439   0.966  0.00  0.00    -0.105 SA
ATOM     11  C   UNL d   1      -1.639   4.991   2.256  0.00  0.00     0.050 A 
ATOM     12  C   UNL d   1      -1.519   4.196   3.373  0.00  0.00     0.008 A 
ATOM     13  C   UNL d   1      -0.609   3.121   3.165  0.00  0.00     0.017 A 
ENDBRANCH   8   9
ENDBRANCH   2   8
TORSDOF 2
