REMARK  6 active torsions:
REMARK  status: ('A' for Active; 'I' for Inactive)
REMARK    1  A    between atoms: C_4  and  C_1 
REMARK    2  A    between atoms: C_2  and  C_3 
REMARK    3  A    between atoms: C_13  and  C_5 
REMARK    4  A    between atoms: C_6  and  C_13 
REMARK    5  A    between atoms: N_23  and  C_11 
REMARK    6  A    between atoms: N_22  and  C_12 
ROOT
ATOM      1  C   UNL d   1      -1.953  -2.969  -2.828  0.00  0.00     0.077 C 
ENDROOT
BRANCH   1   2
ATOM      2  C   UNL d   1      -2.563  -1.651  -3.249  0.00  0.00    -0.051 A 
ATOM      3  C   UNL d   1      -2.017  -0.927  -4.317  0.00  0.00     0.023 A 
ATOM      4  C   UNL d   1      -2.495   0.351  -4.633  0.00  0.00     0.050 A 
ATOM      5  C   UNL d   1      -3.558   0.885  -3.885  0.00  0.00     0.039 A 
ATOM      6  C   UNL d   1      -4.164   0.151  -2.864  0.00  0.00     0.007 A 
ATOM      7  C   UNL d   1      -3.624  -1.091  -2.521  0.00  0.00     0.030 A 
BRANCH   4   8
ATOM      8  C   UNL d   1      -1.864   1.171  -5.728  0.00  0.00     0.417 C 
ATOM      9  F   UNL d   1      -0.840   0.535  -6.364  0.00  0.00    -0.166 F 
ATOM     10  F   UNL d   1      -2.753   1.508  -6.705  0.00  0.00    -0.166 F 
ATOM     11  F   UNL d   1      -1.347   2.345  -5.273  0.00  0.00    -0.166 F 
ENDBRANCH   4   8
BRANCH   6  12
ATOM     12  N   UNL d   1      -5.122   0.752  -2.040  0.00  0.00    -0.303 NA
ATOM     13  H   UNL d   1      -5.661   1.483  -2.492  0.00  0.00     0.124 HD
ATOM     14  H   UNL d   1      -5.710   0.094  -1.539  0.00  0.00     0.124 HD
ENDBRANCH   6  12
ENDBRANCH   1   2
BRANCH   1  15
ATOM     15  C   UNL d   1      -0.842  -2.795  -1.817  0.00  0.00    -0.051 A 
ATOM     16  C   UNL d   1      -1.126  -2.777  -0.445  0.00  0.00     0.023 A 
ATOM     17  C   UNL d   1      -0.115  -2.516   0.492  0.00  0.00     0.050 A 
ATOM     18  C   UNL d   1       1.195  -2.297   0.036  0.00  0.00     0.039 A 
ATOM     19  C   UNL d   1       1.512  -2.373  -1.321  0.00  0.00     0.007 A 
ATOM     20  C   UNL d   1       0.477  -2.568  -2.240  0.00  0.00     0.030 A 
BRANCH  17  21
ATOM     21  C   UNL d   1      -0.417  -2.437   1.966  0.00  0.00     0.417 C 
ATOM     22  F   UNL d   1      -1.723  -2.678   2.270  0.00  0.00    -0.166 F 
ATOM     23  F   UNL d   1      -0.129  -1.217   2.498  0.00  0.00    -0.166 F 
ATOM     24  F   UNL d   1       0.303  -3.338   2.691  0.00  0.00    -0.166 F 
ENDBRANCH  17  21
BRANCH  19  25
ATOM     25  N   UNL d   1       2.790  -2.017  -1.765  0.00  0.00    -0.303 NA
ATOM     26  H   UNL d   1       3.528  -2.188  -1.089  0.00  0.00     0.124 HD
ATOM     27  H   UNL d   1       3.023  -2.374  -2.686  0.00  0.00     0.124 HD
ENDBRANCH  19  25
ENDBRANCH   1  15
TORSDOF 6
