REMARK  4 active torsions:
REMARK  status: ('A' for Active; 'I' for Inactive)
REMARK    1  A    between atoms: N_2  and  C_1 
REMARK    2  A    between atoms: C_3  and  C_8 
REMARK    3  A    between atoms: O_5  and  C_4 
REMARK    4  A    between atoms: C_7  and  O_5 
ROOT
ATOM      1  C   UNL d   1      -0.663  -1.010   0.787  0.00  0.00     0.137 A 
ATOM      2  C   UNL d   1       0.645  -1.219   0.339  0.00  0.00     0.109 A 
ATOM      3  C   UNL d   1      -1.102   0.245   1.237  0.00  0.00     0.055 A 
ATOM      4  C   UNL d   1      -0.220   1.336   1.210  0.00  0.00     0.050 A 
ATOM      5  C   UNL d   1       1.494  -0.112   0.241  0.00  0.00     0.040 A 
ATOM      6  C   UNL d   1       1.072   1.146   0.691  0.00  0.00     0.019 A 
ENDROOT
BRANCH   2   7
ATOM      7  O   UNL d   1       1.033  -2.509   0.054  0.00  0.00    -0.307 OA
BRANCH   7   8
ATOM      8  C   UNL d   1       2.366  -2.854   0.139  0.00  0.00     0.088 A 
ATOM      9  C   UNL d   1       3.122  -2.707   1.322  0.00  0.00    -0.028 A 
ATOM     10  C   UNL d   1       4.477  -3.075   1.307  0.00  0.00     0.009 A 
ATOM     11  C   UNL d   1       2.572  -2.148   2.605  0.00  0.00     0.051 C 
ATOM     12  C   UNL d   1       5.053  -3.641   0.172  0.00  0.00     0.001 A 
ATOM     13  C   UNL d   1       4.282  -3.849  -0.967  0.00  0.00     0.009 A 
ATOM     14  C   UNL d   1       2.933  -3.464  -0.998  0.00  0.00    -0.028 A 
ATOM     15  C   UNL d   1       2.145  -3.752  -2.248  0.00  0.00     0.051 C 
ENDBRANCH   7   8
ENDBRANCH   2   7
BRANCH   1  16
ATOM     16  N   UNL d   1      -1.602  -2.116   0.827  0.00  0.00    -0.113 N 
ATOM     17  O   UNL d   1      -1.827  -2.712  -0.235  0.00  0.00    -0.532 OA
ATOM     18  O   UNL d   1      -2.154  -2.341   1.911  0.00  0.00    -0.532 OA
ENDBRANCH   1  16
BRANCH   4  19
ATOM     19  C   UNL d   1      -0.626   2.685   1.755  0.00  0.00     0.417 C 
ATOM     20  F   UNL d   1      -1.950   2.769   2.059  0.00  0.00    -0.166 F 
ATOM     21  F   UNL d   1       0.044   2.999   2.897  0.00  0.00    -0.166 F 
ATOM     22  F   UNL d   1      -0.376   3.697   0.880  0.00  0.00    -0.166 F 
ENDBRANCH   4  19
TORSDOF 4
