REMARK  4 active torsions:
REMARK  status: ('A' for Active; 'I' for Inactive)
REMARK    1  A    between atoms: N_3  and  S_1 
REMARK    2  A    between atoms: C_11  and  S_1 
REMARK    3  A    between atoms: N_6  and  N_3 
REMARK    4  A    between atoms: C_4  and  N_6 
ROOT
ATOM      1  N   UNL d   1       0.960   1.726  -2.009  0.00  0.00    -0.275 N 
ATOM      2  H   UNL d   1       1.645   2.229  -1.450  0.00  0.00     0.189 HD
ENDROOT
BRANCH   1   3
ATOM      3  C   UNL d   1       0.981   1.955  -3.385  0.00  0.00     0.134 A 
ATOM      4  C   UNL d   1       1.847   2.913  -3.946  0.00  0.00     0.044 A 
ATOM      5  C   UNL d   1       1.815   3.037  -5.324  0.00  0.00     0.088 A 
ATOM      6  C   UNL d   1       2.816   3.811  -3.374  0.00  0.00     0.025 A 
ATOM      7  S   UNL d   1       2.925   4.194  -5.906  0.00  0.00    -0.083 SA
ATOM      8  N   UNL d   1       1.032   2.345  -6.168  0.00  0.00    -0.346 N 
ATOM      9  C   UNL d   1       3.475   4.554  -4.329  0.00  0.00     0.053 A 
ATOM     10  C   UNL d   1       0.253   1.466  -5.531  0.00  0.00     0.182 A 
ATOM     11  HN  UNL d   1       1.032   2.476  -7.179  1.00  0.00     0.167 HD
ATOM     12  N   UNL d   1       0.192   1.224  -4.210  0.00  0.00    -0.337 N 
ATOM     13  HN  UNL d   1      -0.432   0.508  -3.838  1.00  0.00     0.168 HD
ENDBRANCH   1   3
BRANCH   1  14
ATOM     14  N   UNL d   1       0.401   0.529  -1.384  0.00  0.00    -0.221 N 
ATOM     15  H   UNL d   1      -0.077  -0.161  -1.970  0.00  0.00     0.200 HD
BRANCH  14  16
ATOM     16  S   UNL d   1       1.047   0.066   0.113  0.00  0.00     0.276 S 
ATOM     17  O   UNL d   1       0.515   0.956   1.121  0.00  0.00    -0.199 OA
ATOM     18  O   UNL d   1       2.479  -0.065  -0.071  0.00  0.00    -0.199 OA
BRANCH  16  19
ATOM     19  C   UNL d   1       0.361  -1.543   0.357  0.00  0.00     0.081 A 
ATOM     20  C   UNL d   1       1.111  -2.677   0.039  0.00  0.00     0.026 A 
ATOM     21  C   UNL d   1       0.584  -3.942   0.300  0.00  0.00     0.008 A 
ATOM     22  C   UNL d   1      -0.683  -4.077   0.884  0.00  0.00    -0.062 A 
ATOM     23  C   UNL d   1      -1.418  -2.930   1.209  0.00  0.00     0.008 A 
ATOM     24  C   UNL d   1      -1.231  -5.446   1.169  0.00  0.00     0.048 C 
ATOM     25  C   UNL d   1      -0.897  -1.662   0.951  0.00  0.00     0.026 A 
ENDBRANCH  16  19
ENDBRANCH  14  16
ENDBRANCH   1  14
TORSDOF 4
