REMARK  5 active torsions:
REMARK  status: ('A' for Active; 'I' for Inactive)
REMARK    1  A    between atoms: N_4  and  C_1 
REMARK    2  A    between atoms: N_9  and  C_1 
REMARK    3  A    between atoms: N_5  and  C_2 
REMARK    4  A    between atoms: C_3  and  N_4 
REMARK    5  A    between atoms: C_17  and  N_9 
ROOT
ATOM      1  N   UNL d   1       0.198   0.597   1.025  0.00  0.00    -0.332 N 
ATOM      2  H   UNL d   1       0.595   1.529   1.045  0.00  0.00     0.168 HD
ENDROOT
BRANCH   1   3
ATOM      3  C   UNL d   1       1.158  -0.412   1.119  0.00  0.00     0.176 C 
ATOM      4  S   UNL d   1       0.928  -2.074   1.123  0.00  0.00    -0.041 SA
BRANCH   3   5
ATOM      5  N   UNL d   1       2.411   0.178   1.344  0.00  0.00    -0.332 N 
ATOM      6  H   UNL d   1       2.415   0.803   2.146  0.00  0.00     0.168 HD
BRANCH   5   7
ATOM      7  C   UNL d   1       3.672  -0.425   1.083  0.00  0.00     0.057 A 
ATOM      8  C   UNL d   1       3.890  -1.137  -0.103  0.00  0.00     0.055 A 
ATOM      9  C   UNL d   1       5.131  -1.723  -0.348  0.00  0.00     0.036 A 
ATOM     10 CL   UNL d   1       5.383  -2.606  -1.802  0.00  0.00    -0.084 Cl
ATOM     11  C   UNL d   1       6.170  -1.593   0.572  0.00  0.00     0.026 A 
ATOM     12  C   UNL d   1       5.971  -0.859   1.742  0.00  0.00     0.028 A 
ATOM     13  C   UNL d   1       4.731  -0.265   1.991  0.00  0.00     0.060 A 
ATOM     14 CL   UNL d   1       4.520   0.623   3.459  0.00  0.00    -0.082 Cl
ENDBRANCH   5   7
ENDBRANCH   3   5
ENDBRANCH   1   3
BRANCH   1  15
ATOM     15  C   UNL d   1      -1.217   0.560   0.945  0.00  0.00     0.050 A 
ATOM     16  C   UNL d   1      -1.927   1.743   1.117  0.00  0.00     0.119 A 
ATOM     17  N   UNL d   1      -3.285   1.847   1.183  0.00  0.00    -0.350 N 
ATOM     18  C   UNL d   1      -4.022   0.723   1.055  0.00  0.00     0.103 A 
ATOM     19  HN  UNL d   1      -3.733   2.752   1.326  1.00  0.00     0.166 HD
ATOM     20  C   UNL d   1      -3.382  -0.488   0.808  0.00  0.00     0.051 A 
ATOM     21  C   UNL d   1      -1.988  -0.569   0.745  0.00  0.00     0.035 A 
BRANCH  18  22
ATOM     22  N   UNL d   1      -5.384   0.774   1.246  0.00  0.00    -0.363 N 
ATOM     23  C   UNL d   1      -6.313  -0.071   0.485  0.00  0.00     0.150 C 
ATOM     24  C   UNL d   1      -7.148   0.782  -0.482  0.00  0.00     0.187 C 
ATOM     25  O   UNL d   1      -7.814   1.857   0.198  0.00  0.00    -0.388 OA
ATOM     26  C   UNL d   1      -6.845   2.722   0.819  0.00  0.00     0.187 C 
ATOM     27  C   UNL d   1      -5.996   1.965   1.848  0.00  0.00     0.150 C 
ENDBRANCH  18  22
ENDBRANCH   1  15
TORSDOF 5
