REMARK  2 active torsions:
REMARK  status: ('A' for Active; 'I' for Inactive)
REMARK    1  A    between atoms: O_12  and  N_1 
REMARK    2  A    between atoms: C_6  and  C_7 
ROOT
ATOM      1  C   UNL d   1      -3.830   0.767   0.893  0.00  0.00     0.047 A 
ATOM      2  C   UNL d   1      -3.131  -0.434   0.783  0.00  0.00     0.036 A 
ATOM      3  C   UNL d   1      -3.123   1.965   0.968  0.00  0.00     0.036 A 
ATOM      4  C   UNL d   1      -1.040   0.759   0.822  0.00  0.00    -0.016 A 
ATOM      5  C   UNL d   1      -1.730   1.970   0.935  0.00  0.00     0.036 A 
ATOM      6  C   UNL d   1      -1.737  -0.449   0.746  0.00  0.00     0.036 A 
ATOM      7 CL   UNL d   1      -4.000  -1.916   0.692  0.00  0.00    -0.084 Cl
ATOM      8 CL   UNL d   1      -3.976   3.453   1.101  0.00  0.00    -0.084 Cl
ENDROOT
BRANCH   4   9
ATOM      9  C   UNL d   1       0.434   0.742   0.782  0.00  0.00     0.125 C 
ATOM     10  N   UNL d   1       1.124   1.835   0.859  0.00  0.00    -0.280 N 
ATOM     11  HN  UNL d   1       0.736   2.774   0.950  1.00  0.00     0.193 HD
BRANCH  10  12
ATOM     12  O   UNL d   1       2.486   1.523   0.799  0.00  0.00    -0.290 OA
ATOM     13  H   UNL d   1       2.905   2.399   0.896  0.00  0.00     0.244 HD
ENDBRANCH  10  12
ENDBRANCH   4   9
TORSDOF 2
