REMARK  6 active torsions:
REMARK  status: ('A' for Active; 'I' for Inactive)
REMARK    1  A    between atoms: N_2  and  C_1 
REMARK    2  A    between atoms: N_6  and  C_1 
REMARK    3  A    between atoms: C_10  and  N_6 
REMARK    4  A    between atoms: O_11  and  C_9 
REMARK    5  A    between atoms: C_13  and  C_10 
REMARK    6  A    between atoms: C_12  and  C_13 
ROOT
ATOM      1  C   UNL d   1       0.962  -0.127  -0.167  0.00  0.00     0.169 C 
ATOM      2  S   UNL d   1       0.028  -1.489   0.140  0.00  0.00    -0.041 SA
ENDROOT
BRANCH   1   3
ATOM      3  N   UNL d   1       0.440   1.137  -0.487  0.00  0.00    -0.358 N 
ATOM      4  C   UNL d   1      -0.970   1.491  -0.264  0.00  0.00     0.127 C 
ATOM      5  C   UNL d   1      -1.745   1.528  -1.579  0.00  0.00     0.051 C 
ATOM      6  C   UNL d   1      -1.066   2.437  -2.603  0.00  0.00     0.121 C 
ATOM      7  C   UNL d   1       0.425   2.130  -2.747  0.00  0.00     0.051 C 
ATOM      8  C   UNL d   1       1.136   2.063  -1.392  0.00  0.00     0.127 C 
BRANCH   6   9
ATOM      9  O   UNL d   1      -1.258   3.811  -2.266  0.00  0.00    -0.395 OA
ATOM     10  H   UNL d   1      -0.883   3.983  -1.387  0.00  0.00     0.210 HD
ENDBRANCH   6   9
ENDBRANCH   1   3
BRANCH   1  11
ATOM     11  N   UNL d   1       2.345  -0.140  -0.129  0.00  0.00    -0.367 N 
ATOM     12  H   UNL d   1       2.764   0.746   0.116  0.00  0.00     0.161 HD
BRANCH  11  13
ATOM     13  C   UNL d   1       3.181  -1.326   0.057  0.00  0.00     0.126 C 
BRANCH  13  14
ATOM     14  C   UNL d   1       4.664  -0.980   0.199  0.00  0.00     0.058 C 
BRANCH  14  15
ATOM     15  C   UNL d   1       5.521  -2.218   0.122  0.00  0.00    -0.057 A 
ATOM     16  C   UNL d   1       6.036  -2.639  -1.112  0.00  0.00     0.007 A 
ATOM     17  C   UNL d   1       6.783  -3.815  -1.204  0.00  0.00     0.001 A 
ATOM     18  C   UNL d   1       7.020  -4.581  -0.064  0.00  0.00     0.000 A 
ATOM     19  C   UNL d   1       6.513  -4.170   1.167  0.00  0.00     0.001 A 
ATOM     20  C   UNL d   1       5.766  -2.996   1.262  0.00  0.00     0.007 A 
ENDBRANCH  14  15
ENDBRANCH  13  14
ENDBRANCH  11  13
ENDBRANCH   1  11
TORSDOF 6
