REMARK  3 active torsions:
REMARK  status: ('A' for Active; 'I' for Inactive)
REMARK    1  A    between atoms: C_7  and  C_1 
REMARK       I    between atoms: N_10  and  C_7 
REMARK    2  A    between atoms: N_8  and  N_10 
REMARK    3  A    between atoms: C_13  and  C_12 
ROOT
ATOM      1  C   UNL d   1      -3.097  -0.801   0.015  0.00  0.00     0.287 C 
ATOM      2  N   UNL d   1      -3.542  -2.117   0.030  0.00  0.00    -0.265 N 
ATOM      3  O   UNL d   1      -1.912  -0.466   0.015  0.00  0.00    -0.264 OA
ATOM      4  H   UNL d   1      -4.545  -2.285   0.028  0.00  0.00     0.190 HD
ENDROOT
BRANCH   1   5
ATOM      5  C   UNL d   1      -4.173   0.203  -0.003  0.00  0.00     0.119 A 
ATOM      6  N   UNL d   1      -5.488  -0.103  -0.002  0.00  0.00    -0.294 N 
ATOM      7  N   UNL d   1      -6.104   1.102  -0.022  0.00  0.00    -0.301 N 
ATOM      8  HN  UNL d   1      -5.918  -1.029   0.011  1.00  0.00     0.187 HD
ATOM      9  C   UNL d   1      -7.548   1.173  -0.023  0.00  0.00     0.177 C 
ATOM     10  C   UNL d   1      -5.240   2.166  -0.037  0.00  0.00     0.026 A 
ATOM     11  C   UNL d   1      -3.982   1.609  -0.024  0.00  0.00     0.063 A 
ATOM     12  C   UNL d   1      -5.664   3.587  -0.061  0.00  0.00     0.070 C 
ENDBRANCH   1   5
BRANCH   2  13
ATOM     13  N   UNL d   1      -2.628  -3.130   0.045  0.00  0.00    -0.312 N 
ATOM     14  C   UNL d   1      -3.074  -4.343   0.058  0.00  0.00     0.088 C 
ATOM     15  HN  UNL d   1      -1.627  -2.936   0.046  1.00  0.00     0.185 HD
BRANCH  14  16
ATOM     16  C   UNL d   1      -2.085  -5.512   0.074  0.00  0.00    -0.018 C 
ATOM     17  C   UNL d   1      -1.207  -5.413   1.329  0.00  0.00     0.020 C 
ATOM     18  C   UNL d   1      -2.848  -6.841   0.091  0.00  0.00     0.020 C 
ATOM     19  C   UNL d   1      -1.207  -5.447  -1.183  0.00  0.00     0.020 C 
ENDBRANCH  14  16
ENDBRANCH   2  13
TORSDOF 3
