REMARK  5 active torsions:
REMARK  status: ('A' for Active; 'I' for Inactive)
REMARK    1  A    between atoms: C_3  and  C_1 
REMARK    2  A    between atoms: S_14  and  C_6 
REMARK    3  A    between atoms: C_17  and  S_14 
REMARK    4  A    between atoms: C_15  and  C_17 
REMARK    5  A    between atoms: C_16  and  C_15 
ROOT
ATOM      1  C   UNL d   1       0.022   1.104   0.070  0.00  0.00     0.151 A 
ATOM      2  N   UNL d   1       0.869   0.021   0.097  0.00  0.00    -0.314 N 
ATOM      3  N   UNL d   1      -1.222   0.670   0.179  0.00  0.00    -0.281 N 
ATOM      4  HN  UNL d   1      -2.058   1.255   0.192  1.00  0.00     0.188 HD
ATOM      5  C   UNL d   1       0.057  -1.076   0.233  0.00  0.00     0.163 A 
ATOM      6  N   UNL d   1      -1.199  -0.702   0.270  0.00  0.00    -0.278 N 
ATOM      7  HN  UNL d   1      -2.010  -1.315   0.352  1.00  0.00     0.189 HD
ATOM      8  C   UNL d   1       2.308   0.002   0.044  0.00  0.00     0.160 C 
ENDROOT
BRANCH   5   9
ATOM      9  S   UNL d   1       0.653  -2.695   0.362  0.00  0.00    -0.085 SA
BRANCH   9  10
ATOM     10  C   UNL d   1      -0.897  -3.623   0.555  0.00  0.00     0.166 C 
BRANCH  10  11
ATOM     11  C   UNL d   1      -0.648  -5.094   0.865  0.00  0.00     0.169 C 
ATOM     12  O   UNL d   1       0.467  -5.575   1.065  0.00  0.00    -0.291 OA
BRANCH  11  13
ATOM     13  C   UNL d   1      -1.835  -6.009   0.938  0.00  0.00     0.011 A 
ATOM     14  C   UNL d   1      -3.151  -5.543   0.813  0.00  0.00     0.018 A 
ATOM     15  C   UNL d   1      -4.223  -6.441   0.870  0.00  0.00     0.043 A 
ATOM     16  C   UNL d   1      -3.981  -7.798   1.055  0.00  0.00     0.116 A 
ATOM     17  C   UNL d   1      -2.685  -8.277   1.190  0.00  0.00     0.043 A 
ATOM     18  F   UNL d   1      -5.010  -8.652   1.102  0.00  0.00    -0.206 F 
ATOM     19  C   UNL d   1      -1.612  -7.385   1.134  0.00  0.00     0.018 A 
ENDBRANCH  11  13
ENDBRANCH  10  11
ENDBRANCH   9  10
ENDBRANCH   5   9
BRANCH   1  20
ATOM     20  C   UNL d   1       0.382   2.552  -0.048  0.00  0.00     0.085 A 
ATOM     21  N   UNL d   1       1.677   2.985  -0.270  0.00  0.00    -0.351 N 
ATOM     22  C   UNL d   1       1.713   4.299  -0.329  0.00  0.00     0.047 A 
ATOM     23  HN  UNL d   1       2.488   2.374  -0.372  1.00  0.00     0.166 HD
ATOM     24  C   UNL d   1       2.950   5.092  -0.569  0.00  0.00     0.076 C 
ATOM     25  S   UNL d   1       0.205   5.089  -0.102  0.00  0.00    -0.087 SA
ATOM     26  C   UNL d   1      -0.556   3.560   0.058  0.00  0.00     0.084 A 
ENDBRANCH   1  20
TORSDOF 5
