REMARK  4 active torsions:
REMARK  status: ('A' for Active; 'I' for Inactive)
REMARK    1  A    between atoms: N_8  and  C_2 
REMARK    2  A    between atoms: C_14  and  N_8 
REMARK    3  A    between atoms: O_15  and  C_9 
REMARK    4  A    between atoms: O_16  and  C_10 
ROOT
ATOM      1  C   UNL d   1       0.161   0.687   0.221  0.00  0.00     0.038 A 
ATOM      2  C   UNL d   1      -1.101   1.324   0.235  0.00  0.00     0.119 A 
ATOM      3  C   UNL d   1       0.161  -0.688   0.003  0.00  0.00     0.050 A 
ATOM      4  C   UNL d   1       1.392   1.358   0.386  0.00  0.00     0.057 A 
ATOM      5  N   UNL d   1      -2.238   0.621   0.106  0.00  0.00    -0.338 N 
ATOM      6  HN  UNL d   1      -3.152   1.073   0.134  1.00  0.00     0.168 HD
ATOM      7  C   UNL d   1       1.397  -1.331  -0.122  0.00  0.00     0.070 A 
ATOM      8  C   UNL d   1       2.630   0.719   0.243  0.00  0.00     0.102 A 
ATOM      9  C   UNL d   1       2.629  -0.648  -0.033  0.00  0.00     0.103 A 
ATOM     10  N   UNL d   1      -0.972  -1.386  -0.128  0.00  0.00    -0.351 N 
ATOM     11  HN  UNL d   1      -0.964  -2.396  -0.272  1.00  0.00     0.166 HD
ATOM     12  C   UNL d   1      -2.117  -0.696  -0.061  0.00  0.00     0.182 A 
ENDROOT
BRANCH   2  13
ATOM     13  N   UNL d   1      -1.150   2.741   0.337  0.00  0.00    -0.342 N 
ATOM     14  H   UNL d   1      -0.514   3.137  -0.353  0.00  0.00     0.167 HD
BRANCH  13  15
ATOM     15  C   UNL d   1      -2.273   3.585   0.510  0.00  0.00     0.033 A 
ATOM     16  C   UNL d   1      -3.440   3.171   1.157  0.00  0.00     0.029 A 
ATOM     17  C   UNL d   1      -4.511   4.050   1.355  0.00  0.00     0.002 A 
ATOM     18  C   UNL d   1      -4.414   5.373   0.939  0.00  0.00     0.000 A 
ATOM     19  C   UNL d   1      -3.242   5.822   0.339  0.00  0.00     0.002 A 
ATOM     20  C   UNL d   1      -2.176   4.938   0.139  0.00  0.00     0.029 A 
ENDBRANCH  13  15
ENDBRANCH   2  13
BRANCH   8  21
ATOM     21  O   UNL d   1       3.639   1.623   0.361  0.00  0.00    -0.353 OA
ATOM     22  C   UNL d   1       4.985   1.269   0.134  0.00  0.00     0.210 C 
ENDBRANCH   8  21
BRANCH   9  23
ATOM     23  O   UNL d   1       3.720  -1.369  -0.442  0.00  0.00    -0.353 OA
ATOM     24  C   UNL d   1       4.630  -1.738   0.589  0.00  0.00     0.210 C 
ENDBRANCH   9  23
TORSDOF 4
