REMARK  2 active torsions:
REMARK  status: ('A' for Active; 'I' for Inactive)
REMARK    1  A    between atoms: N_8  and  C_5 
REMARK    2  A    between atoms: O_21  and  C_16 
ROOT
ATOM      1  C   UNL d   1       0.297   0.068   0.019  0.00  0.00     0.052 C 
ATOM      2  C   UNL d   1      -0.072   1.412   0.192  0.00  0.00    -0.003 C 
ATOM      3  N   UNL d   1      -0.592  -0.931  -0.127  0.00  0.00    -0.354 N 
ATOM      4  HN  UNL d   1      -0.279  -1.890  -0.276  1.00  0.00     0.166 HD
ATOM      5  C   UNL d   1      -1.437   1.725   0.381  0.00  0.00     0.051 C 
ATOM      6  C   UNL d   1       1.721  -0.330  -0.006  0.00  0.00    -0.002 A 
ATOM      7  C   UNL d   1      -2.392   0.654   0.211  0.00  0.00     0.018 A 
ATOM      8  C   UNL d   1      -1.893  -0.639  -0.072  0.00  0.00     0.045 A 
ATOM      9  C   UNL d   1       2.701   0.629  -0.316  0.00  0.00    -0.043 A 
ATOM     10  C   UNL d   1       1.045   2.437   0.183  0.00  0.00     0.048 C 
ATOM     11  C   UNL d   1       2.150  -1.630   0.313  0.00  0.00     0.017 A 
ATOM     12  C   UNL d   1       2.243   2.017  -0.681  0.00  0.00     0.044 C 
ATOM     13  C   UNL d   1       4.060   0.285  -0.327  0.00  0.00     0.044 A 
ATOM     14  C   UNL d   1       4.471  -1.007   0.007  0.00  0.00     0.068 A 
ATOM     15  C   UNL d   1       3.510  -1.967   0.325  0.00  0.00     0.037 A 
ATOM     16  C   UNL d   1      -3.803   0.766   0.340  0.00  0.00     0.016 A 
ATOM     17  C   UNL d   1      -2.767  -1.694  -0.288  0.00  0.00     0.030 A 
ATOM     18  C   UNL d   1      -4.671  -0.303   0.103  0.00  0.00     0.001 A 
ATOM     19  C   UNL d   1      -4.149  -1.540  -0.224  0.00  0.00     0.002 A 
ENDROOT
BRANCH   5  20
ATOM     20  N   UNL d   1      -1.854   3.000   0.769  0.00  0.00    -0.376 N 
ATOM     21  C   UNL d   1      -1.117   3.804   1.762  0.00  0.00     0.149 C 
ATOM     22  C   UNL d   1      -2.111   4.519   2.692  0.00  0.00     0.187 C 
ATOM     23  O   UNL d   1      -3.071   5.297   1.956  0.00  0.00    -0.388 OA
ATOM     24  C   UNL d   1      -3.799   4.456   1.042  0.00  0.00     0.187 C 
ATOM     25  C   UNL d   1      -2.849   3.790   0.025  0.00  0.00     0.149 C 
ENDBRANCH   5  20
BRANCH  14  26
ATOM     26  O   UNL d   1       5.825  -1.199  -0.017  0.00  0.00    -0.356 OA
ATOM     27  C   UNL d   1       6.300  -2.474   0.399  0.00  0.00     0.210 C 
ENDBRANCH  14  26
TORSDOF 2
