REMARK  3 active torsions:
REMARK  status: ('A' for Active; 'I' for Inactive)
REMARK       I    between atoms: N_3  and  C_1 
REMARK    1  A    between atoms: C_5  and  C_1 
REMARK    2  A    between atoms: C_10  and  N_3 
REMARK    3  A    between atoms: C_12  and  C_10 
ROOT
ATOM      1  N   UNL d   1      -3.364  -7.825   0.401  0.00  0.00    -0.191 NA
ATOM      2  C   UNL d   1      -2.658  -6.906   0.360  0.00  0.00     0.099 C 
ATOM      3  C   UNL d   1      -1.782  -5.770   0.306  0.00  0.00     0.044 A 
ATOM      4  C   UNL d   1      -0.028  -3.564   0.216  0.00  0.00    -0.040 A 
ATOM      5  C   UNL d   1      -0.919  -5.599  -0.780  0.00  0.00     0.023 A 
ATOM      6  C   UNL d   1      -1.776  -4.833   1.344  0.00  0.00     0.023 A 
ATOM      7  C   UNL d   1      -0.050  -4.503  -0.826  0.00  0.00     0.010 A 
ATOM      8  C   UNL d   1      -0.904  -3.739   1.299  0.00  0.00     0.010 A 
ENDROOT
BRANCH   4   9
ATOM      9  C   UNL d   1       0.962  -2.425   0.203  0.00  0.00     0.161 C 
BRANCH   9  10
ATOM     10  N   UNL d   1       0.304  -1.138   0.201  0.00  0.00    -0.353 N 
ATOM     11  C   UNL d   1       0.955  -0.019   0.678  0.00  0.00     0.251 C 
ATOM     12  O   UNL d   1       2.079  -0.047   1.165  0.00  0.00    -0.268 OA
ATOM     13  H   UNL d   1      -0.467  -1.015  -0.441  0.00  0.00     0.163 HD
BRANCH  11  14
ATOM     14  C   UNL d   1       0.227   1.276   0.556  0.00  0.00     0.032 A 
ATOM     15  C   UNL d   1      -1.173   1.331   0.544  0.00  0.00     0.018 A 
ATOM     16  C   UNL d   1      -1.824   2.565   0.452  0.00  0.00     0.025 A 
ATOM     17  C   UNL d   1      -1.079   3.742   0.380  0.00  0.00     0.034 A 
ATOM     18  C   UNL d   1       0.314   3.698   0.406  0.00  0.00     0.025 A 
ATOM     19 CL   UNL d   1      -1.887   5.256   0.272  0.00  0.00    -0.084 Cl
ATOM     20  C   UNL d   1       0.968   2.465   0.500  0.00  0.00     0.018 A 
ENDBRANCH  11  14
ENDBRANCH   9  10
ENDBRANCH   4   9
TORSDOF 3
