REMARK  4 active torsions:
REMARK  status: ('A' for Active; 'I' for Inactive)
REMARK    1  A    between atoms: C_7  and  N_1 
REMARK    2  A    between atoms: C_9  and  C_7 
REMARK    3  A    between atoms: C_8  and  C_14 
REMARK       I    between atoms: N_15  and  C_9 
REMARK    4  A    between atoms: N_10  and  N_15 
ROOT
ATOM      1  C   UNL d   1       0.992  -3.153  -0.139  0.00  0.00     0.255 C 
ATOM      2  N   UNL d   1       2.130  -2.452   0.206  0.00  0.00    -0.269 N 
ATOM      3  O   UNL d   1       0.989  -4.346  -0.467  0.00  0.00    -0.270 OA
ATOM      4  H   UNL d   1       2.009  -1.530   0.635  0.00  0.00     0.190 HD
ENDROOT
BRANCH   2   5
ATOM      5  N   UNL d   1       3.309  -3.119   0.356  0.00  0.00    -0.308 N 
ATOM      6  C   UNL d   1       4.279  -2.435   0.865  0.00  0.00     0.123 C 
ATOM      7  HN  UNL d   1       3.419  -4.096   0.083  1.00  0.00     0.186 HD
BRANCH   6   8
ATOM      8  C   UNL d   1       5.571  -3.071   1.191  0.00  0.00     0.041 A 
ATOM      9  C   UNL d   1       6.001  -4.192   0.477  0.00  0.00     0.129 A 
ATOM     10  F   UNL d   1       5.334  -4.638  -0.597  0.00  0.00    -0.205 F 
ATOM     11  C   UNL d   1       7.163  -4.872   0.840  0.00  0.00     0.043 A 
ATOM     12  C   UNL d   1       7.915  -4.433   1.926  0.00  0.00     0.005 A 
ATOM     13  C   UNL d   1       7.512  -3.296   2.628  0.00  0.00     0.025 A 
ATOM     14  C   UNL d   1       6.347  -2.610   2.260  0.00  0.00     0.048 A 
ATOM     15 CL   UNL d   1       5.914  -1.228   3.205  0.00  0.00    -0.083 Cl
ENDBRANCH   6   8
ENDBRANCH   2   5
BRANCH   1  16
ATOM     16  C   UNL d   1      -0.312  -2.391  -0.174  0.00  0.00     0.253 C 
BRANCH  16  17
ATOM     17  N   UNL d   1      -0.399  -1.067   0.439  0.00  0.00    -0.286 N 
ATOM     18  N   UNL d   1       0.629  -0.548   1.155  0.00  0.00    -0.301 N 
ATOM     19  C   UNL d   1       0.149   0.600   1.652  0.00  0.00     0.041 A 
ATOM     20  HN  UNL d   1       1.560  -0.944   1.286  1.00  0.00     0.187 HD
ATOM     21  C   UNL d   1       0.997   1.451   2.523  0.00  0.00     0.071 C 
ATOM     22  C   UNL d   1      -1.171   0.820   1.223  0.00  0.00     0.058 A 
ATOM     23  C   UNL d   1      -1.504  -0.240   0.415  0.00  0.00     0.044 A 
ATOM     24 BR   UNL d   1      -2.239   2.289   1.682  0.00  0.00    -0.047 Br
ATOM     25  C   UNL d   1      -2.756  -0.521  -0.336  0.00  0.00     0.071 C 
ENDBRANCH  16  17
ENDBRANCH   1  16
TORSDOF 4
