REMARK  3 active torsions:
REMARK  status: ('A' for Active; 'I' for Inactive)
REMARK    1  A    between atoms: C_5  and  C_3 
REMARK    2  A    between atoms: C_12  and  C_4 
REMARK    3  A    between atoms: S_16  and  C_9 
ROOT
ATOM      1  N   UNL d   1      -1.304  -0.024  -0.014  0.00  0.00    -0.354 N 
ATOM      2  HN  UNL d   1      -2.323  -0.057  -0.022  1.00  0.00     0.166 HD
ATOM      3  C   UNL d   1      -0.645   1.161  -0.054  0.00  0.00     0.051 A 
ATOM      4  C   UNL d   1      -0.571  -1.166   0.038  0.00  0.00     0.044 A 
ATOM      5  C   UNL d   1       0.743   1.248  -0.012  0.00  0.00     0.049 A 
ATOM      6  C   UNL d   1       0.823  -1.139   0.031  0.00  0.00     0.049 A 
ATOM      7  C   UNL d   1       1.496   0.082   0.017  0.00  0.00     0.004 A 
ENDROOT
BRANCH   4   8
ATOM      8  C   UNL d   1      -1.334  -2.431   0.097  0.00  0.00    -0.007 A 
ATOM      9  C   UNL d   1      -2.592  -2.548  -0.507  0.00  0.00     0.030 A 
ATOM     10  C   UNL d   1      -3.271  -3.756  -0.442  0.00  0.00     0.088 A 
ATOM     11  N   UNL d   1      -2.795  -4.854   0.182  0.00  0.00    -0.375 N 
ATOM     12  C   UNL d   1      -1.591  -4.733   0.773  0.00  0.00     0.088 A 
ATOM     13  HN  UNL d   1      -3.319  -5.729   0.206  1.00  0.00     0.164 HD
ATOM     14  C   UNL d   1      -0.840  -3.567   0.759  0.00  0.00     0.030 A 
ENDBRANCH   4   8
BRANCH   3  15
ATOM     15  C   UNL d   1      -1.512   2.348  -0.154  0.00  0.00     0.031 A 
ATOM     16  S   UNL d   1      -0.951   3.792  -0.910  0.00  0.00    -0.100 SA
ATOM     17  C   UNL d   1      -2.431   4.600  -0.658  0.00  0.00     0.050 A 
ATOM     18  C   UNL d   1      -3.351   3.800  -0.022  0.00  0.00     0.008 A 
ATOM     19  C   UNL d   1      -2.824   2.505   0.264  0.00  0.00     0.021 A 
ENDBRANCH   3  15
BRANCH   7  20
ATOM     20  S   UNL d   1       3.285   0.024   0.032  0.00  0.00    -0.134 SA
ATOM     21  C   UNL d   1       3.764   1.772  -0.009  0.00  0.00     0.095 C 
ENDBRANCH   7  20
TORSDOF 3
