REMARK  1 active torsions:
REMARK  status: ('A' for Active; 'I' for Inactive)
REMARK    1  A    between atoms: C_3  and  N_1 
ROOT
ATOM      1  C   UNL d   1       0.232  -2.466  -0.017  0.00  0.00     0.082 A 
ATOM      2  C   UNL d   1       0.853  -3.232   0.984  0.00  0.00     0.146 A 
ATOM      3  C   UNL d   1       0.762  -4.618   0.995  0.00  0.00     0.086 A 
ATOM      4  C   UNL d   1      -0.478  -3.127  -1.030  0.00  0.00     0.036 A 
ATOM      5  C   UNL d   1       0.056  -5.252  -0.018  0.00  0.00     0.119 A 
ATOM      6  F   UNL d   1       1.489  -2.623   1.996  0.00  0.00    -0.204 F 
ATOM      7  C   UNL d   1      -0.560  -4.522  -1.030  0.00  0.00     0.045 A 
ATOM      8  F   UNL d   1      -0.038  -6.588  -0.021  0.00  0.00    -0.206 F 
ENDROOT
BRANCH   1   9
ATOM      9  N   UNL d   1       0.351  -1.048  -0.011  0.00  0.00    -0.263 N 
ATOM     10  C   UNL d   1      -0.726  -0.182  -0.016  0.00  0.00     0.148 A 
ATOM     11  S   UNL d   1      -0.165   1.482  -0.073  0.00  0.00    -0.090 SA
ATOM     12  S   UNL d   1      -2.360  -0.524   0.101  0.00  0.00    -0.052 SA
ATOM     13  C   UNL d   1       1.569   1.022   0.026  0.00  0.00     0.185 A 
ATOM     14  C   UNL d   1       1.620  -0.480  -0.008  0.00  0.00     0.239 A 
ATOM     15  O   UNL d   1       2.687  -1.085  -0.082  0.00  0.00    -0.272 OA
ENDBRANCH   1   9
TORSDOF 1
