REMARK  1 active torsions:
REMARK  status: ('A' for Active; 'I' for Inactive)
REMARK    1  A    between atoms: N_3  and  C_1 
REMARK       I    between atoms: C_2  and  N_3 
REMARK       I    between atoms: N_10  and  C_2 
ROOT
ATOM      1  C   UNL d   1       1.321  -1.164  -0.052  0.00  0.00     0.042 A 
ATOM      2  C   UNL d   1      -0.032  -1.537  -0.041  0.00  0.00     0.037 A 
ATOM      3  C   UNL d   1       1.639   0.207  -0.062  0.00  0.00    -0.035 A 
ATOM      4  C   UNL d   1       0.592   1.153  -0.031  0.00  0.00     0.016 A 
ATOM      5  C   UNL d   1      -1.072  -0.592  -0.020  0.00  0.00    -0.054 A 
ATOM      6  C   UNL d   1      -0.756   0.774  -0.013  0.00  0.00    -0.056 A 
ATOM      7  C   UNL d   1       3.036   0.768  -0.069  0.00  0.00     0.050 C 
ATOM      8  C   UNL d   1      -2.496  -1.075   0.001  0.00  0.00     0.049 C 
ATOM      9  C   UNL d   1      -1.828   1.828   0.008  0.00  0.00     0.049 C 
ENDROOT
BRANCH   1  10
ATOM     10  N   UNL d   1       2.350  -2.136  -0.062  0.00  0.00    -0.313 N 
ATOM     11  C   UNL d   1       2.227  -3.500   0.001  0.00  0.00     0.296 C 
ATOM     12  O   UNL d   1       1.222  -4.182   0.132  0.00  0.00    -0.254 OA
ATOM     13  N   UNL d   1       3.441  -4.122  -0.093  0.00  0.00    -0.254 NA
ATOM     14  H   UNL d   1       4.092  -3.750  -0.766  0.00  0.00     0.128 HD
ATOM     15  H   UNL d   1       3.340  -5.130  -0.135  0.00  0.00     0.128 HD
ATOM     16  H   UNL d   1       3.298  -1.808   0.003  0.00  0.00     0.170 HD
ENDBRANCH   1  10
TORSDOF 1
