REMARK  6 active torsions:
REMARK  status: ('A' for Active; 'I' for Inactive)
REMARK    1  A    between atoms: C_5  and  N_1 
REMARK    2  A    between atoms: S_7  and  C_4 
REMARK    3  A    between atoms: C_10  and  S_7 
REMARK    4  A    between atoms: O_19  and  C_13 
REMARK    5  A    between atoms: O_18  and  C_14 
REMARK    6  A    between atoms: N_17  and  C_16 
ROOT
ATOM      1  N   UNL d   1       0.076   0.849  -0.011  0.00  0.00    -0.251 N 
ATOM      2  C   UNL d   1      -1.054   0.096   0.208  0.00  0.00     0.232 C 
ATOM      3  C   UNL d   1       1.186   0.046  -0.172  0.00  0.00     0.245 C 
ATOM      4  C   UNL d   1       0.752  -1.404  -0.230  0.00  0.00     0.154 C 
ATOM      5  C   UNL d   1      -0.710  -1.363   0.156  0.00  0.00     0.129 C 
ATOM      6  O   UNL d   1      -2.198   0.474   0.429  0.00  0.00    -0.273 OA
ATOM      7  O   UNL d   1       2.363   0.385  -0.210  0.00  0.00    -0.271 OA
ENDROOT
BRANCH   1   8
ATOM      8  C   UNL d   1       0.115   2.279  -0.014  0.00  0.00     0.050 A 
ATOM      9  C   UNL d   1      -0.857   3.039   0.660  0.00  0.00     0.067 A 
ATOM     10  C   UNL d   1      -0.817   4.437   0.659  0.00  0.00     0.073 A 
ATOM     11  C   UNL d   1       0.180   5.102  -0.059  0.00  0.00     0.073 A 
ATOM     12  C   UNL d   1       1.149   4.378  -0.745  0.00  0.00     0.073 A 
ATOM     13  C   UNL d   1       1.119   2.978  -0.706  0.00  0.00     0.067 A 
BRANCH  10  14
ATOM     14  O   UNL d   1      -1.685   5.266   1.319  0.00  0.00    -0.356 OA
ATOM     15  C   UNL d   1      -2.665   4.648   2.145  0.00  0.00     0.210 C 
ENDBRANCH  10  14
BRANCH  12  16
ATOM     16  O   UNL d   1       2.170   4.913  -1.486  0.00  0.00    -0.356 OA
ATOM     17  C   UNL d   1       2.223   6.330  -1.583  0.00  0.00     0.210 C 
ENDBRANCH  12  16
ENDBRANCH   1   8
BRANCH   4  18
ATOM     18  S   UNL d   1       1.062  -2.017  -1.929  0.00  0.00    -0.113 SA
BRANCH  18  19
ATOM     19  C   UNL d   1       0.635  -3.756  -1.772  0.00  0.00     0.022 A 
ATOM     20  C   UNL d   1      -0.358  -4.305  -2.613  0.00  0.00     0.022 A 
ATOM     21  C   UNL d   1      -0.680  -5.662  -2.492  0.00  0.00     0.024 A 
ATOM     22  C   UNL d   1       0.043  -6.492  -1.636  0.00  0.00     0.002 A 
ATOM     23  C   UNL d   1       1.066  -5.962  -0.853  0.00  0.00     0.001 A 
ATOM     24  C   UNL d   1       1.358  -4.596  -0.915  0.00  0.00     0.020 A 
BRANCH  20  25
ATOM     25  N   UNL d   1      -1.175  -3.478  -3.412  0.00  0.00    -0.302 NA
ATOM     26  H   UNL d   1      -0.682  -2.625  -3.675  0.00  0.00     0.124 HD
ATOM     27  H   UNL d   1      -1.565  -3.956  -4.218  0.00  0.00     0.124 HD
ENDBRANCH  20  25
ENDBRANCH  18  19
ENDBRANCH   4  18
TORSDOF 6
