REMARK  7 active torsions:
REMARK  status: ('A' for Active; 'I' for Inactive)
REMARK    1  A    between atoms: N_8  and  C_2 
REMARK    2  A    between atoms: C_7  and  N_8 
REMARK    3  A    between atoms: N_15  and  C_7 
REMARK    4  A    between atoms: N_10  and  N_15 
REMARK    5  A    between atoms: O_24  and  C_12 
REMARK    6  A    between atoms: O_25  and  C_16 
REMARK    7  A    between atoms: C_21  and  C_20 
ROOT
ATOM      1  N   UNL d   1       5.922   3.509  -2.225  0.00  0.00    -0.277 N 
ATOM      2  H   UNL d   1       6.686   4.176  -2.248  0.00  0.00     0.189 HD
ENDROOT
BRANCH   1   3
ATOM      3  N   UNL d   1       5.771   2.562  -3.207  0.00  0.00    -0.309 N 
ATOM      4  C   UNL d   1       6.661   2.542  -4.147  0.00  0.00     0.118 C 
ATOM      5  HN  UNL d   1       4.993   1.903  -3.197  1.00  0.00     0.186 HD
BRANCH   4   6
ATOM      6  C   UNL d   1       6.588   1.532  -5.232  0.00  0.00    -0.017 A 
ATOM      7  C   UNL d   1       7.627   1.443  -6.168  0.00  0.00     0.052 A 
ATOM      8  C   UNL d   1       7.572   0.476  -7.178  0.00  0.00     0.102 A 
ATOM      9  C   UNL d   1       6.463  -0.384  -7.242  0.00  0.00     0.099 A 
ATOM     10  C   UNL d   1       5.424  -0.293  -6.316  0.00  0.00     0.040 A 
ATOM     11  C   UNL d   1       5.489   0.667  -5.308  0.00  0.00     0.016 A 
BRANCH   8  12
ATOM     12  O   UNL d   1       8.524   0.282  -8.144  0.00  0.00    -0.353 OA
ATOM     13  C   UNL d   1       9.711   1.056  -8.077  0.00  0.00     0.210 C 
ENDBRANCH   8  12
BRANCH   9  14
ATOM     14  O   UNL d   1       6.405  -1.328  -8.232  0.00  0.00    -0.358 OA
ATOM     15  H   UNL d   1       5.587  -1.841  -8.142  0.00  0.00     0.217 HD
ENDBRANCH   9  14
ENDBRANCH   4   6
ENDBRANCH   1   3
BRANCH   1  16
ATOM     16  C   UNL d   1       5.054   3.502  -1.137  0.00  0.00     0.186 C 
ATOM     17  S   UNL d   1       5.235   4.563   0.126  0.00  0.00    -0.040 SA
BRANCH  16  18
ATOM     18  N   UNL d   1       4.091   2.547  -1.283  0.00  0.00    -0.361 N 
ATOM     19  H   UNL d   1       4.282   2.033  -2.139  0.00  0.00     0.162 HD
BRANCH  18  20
ATOM     20  C   UNL d   1       3.066   2.018  -0.385  0.00  0.00     0.089 C 
ATOM     21  C   UNL d   1       3.536   0.692   0.269  0.00  0.00     0.017 C 
ATOM     22  C   UNL d   1       2.460   0.192   1.272  0.00  0.00     0.018 A 
ATOM     23  C   UNL d   1       3.365  -0.286  -0.904  0.00  0.00     0.012 C 
ATOM     24  C   UNL d   1       1.319  -0.307   0.345  0.00  0.00     0.001 A 
ATOM     25  C   UNL d   1       2.847  -1.036   2.037  0.00  0.00    -0.025 A 
ATOM     26  C   UNL d   1       1.156  -1.817   0.595  0.00  0.00     0.032 A 
ATOM     27  C   UNL d   1       1.872   0.018  -1.059  0.00  0.00    -0.007 C 
ATOM     28  C   UNL d   1       2.139  -2.114   1.675  0.00  0.00    -0.030 A 
ATOM     29  C   UNL d   1       1.868   1.549  -1.243  0.00  0.00     0.030 C 
ENDBRANCH  18  20
ENDBRANCH  16  18
ENDBRANCH   1  16
TORSDOF 7
