REMARK  4 active torsions:
REMARK  status: ('A' for Active; 'I' for Inactive)
REMARK    1  A    between atoms: C_2  and  S_1 
REMARK    2  A    between atoms: N_9  and  S_1 
REMARK    3  A    between atoms: C_6  and  C_3 
REMARK       I    between atoms: N_8  and  C_6 
REMARK    4  A    between atoms: C_13  and  N_8 
ROOT
ATOM      1  C   UNL d   1       0.490  -1.583  -0.692  0.00  0.00     0.186 A 
ATOM      2  C   UNL d   1      -0.554  -3.139  -1.994  0.00  0.00     0.065 A 
ATOM      3  C   UNL d   1      -0.530  -1.762  -1.620  0.00  0.00     0.070 A 
ATOM      4  O   UNL d   1       1.038  -2.816  -0.427  0.00  0.00    -0.301 OA
ATOM      5  C   UNL d   1       0.413  -3.735  -1.201  0.00  0.00     0.066 A 
ATOM      6  C   UNL d   1       0.886  -5.131  -1.051  0.00  0.00     0.078 C 
ENDROOT
BRANCH   2   7
ATOM      7  C   UNL d   1      -1.367  -3.874  -2.961  0.00  0.00     0.258 C 
ATOM      8  N   UNL d   1      -2.282  -3.109  -3.662  0.00  0.00    -0.323 N 
ATOM      9  H   UNL d   1      -2.238  -2.107  -3.544  0.00  0.00     0.169 HD
ATOM     10  O   UNL d   1      -1.200  -5.081  -3.111  0.00  0.00    -0.267 OA
BRANCH   8  11
ATOM     11  C   UNL d   1      -3.288  -3.590  -4.529  0.00  0.00     0.035 A 
ATOM     12  C   UNL d   1      -3.566  -4.951  -4.715  0.00  0.00     0.032 A 
ATOM     13  C   UNL d   1      -4.621  -5.360  -5.535  0.00  0.00     0.044 A 
ATOM     14  C   UNL d   1      -5.396  -4.409  -6.177  0.00  0.00     0.116 A 
ATOM     15  C   UNL d   1      -5.129  -3.055  -6.026  0.00  0.00     0.044 A 
ATOM     16  F   UNL d   1      -6.419  -4.802  -6.947  0.00  0.00    -0.206 F 
ATOM     17  C   UNL d   1      -4.076  -2.644  -5.202  0.00  0.00     0.032 A 
ENDBRANCH   8  11
ENDBRANCH   2   7
BRANCH   1  18
ATOM     18  S   UNL d   1       1.139  -0.093   0.076  0.00  0.00     0.265 S 
ATOM     19  O   UNL d   1       0.161   0.250   1.087  0.00  0.00    -0.204 OA
ATOM     20  O   UNL d   1       1.407   0.780  -1.047  0.00  0.00    -0.204 OA
BRANCH  18  21
ATOM     21  N   UNL d   1       2.616  -0.483   0.832  0.00  0.00    -0.213 NA
ATOM     22  C   UNL d   1       2.511  -1.296   2.057  0.00  0.00     0.129 C 
ATOM     23  C   UNL d   1       3.692  -0.935  -0.073  0.00  0.00     0.129 C 
ENDBRANCH  18  21
ENDBRANCH   1  18
TORSDOF 4
