REMARK  9 active torsions:
REMARK  status: ('A' for Active; 'I' for Inactive)
REMARK    1  A    between atoms: N_5  and  S_1 
REMARK    2  A    between atoms: C_13  and  S_1 
REMARK    3  A    between atoms: C_8  and  C_2 
REMARK    4  A    between atoms: C_3  and  O_9 
REMARK    5  A    between atoms: N_4  and  C_16 
REMARK    6  A    between atoms: C_6  and  N_5 
REMARK    7  A    between atoms: C_7  and  C_12 
REMARK    8  A    between atoms: O_32  and  C_8 
REMARK    9  A    between atoms: O_9  and  C_11 
ROOT
ATOM      1  C   UNL d   1       0.705  -1.848   1.893  0.00  0.00     0.057 A 
ATOM      2  C   UNL d   1       1.932  -2.498   1.683  0.00  0.00     0.098 A 
ATOM      3  C   UNL d   1       0.020  -3.633   3.404  0.00  0.00     0.049 A 
ATOM      4  C   UNL d   1      -0.261  -2.437   2.721  0.00  0.00     0.043 A 
ATOM      5  C   UNL d   1       2.172  -3.737   2.290  0.00  0.00     0.040 A 
ATOM      6  C   UNL d   1       1.241  -4.280   3.171  0.00  0.00     0.019 A 
ENDROOT
BRANCH   1   7
ATOM      7  N   UNL d   1       0.440  -0.608   1.212  0.00  0.00    -0.179 NA
ATOM      8  H   UNL d   1      -0.346  -0.747   0.570  0.00  0.00     0.146 HD
BRANCH   7   9
ATOM      9  S   UNL d   1       0.010   0.766   2.123  0.00  0.00     0.245 S 
ATOM     10  O   UNL d   1      -1.438   0.739   2.176  0.00  0.00    -0.206 OA
ATOM     11  O   UNL d   1       0.716   1.903   1.579  0.00  0.00    -0.206 OA
BRANCH   9  12
ATOM     12  C   UNL d   1       0.607   0.501   3.778  0.00  0.00     0.075 A 
ATOM     13  C   UNL d   1       1.978   0.331   3.994  0.00  0.00     0.027 A 
ATOM     14  C   UNL d   1       2.443   0.059   5.283  0.00  0.00     0.037 A 
ATOM     15  C   UNL d   1       1.534  -0.012   6.349  0.00  0.00     0.102 A 
ATOM     16  C   UNL d   1       0.164   0.198   6.138  0.00  0.00     0.037 A 
ATOM     17  C   UNL d   1      -0.299   0.456   4.846  0.00  0.00     0.027 A 
BRANCH  15  18
ATOM     18  N   UNL d   1       2.023  -0.318   7.700  0.00  0.00    -0.116 N 
ATOM     19  O   UNL d   1       1.204  -0.282   8.631  0.00  0.00    -0.532 OA
ATOM     20  O   UNL d   1       3.220  -0.606   7.826  0.00  0.00    -0.532 OA
ENDBRANCH  15  18
ENDBRANCH   9  12
ENDBRANCH   7   9
ENDBRANCH   1   7
BRANCH   2  21
ATOM     21  O   UNL d   1       2.881  -1.924   0.855  0.00  0.00    -0.307 OA
BRANCH  21  22
ATOM     22  C   UNL d   1       4.206  -2.003   1.165  0.00  0.00     0.099 A 
ATOM     23  C   UNL d   1       5.196  -2.090   0.199  0.00  0.00     0.114 A 
ATOM     24  S   UNL d   1       6.754  -2.222   0.933  0.00  0.00    -0.093 SA
ATOM     25  C   UNL d   1       6.111  -2.150   2.508  0.00  0.00     0.053 A 
ATOM     26  C   UNL d   1       4.748  -1.982   2.493  0.00  0.00     0.046 A 
BRANCH  23  27
ATOM     27  C   UNL d   1       5.151  -2.134  -1.252  0.00  0.00     0.302 C 
ATOM     28  O   UNL d   1       6.116  -2.024  -2.002  0.00  0.00    -0.259 OA
BRANCH  27  29
ATOM     29  O   UNL d   1       3.883  -2.375  -1.698  0.00  0.00    -0.322 OA
ATOM     30  C   UNL d   1       3.804  -2.540  -3.115  0.00  0.00     0.213 C 
ENDBRANCH  27  29
ENDBRANCH  23  27
ENDBRANCH  21  22
ENDBRANCH   2  21
BRANCH   3  31
ATOM     31  C   UNL d   1      -0.941  -4.214   4.413  0.00  0.00     0.417 C 
ATOM     32  F   UNL d   1      -2.148  -3.587   4.436  0.00  0.00    -0.166 F 
ATOM     33  F   UNL d   1      -1.199  -5.531   4.192  0.00  0.00    -0.166 F 
ATOM     34  F   UNL d   1      -0.452  -4.131   5.681  0.00  0.00    -0.166 F 
ENDBRANCH   3  31
TORSDOF 9
