REMARK  7 active torsions:
REMARK  status: ('A' for Active; 'I' for Inactive)
REMARK    1  A    between atoms: N_5  and  C_1 
REMARK    2  A    between atoms: N_6  and  C_1 
REMARK    3  A    between atoms: C_2  and  C_15 
REMARK    4  A    between atoms: C_9  and  N_5 
REMARK    5  A    between atoms: C_16  and  N_6 
REMARK    6  A    between atoms: S_10  and  C_17 
REMARK    7  A    between atoms: C_15  and  S_10 
ROOT
ATOM      1  C   UNL d   1       1.208  -1.421  -2.008  0.00  0.00     0.051 A 
ATOM      2  C   UNL d   1       0.759  -1.211  -3.327  0.00  0.00     0.027 A 
ATOM      3  C   UNL d   1       2.463  -2.028  -1.806  0.00  0.00     0.031 A 
ATOM      4  C   UNL d   1       1.545  -1.698  -4.392  0.00  0.00     0.021 A 
ATOM      5  C   UNL d   1       3.224  -2.505  -2.873  0.00  0.00     0.002 A 
ATOM      6  C   UNL d   1       2.760  -2.346  -4.169  0.00  0.00     0.002 A 
ENDROOT
BRANCH   1   7
ATOM      7  N   UNL d   1       0.550  -1.062  -0.811  0.00  0.00    -0.332 N 
ATOM      8  H   UNL d   1       1.162  -0.886  -0.019  0.00  0.00     0.168 HD
BRANCH   7   9
ATOM      9  C   UNL d   1      -0.755  -1.137  -0.395  0.00  0.00     0.176 C 
ATOM     10  S   UNL d   1      -1.029  -0.497   1.129  0.00  0.00    -0.041 SA
BRANCH   9  11
ATOM     11  N   UNL d   1      -1.642  -1.750  -1.237  0.00  0.00    -0.333 N 
ATOM     12  H   UNL d   1      -1.321  -1.788  -2.198  0.00  0.00     0.168 HD
BRANCH  11  13
ATOM     13  C   UNL d   1      -2.979  -2.174  -1.063  0.00  0.00     0.035 A 
ATOM     14  C   UNL d   1      -3.587  -2.407   0.170  0.00  0.00     0.055 A 
ATOM     15  C   UNL d   1      -4.923  -2.828   0.243  0.00  0.00     0.058 A 
ATOM     16 CL   UNL d   1      -5.594  -3.093   1.815  0.00  0.00    -0.082 Cl
ATOM     17  C   UNL d   1      -5.659  -3.031  -0.925  0.00  0.00     0.055 A 
ATOM     18  C   UNL d   1      -5.052  -2.830  -2.163  0.00  0.00     0.028 A 
ATOM     19 CL   UNL d   1      -7.308  -3.545  -0.910  0.00  0.00    -0.083 Cl
ATOM     20  C   UNL d   1      -3.718  -2.415  -2.230  0.00  0.00     0.031 A 
ENDBRANCH  11  13
ENDBRANCH   9  11
ENDBRANCH   7   9
ENDBRANCH   1   7
BRANCH   2  21
ATOM     21  S   UNL d   1      -0.734  -0.374  -3.863  0.00  0.00    -0.123 SA
BRANCH  21  22
ATOM     22  C   UNL d   1      -0.683   1.208  -2.932  0.00  0.00     0.121 C 
BRANCH  22  23
ATOM     23  C   UNL d   1      -1.858   2.115  -3.259  0.00  0.00    -0.013 A 
ATOM     24  C   UNL d   1      -1.677   3.499  -3.427  0.00  0.00     0.087 A 
ATOM     25  C   UNL d   1      -2.769   4.349  -3.659  0.00  0.00     0.001 A 
ATOM     26  O   UNL d   1      -0.403   3.992  -3.315  0.00  0.00    -0.325 OA
ATOM     27  C   UNL d   1      -2.546   5.822  -3.819  0.00  0.00     0.212 C 
ATOM     28  C   UNL d   1      -4.058   3.813  -3.760  0.00  0.00     0.036 A 
ATOM     29  O   UNL d   1      -1.305   6.200  -3.238  0.00  0.00    -0.362 OA
ATOM     30  C   UNL d   1      -0.274   5.353  -3.724  0.00  0.00     0.345 C 
ATOM     31  C   UNL d   1      -4.253   2.449  -3.576  0.00  0.00     0.035 A 
ATOM     32  C   UNL d   1      -3.171   1.611  -3.306  0.00  0.00     0.034 A 
ATOM     33 CL   UNL d   1      -5.839   1.790  -3.678  0.00  0.00    -0.084 Cl
ENDBRANCH  22  23
ENDBRANCH  21  22
ENDBRANCH   2  21
TORSDOF 7
