REMARK  4 active torsions:
REMARK  status: ('A' for Active; 'I' for Inactive)
REMARK    1  A    between atoms: C_3  and  S_1 
REMARK    2  A    between atoms: O_4  and  S_1 
REMARK    3  A    between atoms: N_2  and  C_8 
REMARK    4  A    between atoms: C_6  and  O_4 
ROOT
ATOM      1  S   UNL d   1       0.822   0.049  -0.002  0.00  0.00     0.303 S 
ATOM      2  O   UNL d   1      -0.151   0.963   0.581  0.00  0.00    -0.193 OA
ATOM      3  O   UNL d   1       2.234   0.363   0.122  0.00  0.00    -0.193 OA
ENDROOT
BRANCH   1   4
ATOM      4  C   UNL d   1       0.387   0.053  -1.751  0.00  0.00     0.095 A 
ATOM      5  C   UNL d   1      -0.282  -1.044  -2.312  0.00  0.00     0.062 A 
ATOM      6  C   UNL d   1      -0.511  -1.091  -3.694  0.00  0.00     0.104 A 
ATOM      7  C   UNL d   1      -0.159  -0.015  -4.511  0.00  0.00     0.037 A 
ATOM      8  C   UNL d   1       0.429   1.112  -3.938  0.00  0.00     0.011 A 
ATOM      9  C   UNL d   1       0.706   1.169  -2.557  0.00  0.00    -0.038 A 
ATOM     10  C   UNL d   1       1.338   2.438  -2.046  0.00  0.00     0.050 C 
BRANCH   6  11
ATOM     11  N   UNL d   1      -1.099  -2.296  -4.293  0.00  0.00    -0.116 N 
ATOM     12  O   UNL d   1      -1.307  -3.266  -3.549  0.00  0.00    -0.532 OA
ATOM     13  O   UNL d   1      -1.344  -2.276  -5.507  0.00  0.00    -0.532 OA
ENDBRANCH   6  11
ENDBRANCH   1   4
BRANCH   1  14
ATOM     14  O   UNL d   1       0.521  -1.393   0.684  0.00  0.00    -0.227 OA
BRANCH  14  15
ATOM     15  C   UNL d   1       0.853  -2.647   0.227  0.00  0.00     0.117 A 
ATOM     16  C   UNL d   1       1.798  -2.959  -0.754  0.00  0.00     0.078 A 
ATOM     17  N   UNL d   1       2.592  -2.018  -1.293  0.00  0.00    -0.357 N 
ATOM     18  C   UNL d   1       1.858  -4.298  -1.201  0.00  0.00    -0.006 A 
ATOM     19  C   UNL d   1       3.479  -2.352  -2.258  0.00  0.00     0.005 A 
ATOM     20  HN  UNL d   1       2.526  -1.051  -0.974  1.00  0.00     0.166 HD
ATOM     21  C   UNL d   1       4.387  -1.268  -2.752  0.00  0.00     0.068 C 
ATOM     22  C   UNL d   1       3.564  -3.632  -2.775  0.00  0.00     0.025 A 
ATOM     23  C   UNL d   1       2.742  -4.615  -2.240  0.00  0.00     0.016 A 
ATOM     24  C   UNL d   1       1.038  -5.287  -0.632  0.00  0.00     0.014 A 
ATOM     25  C   UNL d   1       0.155  -4.966   0.391  0.00  0.00     0.004 A 
ATOM     26  C   UNL d   1       0.065  -3.649   0.819  0.00  0.00     0.040 A 
ENDBRANCH  14  15
ENDBRANCH   1  14
TORSDOF 4
