REMARK  2 active torsions:
REMARK  status: ('A' for Active; 'I' for Inactive)
REMARK    1  A    between atoms: C_2  and  N_1 
REMARK    2  A    between atoms: C_9  and  C_5 
ROOT
ATOM      1  C   UNL d   1      -1.676   2.386  -4.762  0.00  0.00     0.056 A 
ATOM      2  C   UNL d   1      -1.299   1.796  -5.970  0.00  0.00     0.055 A 
ATOM      3  C   UNL d   1      -0.973   2.087  -3.588  0.00  0.00     0.037 A 
ATOM      4  C   UNL d   1       0.099   1.182  -3.602  0.00  0.00    -0.033 A 
ATOM      5  C   UNL d   1      -0.208   0.924  -6.001  0.00  0.00     0.026 A 
ATOM      6 CL   UNL d   1      -3.003   3.486  -4.638  0.00  0.00    -0.083 Cl
ATOM      7 CL   UNL d   1      -2.135   2.098  -7.450  0.00  0.00    -0.083 Cl
ATOM      8  C   UNL d   1       0.490   0.624  -4.825  0.00  0.00     0.013 A 
ENDROOT
BRANCH   4   9
ATOM      9  C   UNL d   1       0.839   0.824  -2.381  0.00  0.00     0.035 C 
ATOM     10  C   UNL d   1       0.259   0.786  -1.175  0.00  0.00     0.168 C 
BRANCH  10  11
ATOM     11  N   UNL d   1       1.022   0.405  -0.009  0.00  0.00    -0.127 N 
ATOM     12  O   UNL d   1       0.402   0.416   1.060  0.00  0.00    -0.532 OA
ATOM     13  O   UNL d   1       2.212   0.101  -0.146  0.00  0.00    -0.532 OA
ENDBRANCH  10  11
ENDBRANCH   4   9
TORSDOF 2
