REMARK  4 active torsions:
REMARK  status: ('A' for Active; 'I' for Inactive)
REMARK    1  A    between atoms: C_11  and  C_1 
REMARK    2  A    between atoms: O_17  and  N_5 
REMARK    3  A    between atoms: O_19  and  C_11 
REMARK    4  A    between atoms: C_20  and  O_19 
ROOT
ATOM      1  C   UNL d   1       1.843   1.580   0.026  0.00  0.00     0.079 A 
ATOM      2  C   UNL d   1       0.856   0.565  -0.016  0.00  0.00     0.042 A 
ATOM      3  C   UNL d   1       1.416  -0.695  -0.117  0.00  0.00     0.076 A 
ATOM      4  C   UNL d   1       3.056   0.880  -0.057  0.00  0.00     0.054 A 
ATOM      5  N   UNL d   1       2.767  -0.457  -0.160  0.00  0.00    -0.228 N 
ATOM      6  C   UNL d   1      -0.570   0.633   0.067  0.00  0.00     0.099 A 
ATOM      7  C   UNL d   1       0.675  -1.899  -0.146  0.00  0.00     0.035 A 
ATOM      8  C   UNL d   1      -1.298  -0.581   0.024  0.00  0.00     0.086 A 
ATOM      9  N   UNL d   1      -1.334   1.697   0.206  0.00  0.00    -0.239 N 
ATOM     10  HN  UNL d   1      -1.054   2.674   0.289  1.00  0.00     0.197 HD
ATOM     11  O   UNL d   1      -2.622   1.157   0.212  0.00  0.00    -0.156 OA
ATOM     12  N   UNL d   1      -2.595  -0.236   0.110  0.00  0.00    -0.240 N 
ATOM     13  HN  UNL d   1      -3.397  -0.865   0.103  1.00  0.00     0.197 HD
ATOM     14  C   UNL d   1      -0.730  -1.860  -0.079  0.00  0.00     0.036 A 
ATOM     15  C   UNL d   1       4.466   1.362  -0.059  0.00  0.00     0.072 C 
ENDROOT
BRANCH   1  16
ATOM     16  C   UNL d   1       1.722   3.030   0.166  0.00  0.00     0.296 C 
ATOM     17  O   UNL d   1       2.568   3.716   0.726  0.00  0.00    -0.259 OA
BRANCH  16  18
ATOM     18  O   UNL d   1       0.586   3.520  -0.390  0.00  0.00    -0.318 OA
BRANCH  18  19
ATOM     19  C   UNL d   1       0.220   4.865  -0.058  0.00  0.00     0.174 C 
ATOM     20  C   UNL d   1       0.296   5.741  -1.291  0.00  0.00     0.034 C 
ENDBRANCH  18  19
ENDBRANCH  16  18
ENDBRANCH   1  16
BRANCH   5  21
ATOM     21  O   UNL d   1       3.717  -1.461  -0.305  0.00  0.00    -0.282 OA
ATOM     22  H   UNL d   1       4.299  -1.249   0.443  0.00  0.00     0.245 HD
ENDBRANCH   5  21
TORSDOF 4
