REMARK  2 active torsions:
REMARK  status: ('A' for Active; 'I' for Inactive)
REMARK       I    between atoms: N_4  and  C_1 
REMARK       I    between atoms: N_5  and  C_1 
REMARK       I    between atoms: C_2  and  N_6 
REMARK       I    between atoms: N_12  and  C_2 
REMARK       I    between atoms: C_3  and  N_7 
REMARK       I    between atoms: N_11  and  C_3 
REMARK    1  A    between atoms: N_6  and  N_4 
REMARK    2  A    between atoms: N_7  and  N_5 
ROOT
ATOM      1  C   UNL d   1       1.016   0.101  -0.003  0.00  0.00     0.353 C 
ATOM      2  N   UNL d   1       0.318   1.282   0.093  0.00  0.00    -0.246 N 
ATOM      3  N   UNL d   1       0.192  -0.994  -0.093  0.00  0.00    -0.246 N 
ATOM      4  O   UNL d   1       2.244   0.035  -0.009  0.00  0.00    -0.244 OA
ATOM      5  H   UNL d   1      -0.697   1.335   0.098  0.00  0.00     0.192 HD
ATOM      6  H   UNL d   1      -0.823  -0.932  -0.088  0.00  0.00     0.192 HD
ENDROOT
BRANCH   2   7
ATOM      7  N   UNL d   1       1.004   2.490   0.192  0.00  0.00    -0.248 N 
ATOM      8  C   UNL d   1       0.276   3.643   0.286  0.00  0.00     0.332 C 
ATOM      9  O   UNL d   1      -0.950   3.683   0.290  0.00  0.00    -0.246 OA
ATOM     10  N   UNL d   1       1.025   4.766   0.378  0.00  0.00    -0.351 N 
ATOM     11  H   UNL d   1       2.032   4.761   0.378  0.00  0.00     0.160 HD
ATOM     12  H   UNL d   1       0.536   5.648   0.451  0.00  0.00     0.160 HD
ATOM     13  H   UNL d   1       2.017   2.454   0.189  0.00  0.00     0.192 HD
ENDBRANCH   2   7
BRANCH   3  14
ATOM     14  N   UNL d   1       0.733  -2.274  -0.198  0.00  0.00    -0.248 N 
ATOM     15  C   UNL d   1      -0.134  -3.328  -0.284  0.00  0.00     0.332 C 
ATOM     16  O   UNL d   1      -1.355  -3.210  -0.274  0.00  0.00    -0.246 OA
ATOM     17  N   UNL d   1       0.461  -4.538  -0.383  0.00  0.00    -0.351 N 
ATOM     18  H   UNL d   1       1.459  -4.668  -0.393  0.00  0.00     0.160 HD
ATOM     19  H   UNL d   1      -0.143  -5.346  -0.449  0.00  0.00     0.160 HD
ATOM     20  H   UNL d   1       1.743  -2.359  -0.204  0.00  0.00     0.192 HD
ENDBRANCH   3  14
TORSDOF 2
