REMARK  3 active torsions:
REMARK  status: ('A' for Active; 'I' for Inactive)
REMARK    1  A    between atoms: C_7  and  C_3 
REMARK    2  A    between atoms: N_15  and  C_4 
REMARK    3  A    between atoms: C_14  and  C_6 
ROOT
ATOM      1  C   UNL d   1      -0.444   1.374  -0.071  0.00  0.00     0.066 C 
ATOM      2  C   UNL d   1      -0.860  -1.126  -0.077  0.00  0.00     0.081 C 
ATOM      3  C   UNL d   1       0.880   1.108  -0.027  0.00  0.00     0.077 C 
ATOM      4  C   UNL d   1       0.478  -1.290  -0.033  0.00  0.00     0.138 C 
ATOM      5  O   UNL d   1       1.340  -0.205   0.068  0.00  0.00    -0.300 OA
ATOM      6  C   UNL d   1      -1.474   0.261   0.006  0.00  0.00     0.112 C 
ATOM      7  C   UNL d   1      -0.894   2.728  -0.207  0.00  0.00     0.099 C 
ATOM      8  C   UNL d   1      -1.725  -2.259  -0.180  0.00  0.00     0.100 C 
ATOM      9  N   UNL d   1      -1.237   3.826  -0.340  0.00  0.00    -0.192 NA
ATOM     10  N   UNL d   1      -2.408  -3.191  -0.290  0.00  0.00    -0.191 NA
ENDROOT
BRANCH   3  11
ATOM     11  C   UNL d   1       1.924   2.158  -0.101  0.00  0.00     0.044 A 
ATOM     12  C   UNL d   1       3.232   2.030   0.636  0.00  0.00     0.012 A 
ATOM     13  C   UNL d   1       2.189   2.983   1.137  0.00  0.00     0.012 A 
ENDBRANCH   3  11
BRANCH   6  14
ATOM     14  C   UNL d   1      -2.594   0.456  -1.014  0.00  0.00    -0.044 A 
ATOM     15  C   UNL d   1      -3.896   0.733  -0.568  0.00  0.00     0.008 A 
ATOM     16  C   UNL d   1      -4.927   0.937  -1.484  0.00  0.00     0.001 A 
ATOM     17  C   UNL d   1      -4.669   0.864  -2.851  0.00  0.00     0.000 A 
ATOM     18  C   UNL d   1      -3.381   0.589  -3.306  0.00  0.00     0.001 A 
ATOM     19  C   UNL d   1      -2.345   0.386  -2.394  0.00  0.00     0.008 A 
ENDBRANCH   6  14
BRANCH   4  20
ATOM     20  N   UNL d   1       1.139  -2.494  -0.073  0.00  0.00    -0.282 NA
ATOM     21  H   UNL d   1       0.641  -3.264  -0.516  0.00  0.00     0.126 HD
ATOM     22  H   UNL d   1       2.100  -2.400  -0.393  0.00  0.00     0.126 HD
ENDBRANCH   4  20
TORSDOF 3
