REMARK  3 active torsions:
REMARK  status: ('A' for Active; 'I' for Inactive)
REMARK    1  A    between atoms: C_9  and  C_1 
REMARK    2  A    between atoms: O_11  and  C_1 
REMARK    3  A    between atoms: C_7  and  C_3 
ROOT
ATOM      1  C   UNL d   1      -1.265   1.554   0.044  0.00  0.00     0.125 C 
ATOM      2  C   UNL d   1       0.028   0.721   0.113  0.00  0.00     0.004 A 
ATOM      3  C   UNL d   1      -2.511   0.695  -0.305  0.00  0.00     0.112 C 
ATOM      4  N   UNL d   1      -1.211  -1.366  -0.218  0.00  0.00    -0.292 NA
ATOM      5  C   UNL d   1      -2.378  -0.685   0.332  0.00  0.00     0.108 C 
ATOM      6  C   UNL d   1      -0.006  -0.678  -0.021  0.00  0.00     0.018 A 
ATOM      7  C   UNL d   1       1.274   1.354   0.310  0.00  0.00     0.036 A 
ATOM      8  C   UNL d   1       1.197  -1.395  -0.095  0.00  0.00     0.026 A 
ATOM      9  C   UNL d   1       2.458   0.619   0.276  0.00  0.00     0.034 A 
ATOM     10  C   UNL d   1       2.425  -0.752   0.058  0.00  0.00     0.026 A 
ATOM     11 CL   UNL d   1       3.970   1.415   0.473  0.00  0.00    -0.084 Cl
ATOM     12  H   UNL d   1      -1.150  -2.340   0.074  0.00  0.00     0.127 HD
ENDROOT
BRANCH   1  13
ATOM     13  C   UNL d   1      -1.109   2.696  -0.985  0.00  0.00    -0.019 A 
ATOM     14  C   UNL d   1      -0.843   2.398  -2.337  0.00  0.00     0.010 A 
ATOM     15  C   UNL d   1      -0.716   3.411  -3.289  0.00  0.00     0.001 A 
ATOM     16  C   UNL d   1      -0.847   4.746  -2.909  0.00  0.00     0.000 A 
ATOM     17  C   UNL d   1      -1.096   5.064  -1.576  0.00  0.00     0.001 A 
ATOM     18  C   UNL d   1      -1.220   4.050  -0.621  0.00  0.00     0.010 A 
ENDBRANCH   1  13
BRANCH   1  19
ATOM     19  O   UNL d   1      -1.461   2.114   1.353  0.00  0.00    -0.379 OA
ATOM     20  H   UNL d   1      -1.086   1.493   2.002  0.00  0.00     0.211 HD
ENDBRANCH   1  19
BRANCH   3  21
ATOM     21  C   UNL d   1      -3.836   1.298   0.151  0.00  0.00     0.132 C 
ATOM     22  O   UNL d   1      -4.542   0.744   1.000  0.00  0.00    -0.298 OA
ATOM     23  C   UNL d   1      -4.317   2.572  -0.488  0.00  0.00     0.091 C 
ENDBRANCH   3  21
TORSDOF 3
