REMARK  1 active torsions:
REMARK  status: ('A' for Active; 'I' for Inactive)
REMARK    1  A    between atoms: N_5  and  C_1 
ROOT
ATOM      1  C   UNL d   1      -2.382  -0.320   0.009  0.00  0.00     0.104 A 
ATOM      2  C   UNL d   1      -1.425   0.708  -0.557  0.00  0.00     0.213 A 
ATOM      3  C   UNL d   1      -1.801  -1.425   0.509  0.00  0.00     0.176 A 
ATOM      4  C   UNL d   1       0.009   0.370  -0.537  0.00  0.00     0.050 A 
ATOM      5  O   UNL d   1      -0.467  -1.740   0.546  0.00  0.00    -0.319 OA
ATOM      6  C   UNL d   1       0.414  -0.838   0.018  0.00  0.00     0.089 A 
ATOM      7  O   UNL d   1      -1.780   1.800  -0.990  0.00  0.00    -0.285 OA
ATOM      8  C   UNL d   1       0.958   1.260  -1.052  0.00  0.00     0.018 A 
ATOM      9  C   UNL d   1       1.769  -1.168   0.062  0.00  0.00     0.038 A 
ATOM     10  C   UNL d   1       2.314   0.933  -1.004  0.00  0.00     0.001 A 
ATOM     11  C   UNL d   1       2.719  -0.281  -0.448  0.00  0.00     0.003 A 
ENDROOT
BRANCH   1  12
ATOM     12  N   UNL d   1      -3.766  -0.087   0.008  0.00  0.00    -0.376 N 
ATOM     13  C   UNL d   1      -4.454   0.698  -1.028  0.00  0.00     0.123 C 
ATOM     14  C   UNL d   1      -5.516  -0.178  -1.697  0.00  0.00     0.020 C 
ATOM     15  C   UNL d   1      -6.478  -0.784  -0.678  0.00  0.00     0.003 C 
ATOM     16  C   UNL d   1      -5.719  -1.498   0.439  0.00  0.00     0.020 C 
ATOM     17  C   UNL d   1      -4.667  -0.582   1.057  0.00  0.00     0.123 C 
ENDBRANCH   1  12
TORSDOF 1
