REMARK  3 active torsions:
REMARK  status: ('A' for Active; 'I' for Inactive)
REMARK    1  A    between atoms: C_11  and  C_2 
REMARK    2  A    between atoms: N_17  and  C_4 
REMARK    3  A    between atoms: O_20  and  C_11 
ROOT
ATOM      1  C   UNL d   1      -0.701   0.594  -0.158  0.00  0.00     0.133 A 
ATOM      2  C   UNL d   1      -1.421   0.327  -1.467  0.00  0.00     0.089 C 
ATOM      3  C   UNL d   1      -1.585   0.270   1.060  0.00  0.00    -0.016 A 
ATOM      4  C   UNL d   1      -2.504  -0.479  -1.498  0.00  0.00     0.134 C 
ATOM      5  C   UNL d   1      -0.222   2.091  -0.091  0.00  0.00     0.245 A 
ATOM      6  C   UNL d   1      -2.675  -0.493   0.894  0.00  0.00     0.060 A 
ATOM      7  O   UNL d   1      -3.031  -1.011  -0.336  0.00  0.00    -0.302 OA
ATOM      8  N   UNL d   1       1.169   2.079   0.043  0.00  0.00    -0.325 N 
ATOM      9  C   UNL d   1       0.630  -0.139  -0.070  0.00  0.00    -0.004 A 
ATOM     10  C   UNL d   1      -1.195   0.803   2.407  0.00  0.00     0.117 A 
ATOM     11  C   UNL d   1       1.672   0.785   0.029  0.00  0.00     0.043 A 
ATOM     12  C   UNL d   1      -2.060   0.406   3.590  0.00  0.00     0.139 A 
ATOM     13  C   UNL d   1      -3.320  -0.446   3.413  0.00  0.00     0.019 A 
ATOM     14  C   UNL d   1      -3.626  -0.888   1.970  0.00  0.00     0.082 A 
ATOM     15  O   UNL d   1      -0.914   3.096  -0.130  0.00  0.00    -0.271 OA
ATOM     16  O   UNL d   1      -1.730   0.794   4.719  0.00  0.00    -0.297 OA
ATOM     17  C   UNL d   1       0.893  -1.500  -0.088  0.00  0.00     0.011 A 
ATOM     18  C   UNL d   1      -3.150  -1.700   4.292  0.00  0.00     0.023 C 
ATOM     19  C   UNL d   1      -4.514   0.371   3.944  0.00  0.00     0.023 C 
ATOM     20  C   UNL d   1       2.995   0.401   0.084  0.00  0.00     0.030 A 
ATOM     21  C   UNL d   1       2.226  -1.912  -0.025  0.00  0.00     0.001 A 
ATOM     22  C   UNL d   1       3.268  -0.970   0.052  0.00  0.00     0.002 A 
ATOM     23  H   UNL d   1       1.719   2.923   0.088  0.00  0.00     0.169 HD
ENDROOT
BRANCH   2  24
ATOM     24  C   UNL d   1      -1.017   0.965  -2.743  0.00  0.00     0.294 C 
ATOM     25  O   UNL d   1      -1.781   1.133  -3.688  0.00  0.00    -0.259 OA
BRANCH  24  26
ATOM     26  O   UNL d   1       0.286   1.328  -2.746  0.00  0.00    -0.323 OA
ATOM     27  C   UNL d   1       0.709   1.961  -3.955  0.00  0.00     0.213 C 
ENDBRANCH  24  26
ENDBRANCH   2  24
BRANCH   4  28
ATOM     28  N   UNL d   1      -3.210  -0.867  -2.614  0.00  0.00    -0.282 NA
ATOM     29  H   UNL d   1      -3.097  -0.217  -3.399  0.00  0.00     0.126 HD
ATOM     30  H   UNL d   1      -4.187  -1.044  -2.396  0.00  0.00     0.126 HD
ENDBRANCH   4  28
TORSDOF 3
