REMARK  4 active torsions:
REMARK  status: ('A' for Active; 'I' for Inactive)
REMARK    1  A    between atoms: C_7  and  C_1 
REMARK    2  A    between atoms: C_9  and  C_2 
REMARK    3  A    between atoms: C_10  and  C_5 
REMARK    4  A    between atoms: C_8  and  C_7 
ROOT
ATOM      1  C   UNL d   1       1.110   0.731  -0.057  0.00  0.00    -0.004 A 
ATOM      2  C   UNL d   1       1.032  -0.659   0.094  0.00  0.00     0.042 A 
ATOM      3  N   UNL d   1      -1.096   0.140   0.154  0.00  0.00    -0.303 N 
ATOM      4  HN  UNL d   1      -2.112   0.163   0.239  1.00  0.00     0.186 HD
ATOM      5  C   UNL d   1      -0.264   1.180   0.028  0.00  0.00     0.042 A 
ATOM      6  N   UNL d   1      -0.311  -0.927   0.143  0.00  0.00    -0.303 N 
ATOM      7  H   UNL d   1      -0.757  -1.835   0.209  0.00  0.00     0.186 HD
ENDROOT
BRANCH   1   8
ATOM      8  C   UNL d   1       2.325   1.593  -0.169  0.00  0.00     0.086 C 
BRANCH   8   9
ATOM      9  C   UNL d   1       2.811   1.798  -1.593  0.00  0.00     0.006 A 
ATOM     10  C   UNL d   1       2.313   1.149  -2.734  0.00  0.00     0.124 A 
ATOM     11  F   UNL d   1       1.307   0.270  -2.662  0.00  0.00    -0.205 F 
ATOM     12  C   UNL d   1       2.836   1.383  -4.011  0.00  0.00     0.043 A 
ATOM     13  C   UNL d   1       3.884   2.275  -4.192  0.00  0.00     0.005 A 
ATOM     14  C   UNL d   1       4.403   2.939  -3.088  0.00  0.00     0.024 A 
ATOM     15  C   UNL d   1       3.876   2.703  -1.810  0.00  0.00     0.043 A 
ATOM     16 CL   UNL d   1       4.607   3.587  -0.508  0.00  0.00    -0.084 Cl
ENDBRANCH   8   9
ENDBRANCH   1   8
BRANCH   2  17
ATOM     17  C   UNL d   1       2.009  -1.830   0.179  0.00  0.00    -0.007 C 
ATOM     18  C   UNL d   1       3.487  -1.424   0.107  0.00  0.00     0.021 C 
ATOM     19  C   UNL d   1       1.802  -2.571   1.521  0.00  0.00     0.021 C 
ATOM     20  C   UNL d   1       1.739  -2.815  -0.980  0.00  0.00     0.021 C 
ENDBRANCH   2  17
BRANCH   5  21
ATOM     21  C   UNL d   1      -0.871   2.589   0.031  0.00  0.00    -0.007 C 
ATOM     22  C   UNL d   1      -2.424   2.536   0.060  0.00  0.00     0.021 C 
ATOM     23  C   UNL d   1      -0.442   3.371   1.290  0.00  0.00     0.021 C 
ATOM     24  C   UNL d   1      -0.478   3.373  -1.234  0.00  0.00     0.021 C 
ENDBRANCH   5  21
TORSDOF 4
