REMARK  2 active torsions:
REMARK  status: ('A' for Active; 'I' for Inactive)
REMARK    1  A    between atoms: C_4  and  N_1 
REMARK    2  A    between atoms: O_16  and  C_8 
ROOT
ATOM      1  C   UNL d   1      -2.548  -0.016  -0.578  0.00  0.00     0.081 A 
ATOM      2  C   UNL d   1      -2.963   0.694  -1.716  0.00  0.00     0.057 A 
ATOM      3  C   UNL d   1      -3.493  -0.737   0.171  0.00  0.00     0.095 A 
ATOM      4  C   UNL d   1      -4.834  -0.745  -0.244  0.00  0.00     0.041 A 
ATOM      5  C   UNL d   1      -4.295   0.660  -2.122  0.00  0.00     0.036 A 
ATOM      6  C   UNL d   1      -5.236  -0.050  -1.386  0.00  0.00     0.026 A 
ATOM      7 CL   UNL d   1      -4.768   1.473  -3.563  0.00  0.00    -0.084 Cl
ENDROOT
BRANCH   1   8
ATOM      8  N   UNL d   1      -1.170  -0.015  -0.271  0.00  0.00    -0.242 N 
ATOM      9  C   UNL d   1      -0.425   1.117  -0.150  0.00  0.00     0.255 A 
ATOM     10  C   UNL d   1       0.977   0.703  -0.050  0.00  0.00     0.087 A 
ATOM     11  O   UNL d   1      -0.770   2.285  -0.118  0.00  0.00    -0.268 OA
ATOM     12  C   UNL d   1       1.024  -0.617  -0.248  0.00  0.00     0.012 A 
ATOM     13  C   UNL d   1      -0.358  -1.103  -0.419  0.00  0.00     0.261 A 
ATOM     14  C   UNL d   1       2.219  -1.486  -0.325  0.00  0.00     0.054 C 
ATOM     15  O   UNL d   1      -0.633  -2.252  -0.714  0.00  0.00    -0.267 OA
ENDBRANCH   1   8
BRANCH   3  16
ATOM     16  O   UNL d   1      -3.262  -1.477   1.300  0.00  0.00    -0.354 OA
ATOM     17  C   UNL d   1      -2.412  -0.892   2.278  0.00  0.00     0.210 C 
ENDBRANCH   3  16
TORSDOF 2
