REMARK  3 active torsions:
REMARK  status: ('A' for Active; 'I' for Inactive)
REMARK    1  A    between atoms: C_2  and  C_1 
REMARK       I    between atoms: N_8  and  C_1 
REMARK    2  A    between atoms: N_3  and  N_8 
REMARK    3  A    between atoms: C_5  and  C_6 
ROOT
ATOM      1  C   UNL d   1       0.866   0.029   0.149  0.00  0.00     0.271 C 
ATOM      2  N   UNL d   1       0.134   1.209   0.146  0.00  0.00    -0.266 N 
ATOM      3  O   UNL d   1       0.409  -1.091   0.352  0.00  0.00    -0.266 OA
ATOM      4  H   UNL d   1       0.588   2.112   0.095  0.00  0.00     0.190 HD
ENDROOT
BRANCH   2   5
ATOM      5  N   UNL d   1      -1.222   1.146   0.285  0.00  0.00    -0.306 N 
ATOM      6  C   UNL d   1      -1.857   2.273   0.280  0.00  0.00     0.144 C 
ATOM      7  HN  UNL d   1      -1.710   0.256   0.387  1.00  0.00     0.186 HD
BRANCH   6   8
ATOM      8  C   UNL d   1      -3.287   2.295   0.388  0.00  0.00     0.091 A 
ATOM      9  O   UNL d   1      -3.924   3.503   0.345  0.00  0.00    -0.321 OA
ATOM     10  C   UNL d   1      -5.256   3.252   0.445  0.00  0.00     0.142 A 
ATOM     11  C   UNL d   1      -5.487   1.901   0.554  0.00  0.00     0.027 A 
ATOM     12  C   UNL d   1      -4.216   1.282   0.521  0.00  0.00     0.040 A 
ENDBRANCH   6   8
ENDBRANCH   2   5
BRANCH   1  13
ATOM     13  C   UNL d   1       2.317   0.177  -0.097  0.00  0.00     0.049 A 
ATOM     14  C   UNL d   1       3.187  -0.748   0.467  0.00  0.00     0.104 A 
ATOM     15  N   UNL d   1       4.534  -0.709   0.310  0.00  0.00    -0.374 N 
ATOM     16  C   UNL d   1       5.028   0.280  -0.465  0.00  0.00     0.087 A 
ATOM     17  HN  UNL d   1       5.144  -1.394   0.755  1.00  0.00     0.164 HD
ATOM     18  C   UNL d   1       4.239   1.234  -1.090  0.00  0.00     0.018 A 
ATOM     19  C   UNL d   1       2.858   1.180  -0.904  0.00  0.00     0.020 A 
ENDBRANCH   1  13
TORSDOF 3
