REMARK  7 active torsions:
REMARK  status: ('A' for Active; 'I' for Inactive)
REMARK    1  A    between atoms: C_4  and  C_1 
REMARK    2  A    between atoms: C_8  and  N_5 
REMARK    3  A    between atoms: C_7  and  C_8 
REMARK    4  A    between atoms: N_19  and  C_7 
REMARK    5  A    between atoms: C_9  and  O_14 
REMARK       I    between atoms: N_13  and  C_9 
REMARK    6  A    between atoms: O_14  and  N_11 
REMARK    7  A    between atoms: C_20  and  N_13 
ROOT
ATOM      1  C   UNL d   1       2.893   0.635  -0.039  0.00  0.00     0.095 C 
ATOM      2  N   UNL d   1       2.975  -0.661   0.006  0.00  0.00    -0.248 N 
ATOM      3  HN  UNL d   1       3.847  -1.183  -0.083  1.00  0.00     0.196 HD
ENDROOT
BRANCH   1   4
ATOM      4  C   UNL d   1       4.192   1.388  -0.306  0.00  0.00     0.219 C 
BRANCH   4   5
ATOM      5  N   UNL d   1       4.143   2.260  -1.476  0.00  0.00    -0.296 N 
ATOM      6  N   UNL d   1       2.983   2.521  -2.119  0.00  0.00    -0.294 N 
ATOM      7  C   UNL d   1       3.359   3.164  -3.244  0.00  0.00     0.133 C 
ATOM      8  HN  UNL d   1       2.036   2.284  -1.822  1.00  0.00     0.187 HD
ATOM      9  C   UNL d   1       4.757   3.422  -3.228  0.00  0.00     0.054 C 
ATOM     10  C   UNL d   1       5.221   2.860  -2.064  0.00  0.00     0.113 C 
BRANCH   7  11
ATOM     11  C   UNL d   1       2.401   3.502  -4.356  0.00  0.00     0.433 C 
ATOM     12  F   UNL d   1       1.109   3.598  -3.941  0.00  0.00    -0.165 F 
ATOM     13  F   UNL d   1       2.708   4.687  -4.950  0.00  0.00    -0.165 F 
ATOM     14  F   UNL d   1       2.428   2.561  -5.339  0.00  0.00    -0.165 F 
ENDBRANCH   7  11
ENDBRANCH   4   5
ENDBRANCH   1   4
BRANCH   1  15
ATOM     15  N   UNL d   1       1.736   1.361   0.160  0.00  0.00    -0.289 NA
ATOM     16  H   UNL d   1       1.692   2.182  -0.449  0.00  0.00     0.125 HD
ATOM     17  H   UNL d   1       0.901   0.795   0.063  0.00  0.00     0.125 HD
ENDBRANCH   1  15
BRANCH   2  18
ATOM     18  O   UNL d   1       1.709  -1.256   0.194  0.00  0.00    -0.180 OA
BRANCH  18  19
ATOM     19  C   UNL d   1       1.843  -2.415   0.916  0.00  0.00     0.387 C 
ATOM     20  N   UNL d   1       0.737  -3.235   0.919  0.00  0.00    -0.301 N 
ATOM     21  H   UNL d   1       0.812  -3.947   1.633  0.00  0.00     0.171 HD
ATOM     22  O   UNL d   1       2.817  -2.723   1.599  0.00  0.00    -0.236 OA
BRANCH  20  23
ATOM     23  C   UNL d   1      -0.399  -3.252   0.096  0.00  0.00     0.037 A 
ATOM     24  C   UNL d   1      -0.497  -2.566  -1.117  0.00  0.00     0.031 A 
ATOM     25  C   UNL d   1      -1.665  -2.649  -1.884  0.00  0.00     0.026 A 
ATOM     26  C   UNL d   1      -2.736  -3.422  -1.442  0.00  0.00     0.034 A 
ATOM     27  C   UNL d   1      -2.640  -4.134  -0.250  0.00  0.00     0.026 A 
ATOM     28 CL   UNL d   1      -4.177  -3.504  -2.376  0.00  0.00    -0.084 Cl
ATOM     29  C   UNL d   1      -1.468  -4.058   0.509  0.00  0.00     0.031 A 
ENDBRANCH  20  23
ENDBRANCH  18  19
ENDBRANCH   2  18
TORSDOF 7
