REMARK  4 active torsions:
REMARK  status: ('A' for Active; 'I' for Inactive)
REMARK    1  A    between atoms: C_3  and  C_1 
REMARK    2  A    between atoms: N_4  and  C_2 
REMARK       I    between atoms: C_5  and  N_6 
REMARK    3  A    between atoms: C_9  and  C_5 
REMARK    4  A    between atoms: O_24  and  C_20 
ROOT
ATOM      1  N   UNL d   1      -1.234   2.480   0.386  0.00  0.00    -0.266 NA
ATOM      2  C   UNL d   1      -3.886   5.750   0.730  0.00  0.00     0.253 C 
ATOM      3  N   UNL d   1      -2.903   4.769   0.746  0.00  0.00    -0.346 N 
ATOM      4  C   UNL d   1      -1.470   3.381  -0.771  0.00  0.00     0.117 C 
ATOM      5  C   UNL d   1      -2.418   2.415   1.269  0.00  0.00     0.117 C 
ATOM      6  C   UNL d   1      -2.647   3.823   1.844  0.00  0.00     0.141 C 
ATOM      7  C   UNL d   1      -1.831   4.801  -0.265  0.00  0.00     0.141 C 
ATOM      8  O   UNL d   1      -3.867   6.708  -0.042  0.00  0.00    -0.267 OA
ENDROOT
BRANCH   1   9
ATOM      9  C   UNL d   1      -0.677   1.239   0.089  0.00  0.00     0.097 A 
ATOM     10  C   UNL d   1       0.027   0.509   1.052  0.00  0.00     0.086 A 
ATOM     11  C   UNL d   1       0.553  -0.747   0.692  0.00  0.00     0.021 A 
ATOM     12  C   UNL d   1       0.400  -1.226  -0.602  0.00  0.00     0.018 A 
ATOM     13  C   UNL d   1      -0.281  -0.430  -1.493  0.00  0.00     0.089 A 
ATOM     14  N   UNL d   1      -0.811   0.774  -1.175  0.00  0.00    -0.356 N 
ATOM     15  HN  UNL d   1      -1.305   1.324  -1.879  1.00  0.00     0.166 HD
BRANCH  10  16
ATOM     16  C   UNL d   1       0.273   0.986   2.455  0.00  0.00     0.420 C 
ATOM     17  F   UNL d   1      -0.019   2.285   2.734  0.00  0.00    -0.166 F 
ATOM     18  F   UNL d   1      -0.445   0.257   3.362  0.00  0.00    -0.166 F 
ATOM     19  F   UNL d   1       1.578   0.831   2.830  0.00  0.00    -0.166 F 
ENDBRANCH  10  16
ENDBRANCH   1   9
BRANCH   2  20
ATOM     20  C   UNL d   1      -5.030   5.650   1.674  0.00  0.00     0.032 A 
ATOM     21  C   UNL d   1      -5.468   6.803   2.334  0.00  0.00     0.020 A 
ATOM     22  C   UNL d   1      -6.517   6.729   3.260  0.00  0.00     0.038 A 
ATOM     23  C   UNL d   1      -7.127   5.502   3.530  0.00  0.00     0.068 A 
ATOM     24  C   UNL d   1      -6.732   4.367   2.820  0.00  0.00     0.038 A 
ATOM     25  C   UNL d   1      -5.706   4.442   1.877  0.00  0.00     0.020 A 
BRANCH  23  26
ATOM     26  O   UNL d   1      -8.129   5.290   4.436  0.00  0.00    -0.356 OA
ATOM     27  C   UNL d   1      -8.307   6.296   5.426  0.00  0.00     0.210 C 
ENDBRANCH  23  26
ENDBRANCH   2  20
TORSDOF 4
