REMARK  4 active torsions:
REMARK  status: ('A' for Active; 'I' for Inactive)
REMARK    1  A    between atoms: C_8  and  S_1 
REMARK    2  A    between atoms: N_9  and  S_1 
REMARK    3  A    between atoms: N_2  and  C_3 
REMARK    4  A    between atoms: C_12  and  C_8 
ROOT
ATOM      1  C   UNL d   1      -4.023   1.653   0.144  0.00  0.00     0.102 A 
ATOM      2  C   UNL d   1      -3.365   0.419   0.222  0.00  0.00     0.036 A 
ATOM      3  C   UNL d   1      -3.294   2.847   0.146  0.00  0.00     0.036 A 
ATOM      4  C   UNL d   1      -1.224   1.575   0.295  0.00  0.00    -0.043 A 
ATOM      5  C   UNL d   1      -1.969   0.384   0.297  0.00  0.00     0.010 A 
ATOM      6  C   UNL d   1      -1.900   2.803   0.221  0.00  0.00     0.010 A 
ENDROOT
BRANCH   4   7
ATOM      7  C   UNL d   1       0.284   1.543   0.327  0.00  0.00     0.195 C 
BRANCH   7   8
ATOM      8  S   UNL d   1       0.893   1.402  -1.361  0.00  0.00     0.213 S 
ATOM      9  O   UNL d   1       0.501   2.567  -2.123  0.00  0.00    -0.211 OA
ATOM     10  O   UNL d   1       0.663   0.056  -1.843  0.00  0.00    -0.211 OA
BRANCH   8  11
ATOM     11  N   UNL d   1       2.576   1.507  -1.121  0.00  0.00    -0.224 NA
ATOM     12  C   UNL d   1       3.337   1.650  -2.382  0.00  0.00     0.125 C 
ATOM     13  H   UNL d   1       2.903   0.687  -0.606  0.00  0.00     0.139 HD
ENDBRANCH   8  11
ENDBRANCH   7   8
ENDBRANCH   4   7
BRANCH   1  14
ATOM     14  N   UNL d   1      -5.487   1.695   0.050  0.00  0.00    -0.116 N 
ATOM     15  O   UNL d   1      -6.096   0.616   0.040  0.00  0.00    -0.532 OA
ATOM     16  O   UNL d   1      -6.030   2.808  -0.010  0.00  0.00    -0.532 OA
ENDBRANCH   1  14
TORSDOF 4
