REMARK  6 active torsions:
REMARK  status: ('A' for Active; 'I' for Inactive)
REMARK    1  A    between atoms: C_13  and  N_1 
REMARK    2  A    between atoms: C_7  and  C_2 
REMARK    3  A    between atoms: C_8  and  C_4 
REMARK    4  A    between atoms: O_14  and  C_7 
REMARK    5  A    between atoms: C_22  and  C_13 
REMARK    6  A    between atoms: O_20  and  C_15 
ROOT
ATOM      1  N   UNL d   1      -2.143  -0.239   0.072  0.00  0.00    -0.338 N 
ATOM      2  C   UNL d   1      -0.435  -2.016   0.258  0.00  0.00     0.145 C 
ATOM      3  C   UNL d   1      -1.221   0.775   0.319  0.00  0.00     0.255 C 
ATOM      4  C   UNL d   1      -1.704  -1.531  -0.481  0.00  0.00     0.139 C 
ATOM      5  C   UNL d   1       0.637  -0.944   0.271  0.00  0.00    -0.026 A 
ATOM      6  C   UNL d   1       0.229   0.407   0.270  0.00  0.00     0.039 A 
ATOM      7  O   UNL d   1      -1.535   1.935   0.577  0.00  0.00    -0.267 OA
ATOM      8  C   UNL d   1       2.009  -1.236   0.305  0.00  0.00     0.009 A 
ATOM      9  C   UNL d   1       1.180   1.429   0.162  0.00  0.00     0.017 A 
ATOM     10  C   UNL d   1       2.949  -0.211   0.190  0.00  0.00     0.001 A 
ATOM     11  C   UNL d   1       2.536   1.116   0.093  0.00  0.00     0.001 A 
ENDROOT
BRANCH   4  12
ATOM     12  C   UNL d   1      -1.612  -1.471  -2.014  0.00  0.00    -0.034 A 
ATOM     13  C   UNL d   1      -2.471  -2.272  -2.783  0.00  0.00     0.012 A 
ATOM     14  C   UNL d   1      -2.435  -2.242  -4.186  0.00  0.00     0.037 A 
ATOM     15  C   UNL d   1      -1.534  -1.414  -4.851  0.00  0.00     0.068 A 
ATOM     16  C   UNL d   1      -0.673  -0.622  -4.104  0.00  0.00     0.037 A 
ATOM     17  C   UNL d   1      -0.717  -0.641  -2.707  0.00  0.00     0.012 A 
BRANCH  15  18
ATOM     18  O   UNL d   1      -1.393  -1.284  -6.203  0.00  0.00    -0.356 OA
ATOM     19  C   UNL d   1      -2.322  -1.991  -7.013  0.00  0.00     0.210 C 
ENDBRANCH  15  18
ENDBRANCH   4  12
BRANCH   2  20
ATOM     20  C   UNL d   1      -0.070  -3.391  -0.260  0.00  0.00     0.150 C 
ATOM     21  O   UNL d   1      -0.528  -4.417   0.230  0.00  0.00    -0.649 OA
BRANCH  20  22
ATOM     22  O   UNL d   1       0.746  -3.438  -1.334  0.00  0.00    -0.776 OA
ATOM     23  H   UNL d   1       0.979  -2.570  -1.720  0.00  0.00     0.167 HD
ENDBRANCH  20  22
ENDBRANCH   2  20
BRANCH   1  24
ATOM     24  C   UNL d   1      -3.578   0.049   0.152  0.00  0.00     0.126 C 
BRANCH  24  25
ATOM     25  C   UNL d   1      -4.319  -0.787   1.203  0.00  0.00     0.015 C 
ATOM     26  C   UNL d   1      -3.801  -0.573   2.618  0.00  0.00     0.006 C 
ENDBRANCH  24  25
ENDBRANCH   1  24
TORSDOF 6
