REMARK  4 active torsions:
REMARK  status: ('A' for Active; 'I' for Inactive)
REMARK    1  A    between atoms: N_5  and  N_1 
REMARK    2  A    between atoms: C_4  and  C_3 
REMARK    3  A    between atoms: C_8  and  N_5 
REMARK    4  A    between atoms: O_9  and  N_6 
ROOT
ATOM      1  N   UNL d   1       1.038  -0.126   0.030  0.00  0.00    -0.303 N 
ATOM      2  HN  UNL d   1       2.054  -0.054  -0.023  1.00  0.00     0.186 HD
ATOM      3  C   UNL d   1       0.371   0.520   0.939  0.00  0.00     0.039 C 
ATOM      4  C   UNL d   1      -1.118   0.533   1.152  0.00  0.00     0.071 C 
ENDROOT
BRANCH   1   5
ATOM      5  N   UNL d   1       0.347  -0.899  -0.847  0.00  0.00    -0.301 N 
ATOM      6  H   UNL d   1      -0.546  -0.570  -1.208  0.00  0.00     0.187 HD
BRANCH   5   7
ATOM      7  C   UNL d   1       1.075  -1.620  -1.823  0.00  0.00     0.048 A 
ATOM      8  C   UNL d   1       2.475  -1.685  -1.825  0.00  0.00     0.031 A 
ATOM      9  C   UNL d   1       3.158  -2.470  -2.759  0.00  0.00     0.002 A 
ATOM     10  C   UNL d   1       2.447  -3.228  -3.686  0.00  0.00     0.000 A 
ATOM     11  C   UNL d   1       1.055  -3.202  -3.678  0.00  0.00     0.002 A 
ATOM     12  C   UNL d   1       0.376  -2.409  -2.749  0.00  0.00     0.031 A 
ENDBRANCH   5   7
ENDBRANCH   1   5
BRANCH   3  13
ATOM     13  C   UNL d   1       1.199   1.337   1.897  0.00  0.00     0.139 C 
ATOM     14  N   UNL d   1       0.628   2.052   2.811  0.00  0.00    -0.279 N 
ATOM     15  HN  UNL d   1      -0.378   2.133   2.959  1.00  0.00     0.193 HD
BRANCH  14  16
ATOM     16  O   UNL d   1       1.616   2.697   3.563  0.00  0.00    -0.290 OA
ATOM     17  H   UNL d   1       1.093   3.189   4.225  0.00  0.00     0.244 HD
ENDBRANCH  14  16
ENDBRANCH   3  13
TORSDOF 4
