REMARK  6 active torsions:
REMARK  status: ('A' for Active; 'I' for Inactive)
REMARK    1  A    between atoms: C_8  and  C_1 
REMARK    2  A    between atoms: C_10  and  N_6 
REMARK    3  A    between atoms: C_11  and  C_10 
REMARK       I    between atoms: N_14  and  C_11 
REMARK       I    between atoms: C_12  and  N_13 
REMARK       I    between atoms: N_18  and  C_12 
REMARK    4  A    between atoms: N_13  and  N_14 
REMARK    5  A    between atoms: C_24  and  N_18 
REMARK    6  A    between atoms: C_25  and  C_24 
ROOT
ATOM      1  C   UNL d   1      -0.336  -1.306  -1.268  0.00  0.00     0.146 A 
ATOM      2  N   UNL d   1       0.836  -1.083  -0.630  0.00  0.00    -0.268 N 
ATOM      3  HN  UNL d   1       1.502  -1.749  -0.239  1.00  0.00     0.190 HD
ATOM      4  N   UNL d   1      -0.949  -0.133  -1.635  0.00  0.00    -0.266 N 
ATOM      5  HN  UNL d   1      -1.831  -0.045  -2.138  1.00  0.00     0.186 HD
ATOM      6  N   UNL d   1       0.878   0.266  -0.654  0.00  0.00    -0.207 N 
ATOM      7  N   UNL d   1      -0.183   0.861  -1.215  0.00  0.00    -0.002 NA
ENDROOT
BRANCH   6   8
ATOM      8  C   UNL d   1       1.796   1.019   0.165  0.00  0.00     0.271 C 
BRANCH   8   9
ATOM      9  C   UNL d   1       3.246   0.724  -0.101  0.00  0.00     0.257 C 
ATOM     10  N   UNL d   1       3.668  -0.582   0.048  0.00  0.00    -0.265 N 
ATOM     11  H   UNL d   1       3.043  -1.394   0.038  0.00  0.00     0.190 HD
ATOM     12  O   UNL d   1       4.056   1.634  -0.304  0.00  0.00    -0.270 OA
BRANCH  10  13
ATOM     13  N   UNL d   1       5.046  -0.815  -0.077  0.00  0.00    -0.249 N 
ATOM     14  C   UNL d   1       5.574  -2.060   0.197  0.00  0.00     0.334 C 
ATOM     15  O   UNL d   1       4.901  -3.067   0.366  0.00  0.00    -0.246 OA
ATOM     16  N   UNL d   1       6.950  -2.013   0.217  0.00  0.00    -0.342 N 
ATOM     17  H   UNL d   1       7.379  -1.161  -0.110  0.00  0.00     0.164 HD
ATOM     18  H   UNL d   1       5.623   0.015   0.035  0.00  0.00     0.192 HD
BRANCH  16  19
ATOM     19  C   UNL d   1       7.801  -3.187   0.271  0.00  0.00     0.124 C 
BRANCH  19  20
ATOM     20  C   UNL d   1       8.075  -3.687   1.689  0.00  0.00     0.015 C 
ATOM     21  C   UNL d   1       7.315  -4.965   2.010  0.00  0.00     0.006 C 
ENDBRANCH  19  20
ENDBRANCH  16  19
ENDBRANCH  10  13
ENDBRANCH   8   9
ENDBRANCH   6   8
BRANCH   1  22
ATOM     22  C   UNL d   1      -0.866  -2.640  -1.544  0.00  0.00     0.034 A 
ATOM     23  C   UNL d   1      -2.219  -2.913  -1.844  0.00  0.00     0.069 A 
ATOM     24  C   UNL d   1      -2.622  -4.240  -2.092  0.00  0.00     0.056 A 
ATOM     25 CL   UNL d   1      -3.422  -1.657  -1.884  0.00  0.00    -0.082 Cl
ATOM     26 CL   UNL d   1      -4.261  -4.670  -2.462  0.00  0.00    -0.083 Cl
ATOM     27  C   UNL d   1      -1.699  -5.291  -2.042  0.00  0.00     0.026 A 
ATOM     28  C   UNL d   1      -0.369  -5.032  -1.745  0.00  0.00     0.003 A 
ATOM     29  C   UNL d   1       0.042  -3.723  -1.500  0.00  0.00     0.017 A 
ENDBRANCH   1  22
TORSDOF 6
