REMARK  3 active torsions:
REMARK  status: ('A' for Active; 'I' for Inactive)
REMARK    1  A    between atoms: C_4  and  C_1 
REMARK    2  A    between atoms: O_18  and  C_12 
REMARK    3  A    between atoms: O_19  and  C_15 
ROOT
ATOM      1  C   UNL d   1       2.908   0.651  -0.278  0.00  0.00     0.080 C 
ATOM      2  S   UNL d   1       2.164  -0.908  -0.972  0.00  0.00    -0.139 SA
ATOM      3  S   UNL d   1       1.651   2.006  -0.431  0.00  0.00    -0.139 SA
ATOM      4  C   UNL d   1      -0.378  -0.746   0.133  0.00  0.00    -0.041 A 
ATOM      5  C   UNL d   1      -0.615   0.620   0.368  0.00  0.00    -0.041 A 
ATOM      6  C   UNL d   1      -1.442  -1.557  -0.295  0.00  0.00     0.015 A 
ATOM      7  C   UNL d   1      -1.900   1.143   0.147  0.00  0.00     0.015 A 
ATOM      8  C   UNL d   1      -2.733  -1.037  -0.490  0.00  0.00    -0.056 A 
ATOM      9  C   UNL d   1      -2.960   0.332  -0.278  0.00  0.00    -0.056 A 
ATOM     10  C   UNL d   1       0.466   1.541   0.863  0.00  0.00     0.115 C 
ATOM     11  C   UNL d   1       0.983  -1.363   0.334  0.00  0.00     0.115 C 
ATOM     12  C   UNL d   1       4.042   1.035  -1.251  0.00  0.00     0.044 C 
ATOM     13  C   UNL d   1      -3.838  -1.956  -0.932  0.00  0.00     0.049 C 
ATOM     14  C   UNL d   1      -4.312   0.952  -0.498  0.00  0.00     0.049 C 
ENDROOT
BRANCH   1  15
ATOM     15  C   UNL d   1       3.526   0.485   1.126  0.00  0.00    -0.027 C 
ATOM     16  C   UNL d   1       4.131  -0.734   1.515  0.00  0.00     0.049 C 
ATOM     17  C   UNL d   1       4.550  -0.963   2.830  0.00  0.00     0.101 C 
ATOM     18  C   UNL d   1       4.403   0.061   3.770  0.00  0.00     0.099 C 
ATOM     19  C   UNL d   1       3.932   1.312   3.392  0.00  0.00     0.040 C 
ATOM     20  C   UNL d   1       3.526   1.528   2.073  0.00  0.00     0.012 C 
BRANCH  17  21
ATOM     21  O   UNL d   1       5.073  -2.142   3.293  0.00  0.00    -0.353 OA
ATOM     22  C   UNL d   1       5.286  -3.182   2.350  0.00  0.00     0.210 C 
ENDBRANCH  17  21
BRANCH  18  23
ATOM     23  O   UNL d   1       4.727  -0.174   5.079  0.00  0.00    -0.358 OA
ATOM     24  H   UNL d   1       4.367   0.543   5.625  0.00  0.00     0.217 HD
ENDBRANCH  18  23
ENDBRANCH   1  15
TORSDOF 3
