REMARK  3 active torsions:
REMARK  status: ('A' for Active; 'I' for Inactive)
REMARK    1  A    between atoms: S_9  and  C_1 
REMARK       I    between atoms: C_3  and  N_4 
REMARK    2  A    between atoms: C_14  and  C_3 
REMARK    3  A    between atoms: N_6  and  S_9 
ROOT
ATOM      1  C   UNL d   1       5.628  -0.588   0.074  0.00  0.00     0.253 C 
ATOM      2  N   UNL d   1       5.025   0.681   0.059  0.00  0.00    -0.346 N 
ATOM      3  N   UNL d   1       3.526   3.218  -0.095  0.00  0.00    -0.250 NA
ATOM      4  C   UNL d   1       4.576   1.391   1.258  0.00  0.00     0.141 C 
ATOM      5  C   UNL d   1       4.452   1.136  -1.214  0.00  0.00     0.141 C 
ATOM      6  C   UNL d   1       4.396   2.898   1.058  0.00  0.00     0.123 C 
ATOM      7  C   UNL d   1       4.204   2.657  -1.291  0.00  0.00     0.123 C 
ATOM      8  O   UNL d   1       5.949  -1.184  -0.951  0.00  0.00    -0.267 OA
ENDROOT
BRANCH   3   9
ATOM      9  S   UNL d   1       1.859   3.031   0.022  0.00  0.00    -0.023 SA
BRANCH   9  10
ATOM     10  C   UNL d   1       1.330   4.199   1.261  0.00  0.00     0.099 A 
ATOM     11  C   UNL d   1      -0.041   4.321   1.542  0.00  0.00     0.033 A 
ATOM     12  C   UNL d   1      -0.358   5.200   2.569  0.00  0.00     0.087 A 
ATOM     13  C   UNL d   1      -1.239   3.725   1.008  0.00  0.00     0.024 A 
ATOM     14  S   UNL d   1      -2.033   5.300   2.868  0.00  0.00    -0.083 SA
ATOM     15  N   UNL d   1       0.507   5.923   3.299  0.00  0.00    -0.346 N 
ATOM     16  C   UNL d   1      -2.383   4.174   1.632  0.00  0.00     0.053 A 
ATOM     17  C   UNL d   1       1.775   5.730   2.931  0.00  0.00     0.182 A 
ATOM     18  HN  UNL d   1       0.226   6.550   4.053  1.00  0.00     0.167 HD
ATOM     19  N   UNL d   1       2.228   4.923   1.965  0.00  0.00    -0.345 N 
ATOM     20  HN  UNL d   1       3.226   4.855   1.765  1.00  0.00     0.167 HD
ENDBRANCH   9  10
ENDBRANCH   3   9
BRANCH   1  21
ATOM     21  C   UNL d   1       5.923  -1.252   1.375  0.00  0.00     0.032 A 
ATOM     22  C   UNL d   1       4.945  -1.389   2.367  0.00  0.00     0.017 A 
ATOM     23  C   UNL d   1       5.274  -1.931   3.610  0.00  0.00     0.007 A 
ATOM     24  C   UNL d   1       6.564  -2.415   3.852  0.00  0.00    -0.062 A 
ATOM     25  C   UNL d   1       7.518  -2.356   2.828  0.00  0.00     0.007 A 
ATOM     26  C   UNL d   1       6.910  -2.954   5.209  0.00  0.00     0.048 C 
ATOM     27  C   UNL d   1       7.199  -1.778   1.593  0.00  0.00     0.017 A 
ENDBRANCH   1  21
TORSDOF 3
