REMARK  3 active torsions:
REMARK  status: ('A' for Active; 'I' for Inactive)
REMARK    1  A    between atoms: C_4  and  O_10 
REMARK    2  A    between atoms: C_6  and  C_4 
REMARK    3  A    between atoms: O_10  and  C_12 
ROOT
ATOM      1  C   UNL d   1      -0.619   2.164  -0.148  0.00  0.00     0.299 C 
ATOM      2  C   UNL d   1       1.397   0.754  -0.044  0.00  0.00     0.093 A 
ATOM      3  O   UNL d   1       0.761   1.998  -0.254  0.00  0.00    -0.274 OA
ATOM      4  C   UNL d   1       0.643  -0.400   0.170  0.00  0.00     0.009 A 
ATOM      5  C   UNL d   1      -0.815  -0.328   0.061  0.00  0.00    -0.007 A 
ATOM      6  C   UNL d   1      -1.433   0.926  -0.040  0.00  0.00     0.051 A 
ATOM      7  C   UNL d   1       2.796   0.750  -0.027  0.00  0.00     0.075 A 
ATOM      8  C   UNL d   1       1.346  -1.565   0.506  0.00  0.00     0.018 A 
ATOM      9  C   UNL d   1       3.467  -0.440   0.255  0.00  0.00     0.082 A 
ATOM     10  O   UNL d   1      -1.135   3.273  -0.188  0.00  0.00    -0.259 OA
ATOM     11  C   UNL d   1       2.744  -1.587   0.558  0.00  0.00     0.038 A 
ATOM     12  C   UNL d   1      -1.640  -1.468   0.034  0.00  0.00     0.013 A 
ATOM     13  C   UNL d   1      -2.835   1.036  -0.075  0.00  0.00     0.018 A 
ATOM     14  C   UNL d   1      -3.032  -1.361  -0.022  0.00  0.00     0.001 A 
ATOM     15  C   UNL d   1      -3.631  -0.108  -0.055  0.00  0.00     0.001 A 
ENDROOT
BRANCH   9  16
ATOM     16  O   UNL d   1       4.881  -0.388   0.204  0.00  0.00    -0.275 OA
BRANCH  16  17
ATOM     17  C   UNL d   1       5.728  -1.491   0.255  0.00  0.00     0.300 C 
ATOM     18  O   UNL d   1       5.445  -2.645   0.537  0.00  0.00    -0.259 OA
BRANCH  17  19
ATOM     19  C   UNL d   1       7.122  -1.057   0.028  0.00  0.00     0.061 A 
ATOM     20  C   UNL d   1       7.505  -0.185  -0.998  0.00  0.00     0.050 A 
ATOM     21 CL   UNL d   1       6.414   0.403  -2.202  0.00  0.00    -0.083 Cl
ATOM     22  C   UNL d   1       8.848   0.194  -1.118  0.00  0.00     0.025 A 
ATOM     23  C   UNL d   1       9.809  -0.314  -0.241  0.00  0.00     0.002 A 
ATOM     24  C   UNL d   1       9.439  -1.224   0.746  0.00  0.00     0.001 A 
ATOM     25  C   UNL d   1       8.101  -1.600   0.878  0.00  0.00     0.019 A 
ENDBRANCH  17  19
ENDBRANCH  16  17
ENDBRANCH   9  16
TORSDOF 3
