REMARK  2 active torsions:
REMARK  status: ('A' for Active; 'I' for Inactive)
REMARK    1  A    between atoms: C_9  and  C_1 
REMARK    2  A    between atoms: O_8  and  C_4 
ROOT
ATOM      1  C   UNL d   1      -1.377  -1.489  -0.012  0.00  0.00     0.044 A 
ATOM      2  C   UNL d   1      -1.940  -0.098  -0.043  0.00  0.00     0.256 A 
ATOM      3  N   UNL d   1      -1.056   0.972  -0.016  0.00  0.00    -0.317 N 
ATOM      4  C   UNL d   1      -0.044  -1.665  -0.012  0.00  0.00     0.089 A 
ATOM      5  C   UNL d   1       0.876  -0.515  -0.022  0.00  0.00     0.025 A 
ATOM      6  C   UNL d   1       0.357   0.788  -0.011  0.00  0.00     0.050 A 
ATOM      7  O   UNL d   1      -3.163   0.047  -0.082  0.00  0.00    -0.267 OA
ATOM      8  C   UNL d   1      -1.608   2.319  -0.001  0.00  0.00     0.159 C 
ATOM      9  C   UNL d   1       2.271  -0.699  -0.022  0.00  0.00     0.016 A 
ATOM     10  C   UNL d   1       1.245   1.878   0.005  0.00  0.00     0.031 A 
ATOM     11  C   UNL d   1       3.142   0.390  -0.008  0.00  0.00     0.001 A 
ATOM     12  C   UNL d   1       2.627   1.680   0.007  0.00  0.00     0.002 A 
ENDROOT
BRANCH   1  13
ATOM     13  C   UNL d   1      -2.404  -2.595   0.095  0.00  0.00     0.043 C 
ATOM     14  C   UNL d   1      -2.937  -3.055  -1.255  0.00  0.00     0.010 C 
ENDBRANCH   1  13
BRANCH   4  15
ATOM     15  O   UNL d   1       0.571  -2.901   0.014  0.00  0.00    -0.359 OA
ATOM     16  H   UNL d   1      -0.097  -3.601  -0.053  0.00  0.00     0.217 HD
ENDBRANCH   4  15
TORSDOF 2
