REMARK  4 active torsions:
REMARK  status: ('A' for Active; 'I' for Inactive)
REMARK    1  A    between atoms: C_6  and  N_1 
REMARK    2  A    between atoms: C_5  and  C_2 
REMARK    3  A    between atoms: C_11  and  C_6 
REMARK    4  A    between atoms: O_18  and  C_13 
ROOT
ATOM      1  N   UNL d   1      -0.571  -1.260   0.213  0.00  0.00    -0.330 N 
ATOM      2  C   UNL d   1       0.805  -1.384  -0.223  0.00  0.00     0.184 C 
ATOM      3  S   UNL d   1       1.458   0.298  -0.391  0.00  0.00    -0.129 SA
ATOM      4  C   UNL d   1      -1.125   0.009   0.219  0.00  0.00     0.230 C 
ATOM      5  C   UNL d   1      -0.159   1.074  -0.243  0.00  0.00     0.179 C 
ATOM      6  O   UNL d   1      -2.282   0.263   0.532  0.00  0.00    -0.272 OA
ENDROOT
BRANCH   1   7
ATOM      7  C   UNL d   1      -1.423  -2.437   0.352  0.00  0.00     0.166 C 
BRANCH   7   8
ATOM      8  C   UNL d   1      -2.178  -2.756  -0.917  0.00  0.00    -0.040 A 
ATOM      9  C   UNL d   1      -1.614  -3.561  -1.915  0.00  0.00     0.011 A 
ATOM     10  C   UNL d   1      -2.302  -3.794  -3.111  0.00  0.00     0.037 A 
ATOM     11  C   UNL d   1      -3.556  -3.219  -3.323  0.00  0.00     0.068 A 
ATOM     12  C   UNL d   1      -4.144  -2.459  -2.316  0.00  0.00     0.037 A 
ATOM     13  C   UNL d   1      -3.457  -2.220  -1.125  0.00  0.00     0.011 A 
BRANCH  11  14
ATOM     14  O   UNL d   1      -4.299  -3.372  -4.461  0.00  0.00    -0.356 OA
ATOM     15  C   UNL d   1      -3.535  -3.412  -5.662  0.00  0.00     0.210 C 
ENDBRANCH  11  14
ENDBRANCH   7   8
ENDBRANCH   1   7
BRANCH   2  16
ATOM     16  C   UNL d   1       1.684  -2.203   0.693  0.00  0.00    -0.010 A 
ATOM     17  C   UNL d   1       2.784  -2.882   0.173  0.00  0.00     0.097 A 
ATOM     18  N   UNL d   1       3.622  -3.654   0.902  0.00  0.00    -0.375 N 
ATOM     19  C   UNL d   1       3.372  -3.743   2.225  0.00  0.00     0.087 A 
ATOM     20  HN  UNL d   1       4.406  -4.146   0.472  1.00  0.00     0.164 HD
ATOM     21  C   UNL d   1       2.326  -3.090   2.852  0.00  0.00     0.018 A 
ATOM     22  C   UNL d   1       1.479  -2.301   2.076  0.00  0.00     0.013 A 
ENDBRANCH   2  16
TORSDOF 4
