REMARK  5 active torsions:
REMARK  status: ('A' for Active; 'I' for Inactive)
REMARK    1  A    between atoms: N_2  and  S_1 
REMARK    2  A    between atoms: C_3  and  S_1 
REMARK    3  A    between atoms: N_4  and  C_11 
REMARK    4  A    between atoms: O_6  and  C_5 
REMARK    5  A    between atoms: C_15  and  O_6 
ROOT
ATOM      1  C   UNL d   1       0.294   0.300   1.770  0.00  0.00     0.078 C 
ATOM      2  C   UNL d   1      -0.755   0.616   4.347  0.00  0.00     0.119 C 
ATOM      3  C   UNL d   1      -1.017  -0.551   3.612  0.00  0.00     0.071 C 
ATOM      4  C   UNL d   1      -0.069   1.670   3.725  0.00  0.00     0.071 C 
ATOM      5  C   UNL d   1       0.441   1.521   2.433  0.00  0.00     0.051 C 
ATOM      6  C   UNL d   1      -0.460  -0.727   2.341  0.00  0.00     0.051 C 
ATOM      7 CL   UNL d   1      -2.054  -1.807   4.194  0.00  0.00    -0.081 Cl
ATOM      8 CL   UNL d   1       0.178   3.182   4.523  0.00  0.00    -0.081 Cl
ENDROOT
BRANCH   1   9
ATOM      9  S   UNL d   1       0.924   0.113   0.116  0.00  0.00     0.243 S 
ATOM     10  O   UNL d   1       0.193  -0.968  -0.502  0.00  0.00    -0.206 OA
ATOM     11  O   UNL d   1       0.938   1.430  -0.483  0.00  0.00    -0.206 OA
BRANCH   9  12
ATOM     12  N   UNL d   1       2.535  -0.410   0.334  0.00  0.00    -0.202 NA
ATOM     13  C   UNL d   1       3.478   0.465   1.101  0.00  0.00     0.139 C 
ATOM     14  C   UNL d   1       3.958   1.653   0.253  0.00  0.00     0.132 C 
ATOM     15  C   UNL d   1       4.930   2.527   1.036  0.00  0.00     0.041 C 
ATOM     16  O   UNL d   1       4.640   1.172  -0.914  0.00  0.00    -0.379 OA
ATOM     17  C   UNL d   1       3.777   0.358  -1.732  0.00  0.00     0.132 C 
ATOM     18  C   UNL d   1       3.214  -0.845  -0.942  0.00  0.00     0.139 C 
ATOM     19  C   UNL d   1       4.616  -0.115  -2.914  0.00  0.00     0.041 C 
ENDBRANCH   9  12
ENDBRANCH   1   9
BRANCH   2  20
ATOM     20  O   UNL d   1      -1.182   0.814   5.644  0.00  0.00    -0.306 OA
BRANCH  20  21
ATOM     21  C   UNL d   1      -0.833  -0.113   6.610  0.00  0.00     0.098 A 
ATOM     22  C   UNL d   1      -1.665  -0.222   7.735  0.00  0.00     0.070 A 
ATOM     23  C   UNL d   1      -1.443  -1.217   8.692  0.00  0.00     0.062 A 
ATOM     24 CL   UNL d   1      -3.002   0.848   7.968  0.00  0.00    -0.081 Cl
ATOM     25  C   UNL d   1      -0.376  -2.105   8.519  0.00  0.00     0.104 A 
ATOM     26  C   UNL d   1       0.503  -1.964   7.438  0.00  0.00     0.039 A 
ATOM     27  C   UNL d   1       0.288  -0.949   6.502  0.00  0.00     0.041 A 
BRANCH  25  28
ATOM     28  N   UNL d   1      -0.180  -3.205   9.471  0.00  0.00    -0.116 N 
ATOM     29  O   UNL d   1      -0.912  -3.240  10.469  0.00  0.00    -0.532 OA
ATOM     30  O   UNL d   1       0.703  -4.035   9.214  0.00  0.00    -0.532 OA
ENDBRANCH  25  28
ENDBRANCH  20  21
ENDBRANCH   2  20
TORSDOF 5
