REMARK  0 active torsions:
REMARK  status: ('A' for Active; 'I' for Inactive)
ROOT
ATOM      1  N   UNL d   1      -2.400   1.357  -0.003  0.00  0.00    -0.289 N 
ATOM      2  N   UNL d   1      -3.609  -0.670  -0.001  0.00  0.00    -0.270 N 
ATOM      3  C   UNL d   1      -3.630   0.720  -0.001  0.00  0.00     0.332 A 
ATOM      4  C   UNL d   1      -1.178   0.655  -0.002  0.00  0.00     0.127 A 
ATOM      5  C   UNL d   1      -1.185  -0.723   0.001  0.00  0.00     0.077 A 
ATOM      6  C   UNL d   1      -2.458  -1.440  -0.000  0.00  0.00     0.265 A 
ATOM      7  N   UNL d   1      -0.014   1.361  -0.003  0.00  0.00    -0.341 N 
ATOM      8  HN  UNL d   1      -0.031   2.381  -0.004  1.00  0.00     0.167 HD
ATOM      9  C   UNL d   1       0.024  -1.418   0.002  0.00  0.00     0.034 A 
ATOM     10  C   UNL d   1       1.160   0.700  -0.001  0.00  0.00     0.045 A 
ATOM     11  C   UNL d   1       1.225  -0.709   0.001  0.00  0.00    -0.007 A 
ATOM     12  C   UNL d   1       2.356   1.406  -0.002  0.00  0.00     0.056 A 
ATOM     13  C   UNL d   1       3.595   0.753  -0.001  0.00  0.00     0.058 A 
ATOM     14  C   UNL d   1       3.650  -0.642   0.001  0.00  0.00     0.056 A 
ATOM     15  C   UNL d   1       2.462  -1.372   0.002  0.00  0.00     0.039 A 
ATOM     16  O   UNL d   1      -4.688   1.351  -0.000  0.00  0.00    -0.246 OA
ATOM     17  O   UNL d   1      -2.450  -2.669  -0.001  0.00  0.00    -0.267 OA
ATOM     18  C   UNL d   1      -2.341   2.811  -0.007  0.00  0.00     0.163 C 
ATOM     19  C   UNL d   1      -4.867  -1.394  -0.004  0.00  0.00     0.164 C 
ATOM     20 CL   UNL d   1       5.021   1.729  -0.002  0.00  0.00    -0.082 Cl
ATOM     21 CL   UNL d   1       5.135  -1.521   0.002  0.00  0.00    -0.083 Cl
ENDROOT
TORSDOF 0
