REMARK  5 active torsions:
REMARK  status: ('A' for Active; 'I' for Inactive)
REMARK    1  A    between atoms: C_4  and  N_1 
REMARK    2  A    between atoms: C_9  and  C_2 
REMARK    3  A    between atoms: C_15  and  C_3 
REMARK       I    between atoms: N_23  and  C_15 
REMARK       I    between atoms: C_16  and  N_22 
REMARK    4  A    between atoms: C_21  and  C_16 
REMARK    5  A    between atoms: N_22  and  N_23 
ROOT
ATOM      1  N   UNL d   1       1.517  -1.438  -0.403  0.00  0.00    -0.233 N 
ATOM      2  C   UNL d   1       1.520  -0.062  -0.397  0.00  0.00     0.159 C 
ATOM      3  C   UNL d   1       0.213   0.334  -0.637  0.00  0.00     0.084 C 
ATOM      4  N   UNL d   1       0.419  -1.927  -1.025  0.00  0.00    -0.302 N 
ATOM      5  HN  UNL d   1       0.261  -2.867  -1.389  1.00  0.00     0.186 HD
ATOM      6  C   UNL d   1      -0.409  -0.874  -1.047  0.00  0.00     0.127 C 
ENDROOT
BRANCH   1   7
ATOM      7  C   UNL d   1       2.423  -2.264   0.300  0.00  0.00     0.144 A 
ATOM      8  C   UNL d   1       2.880  -3.486  -0.181  0.00  0.00     0.072 A 
ATOM      9  C   UNL d   1       3.875  -4.089   0.571  0.00  0.00     0.138 A 
ATOM     10  C   UNL d   1       2.726  -4.334  -1.297  0.00  0.00     0.126 A 
ATOM     11  N   UNL d   1       4.303  -5.161  -0.160  0.00  0.00    -0.281 N 
ATOM     12  N   UNL d   1       4.373  -3.670   1.748  0.00  0.00    -0.337 N 
ATOM     13  C   UNL d   1       5.472  -5.957   0.123  0.00  0.00     0.179 C 
ATOM     14  N   UNL d   1       3.588  -5.361  -1.291  0.00  0.00    -0.307 N 
ATOM     15  HN  UNL d   1       3.682  -6.112  -1.974  1.00  0.00     0.186 HD
ATOM     16  C   UNL d   1       3.826  -2.514   2.140  0.00  0.00     0.183 A 
ATOM     17  HN  UNL d   1       5.084  -4.173   2.279  1.00  0.00     0.168 HD
ATOM     18  N   UNL d   1       2.927  -1.775   1.471  0.00  0.00    -0.336 N 
ATOM     19  HN  UNL d   1       2.628  -0.868   1.828  1.00  0.00     0.168 HD
ENDBRANCH   1   7
BRANCH   2  20
ATOM     20  C   UNL d   1       2.776   0.658  -0.166  0.00  0.00     0.435 C 
ATOM     21  F   UNL d   1       3.873  -0.023  -0.574  0.00  0.00    -0.165 F 
ATOM     22  F   UNL d   1       2.781   1.821  -0.872  0.00  0.00    -0.165 F 
ATOM     23  F   UNL d   1       2.945   1.009   1.127  0.00  0.00    -0.165 F 
ENDBRANCH   2  20
BRANCH   3  24
ATOM     24  C   UNL d   1      -0.420   1.644  -0.533  0.00  0.00     0.273 C 
ATOM     25  N   UNL d   1       0.384   2.694  -0.130  0.00  0.00    -0.263 N 
ATOM     26  H   UNL d   1       1.379   2.637   0.050  0.00  0.00     0.190 HD
ATOM     27  O   UNL d   1      -1.617   1.794  -0.761  0.00  0.00    -0.266 OA
BRANCH  25  28
ATOM     28  N   UNL d   1      -0.186   3.953   0.090  0.00  0.00    -0.261 N 
ATOM     29  C   UNL d   1       0.531   4.894   0.810  0.00  0.00     0.293 C 
ATOM     30  O   UNL d   1       1.680   4.675   1.193  0.00  0.00    -0.264 OA
ATOM     31  H   UNL d   1      -1.168   4.093  -0.146  0.00  0.00     0.190 HD
BRANCH  29  32
ATOM     32  C   UNL d   1      -0.186   6.125   1.057  0.00  0.00     0.144 A 
ATOM     33  O   UNL d   1      -1.446   6.285   0.541  0.00  0.00    -0.317 OA
ATOM     34  C   UNL d   1      -1.875   7.520   0.907  0.00  0.00     0.143 A 
ATOM     35  C   UNL d   1      -0.918   8.161   1.657  0.00  0.00     0.027 A 
ATOM     36  C   UNL d   1       0.172   7.263   1.756  0.00  0.00     0.045 A 
ENDBRANCH  29  32
ENDBRANCH  25  28
ENDBRANCH   3  24
TORSDOF 5
