REMARK  1 active torsions:
REMARK  status: ('A' for Active; 'I' for Inactive)
REMARK    1  A    between atoms: N_7  and  C_3 
ROOT
ATOM      1  C   UNL d   1       2.258  -0.674  -0.727  0.00  0.00     0.008 C 
ATOM      2  C   UNL d   1       1.217  -1.412   0.037  0.00  0.00     0.190 C 
ATOM      3  C   UNL d   1       2.595  -1.207  -1.915  0.00  0.00     0.095 C 
ATOM      4  C   UNL d   1      -0.130  -0.785   0.072  0.00  0.00     0.021 A 
ATOM      5  O   UNL d   1       1.415  -2.529   0.500  0.00  0.00    -0.287 OA
ATOM      6  C   UNL d   1      -0.355   0.573   0.369  0.00  0.00    -0.044 A 
ATOM      7  C   UNL d   1       2.847   0.524  -0.064  0.00  0.00     0.044 C 
ATOM      8  C   UNL d   1      -1.206  -1.622  -0.263  0.00  0.00     0.016 A 
ATOM      9  C   UNL d   1       1.889   1.708  -0.073  0.00  0.00     0.009 C 
ATOM     10  C   UNL d   1       0.718   1.503   0.882  0.00  0.00     0.040 C 
ATOM     11  C   UNL d   1      -1.667   1.070   0.262  0.00  0.00     0.008 A 
ATOM     12  C   UNL d   1      -2.498  -1.109  -0.359  0.00  0.00     0.001 A 
ATOM     13  C   UNL d   1      -2.725   0.241  -0.111  0.00  0.00     0.001 A 
ENDROOT
BRANCH   3  14
ATOM     14  N   UNL d   1       3.448  -0.758  -2.915  0.00  0.00    -0.398 N 
ATOM     15  C   UNL d   1       3.716   0.650  -3.196  0.00  0.00     0.148 C 
ATOM     16  C   UNL d   1       4.029  -1.683  -3.889  0.00  0.00     0.148 C 
ENDBRANCH   3  14
TORSDOF 1
