REMARK  3 active torsions:
REMARK  status: ('A' for Active; 'I' for Inactive)
REMARK    1  A    between atoms: S_2  and  N_1 
REMARK    2  A    between atoms: C_15  and  S_2 
REMARK    3  A    between atoms: N_7  and  C_5 
ROOT
ATOM      1  N   UNL d   1       1.596  -1.075   0.062  0.00  0.00    -0.174 N 
ATOM      2  N   UNL d   1       2.395   0.024  -0.045  0.00  0.00    -0.267 N 
ATOM      3  HN  UNL d   1       3.412   0.052  -0.121  1.00  0.00     0.190 HD
ATOM      4  C   UNL d   1       1.546   1.057  -0.027  0.00  0.00     0.143 A 
ATOM      5  C   UNL d   1       0.193   0.635  -0.078  0.00  0.00     0.078 A 
ATOM      6  C   UNL d   1       0.244  -0.766  -0.003  0.00  0.00     0.086 A 
ATOM      7  C   UNL d   1      -1.070   1.244  -0.217  0.00  0.00     0.132 A 
ATOM      8  C   UNL d   1      -0.932  -1.543   0.012  0.00  0.00     0.033 A 
ATOM      9  F   UNL d   1      -1.183   2.562  -0.424  0.00  0.00    -0.205 F 
ATOM     10  C   UNL d   1      -2.169  -0.892  -0.042  0.00  0.00     0.005 A 
ATOM     11  C   UNL d   1      -2.240   0.488  -0.165  0.00  0.00     0.043 A 
ENDROOT
BRANCH   1  12
ATOM     12  S   UNL d   1       2.215  -2.702   0.048  0.00  0.00     0.282 S 
ATOM     13  O   UNL d   1       3.553  -2.632   0.606  0.00  0.00    -0.198 OA
ATOM     14  O   UNL d   1       1.194  -3.546   0.653  0.00  0.00    -0.198 OA
BRANCH  12  15
ATOM     15  C   UNL d   1       2.360  -3.102  -1.669  0.00  0.00     0.081 A 
ATOM     16  C   UNL d   1       3.286  -2.409  -2.455  0.00  0.00     0.025 A 
ATOM     17  C   UNL d   1       3.435  -2.748  -3.801  0.00  0.00     0.002 A 
ATOM     18  C   UNL d   1       2.669  -3.777  -4.351  0.00  0.00     0.000 A 
ATOM     19  C   UNL d   1       1.758  -4.477  -3.558  0.00  0.00     0.002 A 
ATOM     20  C   UNL d   1       1.603  -4.144  -2.211  0.00  0.00     0.025 A 
ENDBRANCH  12  15
ENDBRANCH   1  12
BRANCH   4  21
ATOM     21  N   UNL d   1       2.094   2.393   0.049  0.00  0.00    -0.304 N 
ATOM     22  C   UNL d   1       1.560   3.487   0.745  0.00  0.00     0.014 A 
ATOM     23  C   UNL d   1       2.364   4.589   0.524  0.00  0.00     0.027 A 
ATOM     24  C   UNL d   1       0.395   3.459   1.675  0.00  0.00     0.068 C 
ATOM     25  C   UNL d   1       3.460   4.175  -0.240  0.00  0.00     0.027 A 
ATOM     26  C   UNL d   1       3.304   2.829  -0.513  0.00  0.00     0.014 A 
ATOM     27  C   UNL d   1       4.239   2.006  -1.335  0.00  0.00     0.068 C 
ENDBRANCH   4  21
TORSDOF 3
