REMARK  6 active torsions:
REMARK  status: ('A' for Active; 'I' for Inactive)
REMARK    1  A    between atoms: C_5  and  C_1 
REMARK    2  A    between atoms: N_11  and  C_2 
REMARK    3  A    between atoms: O_16  and  C_5 
REMARK    4  A    between atoms: C_14  and  N_11 
REMARK    5  A    between atoms: O_17  and  C_12 
REMARK    6  A    between atoms: O_18  and  C_13 
ROOT
ATOM      1  C   UNL d   1       1.094  -5.064  -0.182  0.00  0.00     0.139 C 
ATOM      2  C   UNL d   1       0.372  -6.152  -0.752  0.00  0.00     0.112 C 
ATOM      3  C   UNL d   1       2.244  -5.339   0.604  0.00  0.00     0.112 C 
ATOM      4  N   UNL d   1       3.181  -5.543   1.259  0.00  0.00    -0.191 NA
ATOM      5  N   UNL d   1      -0.230  -7.019  -1.230  0.00  0.00    -0.191 NA
ATOM      6  C   UNL d   1       0.656  -3.804  -0.373  0.00  0.00     0.122 C 
ENDROOT
BRANCH   6   7
ATOM      7  N   UNL d   1       1.208  -2.610   0.033  0.00  0.00    -0.363 N 
ATOM      8  H   UNL d   1       2.170  -2.624   0.386  0.00  0.00     0.165 HD
BRANCH   7   9
ATOM      9  C   UNL d   1       0.632  -1.316   0.011  0.00  0.00     0.051 A 
ATOM     10  C   UNL d   1       1.423  -0.146  -0.061  0.00  0.00     0.069 A 
ATOM     11  C   UNL d   1       0.796   1.113  -0.064  0.00  0.00     0.059 A 
ATOM     12  C   UNL d   1      -0.593   1.242  -0.013  0.00  0.00     0.102 A 
ATOM     13  C   UNL d   1      -1.396   0.097  -0.025  0.00  0.00     0.103 A 
ATOM     14  C   UNL d   1      -0.774  -1.162  -0.002  0.00  0.00     0.070 A 
BRANCH  10  15
ATOM     15  C   UNL d   1       2.915  -0.101  -0.177  0.00  0.00     0.295 C 
ATOM     16  O   UNL d   1       3.528   0.941  -0.359  0.00  0.00    -0.259 OA
BRANCH  15  17
ATOM     17  O   UNL d   1       3.489  -1.327  -0.070  0.00  0.00    -0.322 OA
ATOM     18  C   UNL d   1       4.913  -1.324  -0.240  0.00  0.00     0.213 C 
ENDBRANCH  15  17
ENDBRANCH  10  15
BRANCH  12  19
ATOM     19  O   UNL d   1      -1.027   2.543  -0.021  0.00  0.00    -0.353 OA
ATOM     20  C   UNL d   1      -2.173   2.820   0.778  0.00  0.00     0.210 C 
ENDBRANCH  12  19
BRANCH  13  21
ATOM     21  O   UNL d   1      -2.749   0.283  -0.084  0.00  0.00    -0.353 OA
ATOM     22  C   UNL d   1      -3.595  -0.855  -0.163  0.00  0.00     0.210 C 
ENDBRANCH  13  21
ENDBRANCH   7   9
ENDBRANCH   6   7
TORSDOF 6
