REMARK  4 active torsions:
REMARK  status: ('A' for Active; 'I' for Inactive)
REMARK    1  A    between atoms: N_6  and  C_1 
REMARK    2  A    between atoms: C_5  and  N_8 
REMARK    3  A    between atoms: N_10  and  C_5 
REMARK    4  A    between atoms: C_15  and  N_10 
ROOT
ATOM      1  N   UNL d   1      -4.559   0.161  -0.012  0.00  0.00    -0.360 N 
ATOM      2  N   UNL d   1      -6.944   1.874   0.609  0.00  0.00    -0.356 N 
ATOM      3  C   UNL d   1      -5.320   0.813  -1.080  0.00  0.00     0.145 C 
ATOM      4  C   UNL d   1      -6.088   2.051  -0.584  0.00  0.00     0.145 C 
ATOM      5  C   UNL d   1      -5.665   0.343   2.190  0.00  0.00     0.040 C 
ATOM      6  C   UNL d   1      -5.349  -0.542   0.990  0.00  0.00     0.126 C 
ATOM      7  C   UNL d   1      -6.243   1.732   1.891  0.00  0.00     0.127 C 
ENDROOT
BRANCH   1   8
ATOM      8  C   UNL d   1      -3.192   0.215  -0.001  0.00  0.00     0.147 A 
ATOM      9  N   UNL d   1      -2.482   0.919  -0.856  0.00  0.00    -0.336 N 
ATOM     10  C   UNL d   1      -1.121   0.773  -0.624  0.00  0.00     0.051 A 
ATOM     11  HN  UNL d   1      -2.881   1.497  -1.595  1.00  0.00     0.168 HD
ATOM     12  C   UNL d   1      -0.080   1.383  -1.352  0.00  0.00     0.032 A 
ATOM     13  C   UNL d   1      -0.785  -0.059   0.441  0.00  0.00     0.036 A 
ATOM     14  C   UNL d   1       1.257   1.150  -0.995  0.00  0.00     0.026 A 
ATOM     15  C   UNL d   1       1.556   0.313   0.073  0.00  0.00     0.035 A 
ATOM     16  C   UNL d   1       0.548  -0.310   0.810  0.00  0.00     0.045 A 
ATOM     17 CL   UNL d   1       3.201   0.040   0.506  0.00  0.00    -0.084 Cl
ATOM     18  S   UNL d   1      -2.224  -0.655   1.149  0.00  0.00    -0.052 SA
ENDBRANCH   1   8
BRANCH   2  19
ATOM     19  C   UNL d   1      -8.292   1.643   0.502  0.00  0.00     0.174 C 
ATOM     20  S   UNL d   1      -8.960   0.435  -0.454  0.00  0.00    -0.041 SA
BRANCH  19  21
ATOM     21  N   UNL d   1      -9.169   2.393   1.231  0.00  0.00    -0.333 N 
ATOM     22  H   UNL d   1     -10.108   2.003   1.212  0.00  0.00     0.168 HD
BRANCH  21  23
ATOM     23  C   UNL d   1      -9.065   3.676   1.811  0.00  0.00     0.035 A 
ATOM     24  C   UNL d   1      -7.964   4.519   1.670  0.00  0.00     0.053 A 
ATOM     25  C   UNL d   1      -7.927   5.747   2.334  0.00  0.00     0.036 A 
ATOM     26 CL   UNL d   1      -6.527   6.741   2.201  0.00  0.00    -0.084 Cl
ATOM     27  C   UNL d   1      -9.003   6.171   3.107  0.00  0.00     0.024 A 
ATOM     28  C   UNL d   1     -10.139   5.372   3.195  0.00  0.00     0.004 A 
ATOM     29  C   UNL d   1     -10.171   4.133   2.546  0.00  0.00     0.029 A 
ENDBRANCH  21  23
ENDBRANCH  19  21
ENDBRANCH   2  19
TORSDOF 4
