REMARK  5 active torsions:
REMARK  status: ('A' for Active; 'I' for Inactive)
REMARK    1  A    between atoms: C_2  and  C_1 
REMARK    2  A    between atoms: C_5  and  C_9 
REMARK    3  A    between atoms: C_18  and  C_10 
REMARK    4  A    between atoms: S_14  and  C_18 
REMARK    5  A    between atoms: C_21  and  S_14 
ROOT
ATOM      1  C   UNL d   1       0.185  -1.145  -0.053  0.00  0.00     0.088 C 
ATOM      2  N   UNL d   1       1.356  -0.575  -0.272  0.00  0.00    -0.352 N 
ATOM      3  HN  UNL d   1       2.195  -1.075  -0.566  1.00  0.00     0.166 HD
ATOM      4  S   UNL d   1      -1.058  -0.037   0.402  0.00  0.00    -0.081 SA
ATOM      5  C   UNL d   1       1.298   0.796  -0.049  0.00  0.00     0.026 C 
ATOM      6  C   UNL d   1       0.021   1.271   0.196  0.00  0.00     0.077 C 
ENDROOT
BRANCH   1   7
ATOM      7  C   UNL d   1      -0.051  -2.604  -0.083  0.00  0.00     0.041 A 
ATOM      8  C   UNL d   1       0.868  -3.483   0.535  0.00  0.00     0.049 A 
ATOM      9  C   UNL d   1       0.689  -4.877   0.502  0.00  0.00     0.041 A 
ATOM     10 CL   UNL d   1       2.264  -2.938   1.411  0.00  0.00    -0.083 Cl
ATOM     11  C   UNL d   1      -0.420  -5.447  -0.127  0.00  0.00     0.051 A 
ATOM     12  C   UNL d   1      -1.341  -4.592  -0.738  0.00  0.00     0.041 A 
ATOM     13  C   UNL d   1      -1.153  -3.198  -0.737  0.00  0.00     0.049 A 
ATOM     14 CL   UNL d   1      -2.329  -2.307  -1.648  0.00  0.00    -0.083 Cl
BRANCH  11  15
ATOM     15  C   UNL d   1      -0.593  -6.945  -0.157  0.00  0.00     0.417 C 
ATOM     16  F   UNL d   1      -1.754  -7.344  -0.745  0.00  0.00    -0.166 F 
ATOM     17  F   UNL d   1       0.407  -7.565  -0.839  0.00  0.00    -0.166 F 
ATOM     18  F   UNL d   1      -0.596  -7.491   1.089  0.00  0.00    -0.166 F 
ENDBRANCH  11  15
ENDBRANCH   1   7
BRANCH   5  19
ATOM     19  C   UNL d   1       2.563   1.599  -0.096  0.00  0.00     0.137 C 
BRANCH  19  20
ATOM     20  S   UNL d   1       2.782   2.536   1.466  0.00  0.00    -0.124 SA
BRANCH  20  21
ATOM     21  C   UNL d   1       4.297   3.449   1.231  0.00  0.00     0.001 A 
ATOM     22  C   UNL d   1       5.131   3.352   0.110  0.00  0.00     0.020 A 
ATOM     23  C   UNL d   1       6.306   4.112   0.034  0.00  0.00     0.025 A 
ATOM     24  C   UNL d   1       6.656   4.967   1.074  0.00  0.00     0.034 A 
ATOM     25  C   UNL d   1       5.841   5.076   2.195  0.00  0.00     0.025 A 
ATOM     26 CL   UNL d   1       8.104   5.891   0.974  0.00  0.00    -0.084 Cl
ATOM     27  C   UNL d   1       4.668   4.319   2.269  0.00  0.00     0.020 A 
ENDBRANCH  20  21
ENDBRANCH  19  20
ENDBRANCH   5  19
TORSDOF 5
