REMARK  4 active torsions:
REMARK  status: ('A' for Active; 'I' for Inactive)
REMARK    1  A    between atoms: N_2  and  C_1 
REMARK    2  A    between atoms: C_6  and  N_2 
REMARK    3  A    between atoms: O_5  and  C_7 
REMARK    4  A    between atoms: C_8  and  O_5 
ROOT
ATOM      1  C   UNL d   1       1.013  -2.442   0.854  0.00  0.00     0.034 C 
ATOM      2  C   UNL d   1       2.217  -4.754   1.842  0.00  0.00     0.076 C 
ATOM      3  C   UNL d   1       1.972  -2.357   1.869  0.00  0.00     0.032 C 
ATOM      4  C   UNL d   1       0.554  -3.694   0.444  0.00  0.00     0.032 C 
ATOM      5  C   UNL d   1       2.544  -3.513   2.391  0.00  0.00     0.039 C 
ATOM      6  C   UNL d   1       1.176  -4.853   0.919  0.00  0.00     0.039 C 
ENDROOT
BRANCH   1   7
ATOM      7  N   UNL d   1       0.480  -1.296   0.237  0.00  0.00    -0.333 N 
ATOM      8  H   UNL d   1      -0.496  -1.345  -0.028  0.00  0.00     0.168 HD
BRANCH   7   9
ATOM      9  C   UNL d   1       1.048  -0.068   0.130  0.00  0.00     0.171 C 
ATOM     10  S   UNL d   1       0.088   1.297   0.082  0.00  0.00    -0.041 SA
ATOM     11  N   UNL d   1       2.389   0.065  -0.040  0.00  0.00    -0.371 N 
ATOM     12  C   UNL d   1       3.254  -0.893  -0.708  0.00  0.00     0.148 C 
ATOM     13  H   UNL d   1       2.686   1.032  -0.102  0.00  0.00     0.161 HD
ENDBRANCH   7   9
ENDBRANCH   1   7
BRANCH   2  14
ATOM     14  O   UNL d   1       2.871  -5.919   2.176  0.00  0.00    -0.311 OA
BRANCH  14  15
ATOM     15  C   UNL d   1       4.243  -5.884   2.340  0.00  0.00     0.076 A 
ATOM     16  C   UNL d   1       4.780  -6.839   3.204  0.00  0.00     0.037 A 
ATOM     17  C   UNL d   1       6.149  -6.846   3.479  0.00  0.00     0.003 A 
ATOM     18  C   UNL d   1       6.986  -5.898   2.888  0.00  0.00     0.000 A 
ATOM     19  C   UNL d   1       6.463  -4.974   1.988  0.00  0.00     0.003 A 
ATOM     20  C   UNL d   1       5.100  -4.987   1.688  0.00  0.00     0.037 A 
ENDBRANCH  14  15
ENDBRANCH   2  14
TORSDOF 4
