REMARK  5 active torsions:
REMARK  status: ('A' for Active; 'I' for Inactive)
REMARK    1  A    between atoms: C_6  and  N_1 
REMARK    2  A    between atoms: N_7  and  C_6 
REMARK    3  A    between atoms: C_13  and  C_6 
REMARK    4  A    between atoms: C_9  and  N_7 
REMARK    5  A    between atoms: C_17  and  C_13 
ROOT
ATOM      1  C   UNL d   1       1.978  -2.400  -0.211  0.00  0.00     0.183 C 
ENDROOT
BRANCH   1   2
ATOM      2  N   UNL d   1       1.480  -1.023  -0.065  0.00  0.00    -0.255 N 
ATOM      3  N   UNL d   1       2.193   0.029  -0.530  0.00  0.00    -0.018 NA
ATOM      4  N   UNL d   1       1.435   1.112  -0.422  0.00  0.00    -0.282 N 
ATOM      5  C   UNL d   1       0.217   0.729   0.070  0.00  0.00     0.074 A 
ATOM      6  HN  UNL d   1       1.711   2.064  -0.663  1.00  0.00     0.184 HD
ATOM      7  C   UNL d   1       0.226  -0.635   0.341  0.00  0.00     0.078 A 
ATOM      8  C   UNL d   1      -0.950   1.472   0.292  0.00  0.00     0.033 A 
ATOM      9  C   UNL d   1      -0.884  -1.315   0.858  0.00  0.00     0.033 A 
ATOM     10  C   UNL d   1      -2.044  -0.559   1.064  0.00  0.00     0.002 A 
ATOM     11  C   UNL d   1      -2.083   0.808   0.777  0.00  0.00     0.002 A 
ENDBRANCH   1   2
BRANCH   1  12
ATOM     12  N   UNL d   1       1.533  -2.980  -1.495  0.00  0.00    -0.256 NA
ATOM     13  H   UNL d   1       2.033  -2.573  -2.278  0.00  0.00     0.131 HD
BRANCH  12  14
ATOM     14  C   UNL d   1       1.489  -4.371  -1.572  0.00  0.00     0.081 A 
ATOM     15  N   UNL d   1       1.680  -5.114  -0.465  0.00  0.00    -0.357 N 
ATOM     16  C   UNL d   1       1.591  -6.459  -0.576  0.00  0.00     0.089 A 
ATOM     17  HN  UNL d   1       1.885  -4.675   0.432  1.00  0.00     0.166 HD
ATOM     18  C   UNL d   1       1.305  -7.120  -1.755  0.00  0.00     0.017 A 
ATOM     19  C   UNL d   1       1.086  -6.350  -2.888  0.00  0.00     0.005 A 
ATOM     20  C   UNL d   1       1.170  -4.963  -2.794  0.00  0.00     0.042 A 
ENDBRANCH  12  14
ENDBRANCH   1  12
BRANCH   1  21
ATOM     21  C   UNL d   1       3.522  -2.485  -0.103  0.00  0.00     0.042 C 
BRANCH  21  22
ATOM     22  C   UNL d   1       4.049  -2.085   1.278  0.00  0.00    -0.001 C 
ATOM     23  C   UNL d   1       5.567  -2.166   1.330  0.00  0.00     0.005 C 
ENDBRANCH  21  22
ENDBRANCH   1  21
TORSDOF 5
