REMARK  2 active torsions:
REMARK  status: ('A' for Active; 'I' for Inactive)
REMARK    1  A    between atoms: C_8  and  C_4 
REMARK    2  A    between atoms: C_9  and  C_10 
ROOT
ATOM      1  C   UNL d   1      -1.511   0.437  -0.020  0.00  0.00     0.147 A 
ATOM      2  N   UNL d   1      -1.427  -0.875   0.050  0.00  0.00    -0.335 N 
ATOM      3  HN  UNL d   1      -2.232  -1.495   0.133  1.00  0.00     0.168 HD
ATOM      4  C   UNL d   1      -0.105  -1.315  -0.004  0.00  0.00     0.057 A 
ATOM      5  S   UNL d   1       0.031   1.210  -0.117  0.00  0.00    -0.057 SA
ATOM      6  C   UNL d   1       0.834  -0.298  -0.040  0.00  0.00     0.010 A 
ATOM      7  N   UNL d   1      -2.685   1.124   0.000  0.00  0.00    -0.357 N 
ATOM      8  O   UNL d   1      -5.130   2.111  -1.073  0.00  0.00    -0.388 OA
ATOM      9  C   UNL d   1       2.324  -0.315  -0.008  0.00  0.00     0.059 C 
ATOM     10  C   UNL d   1      -3.947   0.442   0.302  0.00  0.00     0.151 C 
ATOM     11  C   UNL d   1      -2.827   2.542  -0.332  0.00  0.00     0.151 C 
ATOM     12  C   UNL d   1      -4.962   0.704  -0.822  0.00  0.00     0.187 C 
ATOM     13  C   UNL d   1      -3.874   2.702  -1.446  0.00  0.00     0.187 C 
ENDROOT
BRANCH   4  14
ATOM     14  C   UNL d   1       0.193  -2.752   0.028  0.00  0.00    -0.008 A 
ATOM     15  C   UNL d   1       1.303  -3.293  -0.621  0.00  0.00     0.014 A 
ATOM     16  C   UNL d   1       1.594  -4.661  -0.541  0.00  0.00     0.013 A 
ATOM     17  C   UNL d   1       0.759  -5.560   0.143  0.00  0.00    -0.023 A 
ATOM     18  C   UNL d   1      -0.384  -5.011   0.752  0.00  0.00     0.013 A 
ATOM     19  C   UNL d   1      -0.661  -3.631   0.701  0.00  0.00     0.014 A 
BRANCH  17  20
ATOM     20  C   UNL d   1       1.083  -7.008   0.214  0.00  0.00     0.013 A 
ATOM     21  C   UNL d   1       1.748  -7.685  -0.827  0.00  0.00     0.127 A 
ATOM     22  F   UNL d   1       2.079  -7.047  -1.961  0.00  0.00    -0.205 F 
ATOM     23  C   UNL d   1       2.088  -9.037  -0.742  0.00  0.00     0.043 A 
ATOM     24  C   UNL d   1       1.754  -9.767   0.391  0.00  0.00     0.003 A 
ATOM     25  C   UNL d   1       1.083  -9.137   1.435  0.00  0.00     0.001 A 
ATOM     26  C   UNL d   1       0.758  -7.776   1.350  0.00  0.00     0.015 A 
ENDBRANCH  17  20
ENDBRANCH   4  14
TORSDOF 2
