REMARK  3 active torsions:
REMARK  status: ('A' for Active; 'I' for Inactive)
REMARK    1  A    between atoms: C_16  and  N_13 
REMARK    2  A    between atoms: C_18  and  C_16 
REMARK    3  A    between atoms: C_17  and  C_18 
ROOT
ATOM      1  C   UNL d   1      -0.997   0.713  -0.018  0.00  0.00     0.160 A 
ATOM      2  C   UNL d   1      -0.970  -0.644   0.047  0.00  0.00     0.162 A 
ATOM      3  N   UNL d   1       0.162   1.449  -0.019  0.00  0.00    -0.287 N 
ATOM      4  N   UNL d   1       1.374  -0.619   0.040  0.00  0.00    -0.269 N 
ATOM      5  C   UNL d   1       1.397   0.791   0.018  0.00  0.00     0.332 A 
ATOM      6  C   UNL d   1       0.221  -1.409   0.067  0.00  0.00     0.282 A 
ATOM      7  N   UNL d   1      -2.272   1.187  -0.088  0.00  0.00    -0.174 N 
ATOM      8  HN  UNL d   1      -2.570   2.159  -0.169  1.00  0.00     0.186 HD
ATOM      9  N   UNL d   1      -2.279  -1.027   0.078  0.00  0.00    -0.182 N 
ATOM     10  C   UNL d   1      -3.036   0.116  -0.029  0.00  0.00     0.680 A 
ATOM     11  O   UNL d   1       2.455   1.425   0.034  0.00  0.00    -0.246 OA
ATOM     12  O   UNL d   1       0.219  -2.637   0.101  0.00  0.00    -0.265 OA
ATOM     13  N   UNL d   1      -4.378   0.019  -0.098  0.00  0.00    -0.226 N 
ATOM     14  C   UNL d   1       0.149   2.897  -0.024  0.00  0.00     0.163 C 
ATOM     15  C   UNL d   1       2.638  -1.329   0.059  0.00  0.00     0.164 C 
ATOM     16  H   UNL d   1      -2.630  -1.972   0.094  0.00  0.00     0.184 HD
ATOM     17  H   UNL d   1      -4.857  -0.615   0.534  0.00  0.00     0.177 HD
ENDROOT
BRANCH  13  18
ATOM     18  C   UNL d   1      -5.138   1.204  -0.497  0.00  0.00     0.142 C 
BRANCH  18  19
ATOM     19  C   UNL d   1      -6.642   0.956  -0.328  0.00  0.00     0.058 C 
BRANCH  19  20
ATOM     20  C   UNL d   1      -7.493   2.064  -0.898  0.00  0.00    -0.057 A 
ATOM     21  C   UNL d   1      -7.934   2.006  -2.228  0.00  0.00     0.007 A 
ATOM     22  C   UNL d   1      -8.738   3.019  -2.754  0.00  0.00     0.001 A 
ATOM     23  C   UNL d   1      -9.105   4.103  -1.958  0.00  0.00     0.000 A 
ATOM     24  C   UNL d   1      -8.660   4.179  -0.640  0.00  0.00     0.001 A 
ATOM     25  C   UNL d   1      -7.855   3.167  -0.112  0.00  0.00     0.007 A 
ENDBRANCH  19  20
ENDBRANCH  18  19
ENDBRANCH  13  18
TORSDOF 3
