REMARK  6 active torsions:
REMARK  status: ('A' for Active; 'I' for Inactive)
REMARK    1  A    between atoms: N_4  and  C_1 
REMARK    2  A    between atoms: S_9  and  C_1 
REMARK    3  A    between atoms: C_10  and  N_2 
REMARK    4  A    between atoms: C_14  and  N_4 
REMARK    5  A    between atoms: C_5  and  C_6 
REMARK    6  A    between atoms: C_13  and  C_14 
ROOT
ATOM      1  C   UNL d   1      -0.077  -1.008   0.513  0.00  0.00     0.140 C 
ATOM      2  N   UNL d   1       0.205  -1.014  -0.760  0.00  0.00    -0.337 N 
ATOM      3  HN  UNL d   1      -0.057  -0.179  -1.284  1.00  0.00     0.168 HD
ENDROOT
BRANCH   1   4
ATOM      4  N   UNL d   1      -0.649   0.146   0.993  0.00  0.00    -0.366 N 
ATOM      5  H   UNL d   1      -0.696   0.839   0.259  0.00  0.00     0.161 HD
BRANCH   4   6
ATOM      6  C   UNL d   1      -0.470   0.694   2.316  0.00  0.00     0.161 C 
BRANCH   6   7
ATOM      7  C   UNL d   1      -1.762   0.626   3.078  0.00  0.00    -0.025 A 
ATOM      8  C   UNL d   1      -1.913  -0.235   4.160  0.00  0.00     0.096 A 
ATOM      9  N   UNL d   1      -3.050  -0.354   4.884  0.00  0.00    -0.375 N 
ATOM     10  C   UNL d   1      -4.091   0.419   4.511  0.00  0.00     0.087 A 
ATOM     11  HN  UNL d   1      -3.116  -0.997   5.674  1.00  0.00     0.164 HD
ATOM     12  C   UNL d   1      -4.048   1.307   3.449  0.00  0.00     0.018 A 
ATOM     13  C   UNL d   1      -2.864   1.411   2.725  0.00  0.00     0.011 A 
ENDBRANCH   6   7
ENDBRANCH   4   6
ENDBRANCH   1   4
BRANCH   1  14
ATOM     14  S   UNL d   1       0.191  -2.307   1.658  0.00  0.00    -0.099 SA
ATOM     15  C   UNL d   1      -1.403  -3.133   1.561  0.00  0.00     0.099 C 
ENDBRANCH   1  14
BRANCH   2  16
ATOM     16  C   UNL d   1       0.828  -2.038  -1.490  0.00  0.00     0.034 A 
ATOM     17  C   UNL d   1       0.493  -2.171  -2.843  0.00  0.00     0.030 A 
ATOM     18  C   UNL d   1       1.138  -3.107  -3.671  0.00  0.00     0.010 A 
ATOM     19  C   UNL d   1       2.130  -3.963  -3.167  0.00  0.00    -0.051 A 
ATOM     20  C   UNL d   1       2.466  -3.813  -1.816  0.00  0.00     0.010 A 
ATOM     21  C   UNL d   1       1.855  -2.845  -1.012  0.00  0.00     0.030 A 
BRANCH  19  22
ATOM     22  C   UNL d   1       2.856  -4.971  -4.073  0.00  0.00    -0.024 C 
ATOM     23  C   UNL d   1       3.831  -5.895  -3.304  0.00  0.00     0.019 C 
ATOM     24  C   UNL d   1       1.842  -5.885  -4.791  0.00  0.00     0.019 C 
ATOM     25  C   UNL d   1       3.686  -4.206  -5.125  0.00  0.00     0.019 C 
ENDBRANCH  19  22
ENDBRANCH   2  16
TORSDOF 6
