REMARK  5 active torsions:
REMARK  status: ('A' for Active; 'I' for Inactive)
REMARK    1  A    between atoms: S_14  and  C_6 
REMARK       I    between atoms: C_9  and  N_13 
REMARK    2  A    between atoms: C_17  and  C_9 
REMARK    3  A    between atoms: C_12  and  C_20 
REMARK       I    between atoms: N_16  and  C_12 
REMARK    4  A    between atoms: N_13  and  N_16 
REMARK    5  A    between atoms: C_20  and  S_14 
ROOT
ATOM      1  C   UNL d   1       2.174   0.567  -0.701  0.00  0.00     0.089 A 
ATOM      2  C   UNL d   1       2.405  -0.805  -0.804  0.00  0.00     0.039 A 
ATOM      3  S   UNL d   1       3.216   1.514  -1.653  0.00  0.00    -0.075 SA
ATOM      4  C   UNL d   1       3.557  -1.039  -1.663  0.00  0.00    -0.029 A 
ATOM      5  C   UNL d   1       4.037   0.140  -2.215  0.00  0.00    -0.008 A 
ATOM      6  C   UNL d   1       1.490  -1.593  -0.086  0.00  0.00     0.084 A 
ATOM      7  N   UNL d   1       1.230   1.178   0.034  0.00  0.00    -0.346 N 
ATOM      8  HN  UNL d   1       1.113   2.191   0.073  1.00  0.00     0.167 HD
ATOM      9  N   UNL d   1       0.538  -1.011   0.682  0.00  0.00    -0.346 N 
ATOM     10  HN  UNL d   1      -0.109  -1.579   1.229  1.00  0.00     0.167 HD
ATOM     11  C   UNL d   1       0.466   0.323   0.705  0.00  0.00     0.182 A 
ATOM     12  C   UNL d   1       4.201  -2.358  -1.995  0.00  0.00     0.040 C 
ATOM     13  C   UNL d   1       5.181   0.265  -3.170  0.00  0.00     0.047 C 
ATOM     14  C   UNL d   1       5.562  -2.186  -2.700  0.00  0.00     0.005 C 
ATOM     15  C   UNL d   1       5.515  -1.100  -3.780  0.00  0.00     0.005 C 
ENDROOT
BRANCH   6  16
ATOM     16  S   UNL d   1       1.430  -3.376  -0.207  0.00  0.00    -0.102 SA
BRANCH  16  17
ATOM     17  C   UNL d   1      -0.376  -3.535  -0.301  0.00  0.00     0.185 C 
BRANCH  17  18
ATOM     18  C   UNL d   1      -0.926  -4.928  -0.514  0.00  0.00     0.245 C 
ATOM     19  N   UNL d   1      -0.306  -5.991   0.096  0.00  0.00    -0.267 N 
ATOM     20  H   UNL d   1       0.640  -5.960   0.479  0.00  0.00     0.190 HD
ATOM     21  O   UNL d   1      -1.993  -5.093  -1.121  0.00  0.00    -0.271 OA
BRANCH  19  22
ATOM     22  N   UNL d   1      -0.900  -7.260  -0.078  0.00  0.00    -0.267 N 
ATOM     23  C   UNL d   1      -0.117  -8.393  -0.023  0.00  0.00     0.243 C 
ATOM     24  O   UNL d   1       1.083  -8.330   0.249  0.00  0.00    -0.271 OA
ATOM     25  H   UNL d   1      -1.824  -7.248  -0.508  0.00  0.00     0.190 HD
BRANCH  23  26
ATOM     26  C   UNL d   1      -0.830  -9.720  -0.381  0.00  0.00     0.032 C 
ATOM     27  C   UNL d   1      -1.020  -9.812  -1.902  0.00  0.00     0.025 C 
ATOM     28  C   UNL d   1       0.048 -10.894   0.087  0.00  0.00     0.025 C 
ATOM     29  C   UNL d   1      -2.200  -9.840   0.308  0.00  0.00     0.025 C 
ENDBRANCH  23  26
ENDBRANCH  19  22
ENDBRANCH  17  18
ENDBRANCH  16  17
ENDBRANCH   6  16
TORSDOF 5
