REMARK  4 active torsions:
REMARK  status: ('A' for Active; 'I' for Inactive)
REMARK    1  A    between atoms: C_4  and  C_1 
REMARK    2  A    between atoms: C_16  and  C_5 
REMARK    3  A    between atoms: C_7  and  C_11 
REMARK    4  A    between atoms: C_10  and  C_15 
ROOT
ATOM      1  C   UNL d   1       0.192  -1.142  -0.013  0.00  0.00     0.088 A 
ATOM      2  N   UNL d   1       1.351  -0.562  -0.263  0.00  0.00    -0.349 N 
ATOM      3  HN  UNL d   1       2.192  -1.057  -0.558  1.00  0.00     0.166 HD
ATOM      4  C   UNL d   1       1.273   0.810  -0.070  0.00  0.00     0.050 A 
ATOM      5  S   UNL d   1      -1.038  -0.048   0.523  0.00  0.00    -0.081 SA
ATOM      6  C   UNL d   1       0.020   1.272   0.276  0.00  0.00     0.082 A 
ENDROOT
BRANCH   1   7
ATOM      7  C   UNL d   1      -0.050  -2.599  -0.040  0.00  0.00     0.041 A 
ATOM      8  C   UNL d   1       0.877  -3.492   0.543  0.00  0.00     0.049 A 
ATOM      9  C   UNL d   1       0.661  -4.881   0.555  0.00  0.00     0.041 A 
ATOM     10 CL   UNL d   1       2.335  -2.966   1.329  0.00  0.00    -0.083 Cl
ATOM     11  C   UNL d   1      -0.499  -5.433   0.000  0.00  0.00     0.051 A 
ATOM     12  C   UNL d   1      -1.417  -4.567  -0.601  0.00  0.00     0.041 A 
ATOM     13  C   UNL d   1      -1.190  -3.182  -0.644  0.00  0.00     0.049 A 
ATOM     14 CL   UNL d   1      -2.370  -2.277  -1.538  0.00  0.00    -0.083 Cl
BRANCH  11  15
ATOM     15  C   UNL d   1      -0.731  -6.922   0.043  0.00  0.00     0.417 C 
ATOM     16  F   UNL d   1      -1.939  -7.294  -0.454  0.00  0.00    -0.166 F 
ATOM     17  F   UNL d   1       0.198  -7.611  -0.672  0.00  0.00    -0.166 F 
ATOM     18  F   UNL d   1      -0.677  -7.418   1.309  0.00  0.00    -0.166 F 
ENDBRANCH  11  15
ENDBRANCH   1   7
BRANCH   4  19
ATOM     19  C   UNL d   1       2.448   1.667  -0.159  0.00  0.00    -0.009 A 
ATOM     20  C   UNL d   1       2.369   2.980  -0.641  0.00  0.00     0.014 A 
ATOM     21  C   UNL d   1       3.503   3.799  -0.666  0.00  0.00     0.017 A 
ATOM     22  C   UNL d   1       4.741   3.323  -0.206  0.00  0.00     0.048 A 
ATOM     23  C   UNL d   1       4.821   2.007   0.272  0.00  0.00     0.017 A 
ATOM     24  C   UNL d   1       3.687   1.187   0.290  0.00  0.00     0.014 A 
BRANCH  22  25
ATOM     25  C   UNL d   1       5.952   4.223  -0.239  0.00  0.00     0.417 C 
ATOM     26  F   UNL d   1       7.079   3.646   0.263  0.00  0.00    -0.166 F 
ATOM     27  F   UNL d   1       6.269   4.623  -1.502  0.00  0.00    -0.166 F 
ATOM     28  F   UNL d   1       5.769   5.367   0.478  0.00  0.00    -0.166 F 
ENDBRANCH  22  25
ENDBRANCH   4  19
TORSDOF 4
