REMARK  3 active torsions:
REMARK  status: ('A' for Active; 'I' for Inactive)
REMARK    1  A    between atoms: C_2  and  C_1 
REMARK       I    between atoms: N_4  and  C_1 
REMARK    2  A    between atoms: C_11  and  N_4 
REMARK    3  A    between atoms: C_5  and  C_11 
REMARK       I    between atoms: N_12  and  C_5 
ROOT
ATOM      1  C   UNL d   1       0.932   0.141   0.027  0.00  0.00     0.258 C 
ATOM      2  N   UNL d   1       0.098   1.150   0.450  0.00  0.00    -0.348 N 
ATOM      3  O   UNL d   1       2.138   0.182   0.264  0.00  0.00    -0.267 OA
ATOM      4  H   UNL d   1      -0.888   1.123   0.212  0.00  0.00     0.163 HD
ENDROOT
BRANCH   2   5
ATOM      5  C   UNL d   1       0.579   2.267   1.236  0.00  0.00     0.225 C 
BRANCH   5   6
ATOM      6  C   UNL d   1      -0.586   3.173   1.625  0.00  0.00     0.233 C 
ATOM      7  O   UNL d   1      -1.752   2.956   1.302  0.00  0.00    -0.272 OA
ATOM      8  N   UNL d   1      -0.258   4.268   2.368  0.00  0.00    -0.369 N 
ATOM      9  H   UNL d   1       0.683   4.476   2.673  0.00  0.00     0.159 HD
ATOM     10  H   UNL d   1      -1.008   4.888   2.649  0.00  0.00     0.159 HD
ENDBRANCH   5   6
ENDBRANCH   2   5
BRANCH   1  11
ATOM     11  C   UNL d   1       0.305  -0.952  -0.707  0.00  0.00     0.072 A 
ATOM     12  S   UNL d   1      -1.396  -1.104  -0.865  0.00  0.00    -0.097 SA
ATOM     13  C   UNL d   1      -1.258  -2.559  -1.753  0.00  0.00     0.050 A 
ATOM     14  C   UNL d   1       0.055  -2.924  -1.945  0.00  0.00     0.009 A 
ATOM     15  C   UNL d   1       0.955  -1.998  -1.340  0.00  0.00     0.025 A 
ENDBRANCH   1  11
TORSDOF 3
