REMARK  5 active torsions:
REMARK  status: ('A' for Active; 'I' for Inactive)
REMARK    1  A    between atoms: N_2  and  C_1 
REMARK    2  A    between atoms: C_3  and  C_6 
REMARK    3  A    between atoms: O_8  and  C_5 
REMARK    4  A    between atoms: C_19  and  O_8 
REMARK    5  A    between atoms: C_16  and  C_10 
ROOT
ATOM      1  C   UNL d   1       0.323   3.446   1.362  0.00  0.00     0.137 A 
ATOM      2  C   UNL d   1      -0.134   4.657   1.914  0.00  0.00     0.055 A 
ATOM      3  C   UNL d   1       1.335   3.418   0.400  0.00  0.00     0.109 A 
ATOM      4  C   UNL d   1       0.442   5.869   1.506  0.00  0.00     0.050 A 
ATOM      5  C   UNL d   1       1.861   4.638  -0.045  0.00  0.00     0.040 A 
ATOM      6  C   UNL d   1       1.444   5.846   0.524  0.00  0.00     0.019 A 
ENDROOT
BRANCH   3   7
ATOM      7  O   UNL d   1       1.770   2.218  -0.120  0.00  0.00    -0.308 OA
BRANCH   7   8
ATOM      8  C   UNL d   1       3.130   2.061  -0.300  0.00  0.00     0.076 A 
ATOM      9  C   UNL d   1       4.076   2.605   0.566  0.00  0.00     0.038 A 
ATOM     10  C   UNL d   1       5.435   2.486   0.280  0.00  0.00     0.015 A 
ATOM     11  C   UNL d   1       5.904   1.741  -0.818  0.00  0.00    -0.026 A 
ATOM     12  C   UNL d   1       4.929   1.151  -1.647  0.00  0.00     0.015 A 
ATOM     13  C   UNL d   1       3.556   1.312  -1.394  0.00  0.00     0.038 A 
BRANCH  11  14
ATOM     14  C   UNL d   1       7.362   1.580  -1.047  0.00  0.00    -0.026 A 
ATOM     15  C   UNL d   1       7.916   1.405  -2.326  0.00  0.00     0.012 A 
ATOM     16  C   UNL d   1       9.300   1.268  -2.509  0.00  0.00     0.001 A 
ATOM     17  C   UNL d   1      10.163   1.318  -1.417  0.00  0.00     0.000 A 
ATOM     18  C   UNL d   1       9.646   1.489  -0.142  0.00  0.00     0.001 A 
ATOM     19  C   UNL d   1       8.267   1.604   0.038  0.00  0.00     0.012 A 
ENDBRANCH  11  14
ENDBRANCH   7   8
ENDBRANCH   3   7
BRANCH   1  20
ATOM     20  N   UNL d   1      -0.273   2.213   1.839  0.00  0.00    -0.113 N 
ATOM     21  O   UNL d   1      -1.508   2.132   1.788  0.00  0.00    -0.532 OA
ATOM     22  O   UNL d   1       0.487   1.357   2.318  0.00  0.00    -0.532 OA
ENDBRANCH   1  20
BRANCH   4  23
ATOM     23  C   UNL d   1       0.017   7.192   2.098  0.00  0.00     0.417 C 
ATOM     24  F   UNL d   1      -1.032   7.087   2.959  0.00  0.00    -0.166 F 
ATOM     25  F   UNL d   1       1.020   7.788   2.796  0.00  0.00    -0.166 F 
ATOM     26  F   UNL d   1      -0.364   8.087   1.146  0.00  0.00    -0.166 F 
ENDBRANCH   4  23
TORSDOF 5
