REMARK  7 active torsions:
REMARK  status: ('A' for Active; 'I' for Inactive)
REMARK    1  A    between atoms: C_8  and  C_1 
REMARK    2  A    between atoms: C_2  and  C_7 
REMARK    3  A    between atoms: C_3  and  C_5 
REMARK    4  A    between atoms: C_4  and  C_6 
REMARK    5  A    between atoms: C_11  and  N_18 
REMARK    6  A    between atoms: N_17  and  C_12 
REMARK    7  A    between atoms: N_18  and  N_17 
ROOT
ATOM      1  N   UNL d   1      -0.386  -1.801   4.162  0.00  0.00    -0.205 NA
ATOM      2  H   UNL d   1      -0.330  -1.462   5.126  0.00  0.00     0.153 HD
ENDROOT
BRANCH   1   3
ATOM      3  C   UNL d   1      -0.140  -0.720   3.273  0.00  0.00     0.029 A 
ATOM      4  C   UNL d   1       0.143  -0.923   1.918  0.00  0.00     0.041 A 
ATOM      5  C   UNL d   1       0.374   0.154   1.045  0.00  0.00     0.050 A 
ATOM      6  C   UNL d   1       0.285   1.461   1.541  0.00  0.00     0.032 A 
ATOM      7  C   UNL d   1      -0.042   1.696   2.885  0.00  0.00     0.050 A 
ATOM      8  C   UNL d   1      -0.269   0.598   3.734  0.00  0.00     0.041 A 
BRANCH   5   9
ATOM      9  C   UNL d   1       0.714  -0.124  -0.399  0.00  0.00     0.417 C 
ATOM     10  F   UNL d   1       0.949   0.999  -1.130  0.00  0.00    -0.166 F 
ATOM     11  F   UNL d   1      -0.278  -0.794  -1.047  0.00  0.00    -0.166 F 
ATOM     12  F   UNL d   1       1.830  -0.895  -0.527  0.00  0.00    -0.166 F 
ENDBRANCH   5   9
BRANCH   7  13
ATOM     13  C   UNL d   1      -0.145   3.100   3.433  0.00  0.00     0.417 C 
ATOM     14  F   UNL d   1       0.127   4.064   2.511  0.00  0.00    -0.166 F 
ATOM     15  F   UNL d   1      -1.387   3.380   3.914  0.00  0.00    -0.166 F 
ATOM     16  F   UNL d   1       0.716   3.316   4.465  0.00  0.00    -0.166 F 
ENDBRANCH   7  13
ENDBRANCH   1   3
BRANCH   1  17
ATOM     17  N   UNL d   1       0.252  -3.006   3.998  0.00  0.00    -0.317 N 
ATOM     18  H   UNL d   1       0.389  -3.323   3.038  0.00  0.00     0.181 HD
BRANCH  17  19
ATOM     19  C   UNL d   1       0.116  -4.103   4.876  0.00  0.00     0.044 A 
ATOM     20  C   UNL d   1      -0.698  -4.072   6.012  0.00  0.00     0.046 A 
ATOM     21  C   UNL d   1      -0.722  -5.144   6.922  0.00  0.00     0.050 A 
ATOM     22  C   UNL d   1       0.106  -6.253   6.693  0.00  0.00     0.032 A 
ATOM     23  C   UNL d   1       0.952  -6.296   5.576  0.00  0.00     0.050 A 
ATOM     24  C   UNL d   1       0.940  -5.219   4.676  0.00  0.00     0.046 A 
BRANCH  21  25
ATOM     25  C   UNL d   1      -1.619  -5.072   8.135  0.00  0.00     0.417 C 
ATOM     26  F   UNL d   1      -1.514  -6.155   8.953  0.00  0.00    -0.166 F 
ATOM     27  F   UNL d   1      -1.349  -3.988   8.914  0.00  0.00    -0.166 F 
ATOM     28  F   UNL d   1      -2.936  -4.977   7.804  0.00  0.00    -0.166 F 
ENDBRANCH  21  25
BRANCH  23  29
ATOM     29  C   UNL d   1       1.890  -7.455   5.337  0.00  0.00     0.417 C 
ATOM     30  F   UNL d   1       1.863  -8.389   6.327  0.00  0.00    -0.166 F 
ATOM     31  F   UNL d   1       1.611  -8.120   4.183  0.00  0.00    -0.166 F 
ATOM     32  F   UNL d   1       3.188  -7.055   5.235  0.00  0.00    -0.166 F 
ENDBRANCH  23  29
ENDBRANCH  17  19
ENDBRANCH   1  17
TORSDOF 7
