REMARK  4 active torsions:
REMARK  status: ('A' for Active; 'I' for Inactive)
REMARK    1  A    between atoms: C_8  and  C_3 
REMARK    2  A    between atoms: C_9  and  C_4 
REMARK    3  A    between atoms: C_20  and  C_16 
REMARK    4  A    between atoms: C_22  and  C_20 
ROOT
ATOM      1  N   UNL d   1      -0.126  -0.374  -0.987  0.00  0.00    -0.319 N 
ATOM      2  HN  UNL d   1      -0.540  -0.801  -1.815  1.00  0.00     0.169 HD
ATOM      3  C   UNL d   1      -0.227   0.929  -0.547  0.00  0.00     0.138 A 
ATOM      4  C   UNL d   1       0.637  -0.928  -0.073  0.00  0.00     0.182 A 
ATOM      5  N   UNL d   1       0.433   1.171   0.598  0.00  0.00    -0.242 N 
ATOM      6  HN  UNL d   1       0.499   2.048   1.114  1.00  0.00     0.196 HD
ATOM      7  O   UNL d   1       1.004  -0.058   0.914  0.00  0.00    -0.217 OA
ENDROOT
BRANCH   4   8
ATOM      8  C   UNL d   1       1.171  -2.281   0.006  0.00  0.00     0.017 A 
ATOM      9  C   UNL d   1       0.883  -3.205  -1.009  0.00  0.00     0.016 A 
ATOM     10  C   UNL d   1       1.435  -4.490  -0.986  0.00  0.00     0.008 A 
ATOM     11  C   UNL d   1       2.282  -4.881   0.057  0.00  0.00    -0.058 A 
ATOM     12  C   UNL d   1       2.557  -3.968   1.082  0.00  0.00     0.008 A 
ATOM     13  C   UNL d   1       2.001  -2.686   1.060  0.00  0.00     0.016 A 
BRANCH  11  14
ATOM     14  C   UNL d   1       2.915  -6.252   0.056  0.00  0.00     0.038 C 
BRANCH  14  15
ATOM     15  C   UNL d   1       2.597  -7.101   1.291  0.00  0.00     0.000 C 
ATOM     16  C   UNL d   1       1.115  -7.414   1.436  0.00  0.00     0.005 C 
ENDBRANCH  14  15
ENDBRANCH  11  14
ENDBRANCH   4   8
BRANCH   3  17
ATOM     17  C   UNL d   1      -0.979   1.938  -1.283  0.00  0.00     0.010 A 
ATOM     18  C   UNL d   1      -1.687   1.579  -2.440  0.00  0.00     0.022 A 
ATOM     19  C   UNL d   1      -2.421   2.531  -3.162  0.00  0.00    -0.061 A 
ATOM     20  C   UNL d   1      -3.181   2.138  -4.394  0.00  0.00     0.048 C 
ATOM     21  C   UNL d   1      -2.437   3.858  -2.719  0.00  0.00     0.007 A 
ATOM     22  C   UNL d   1      -1.734   4.228  -1.574  0.00  0.00     0.002 A 
ATOM     23  C   UNL d   1      -1.009   3.274  -0.858  0.00  0.00     0.015 A 
ENDBRANCH   3  17
TORSDOF 4
