REMARK  4 active torsions:
REMARK  status: ('A' for Active; 'I' for Inactive)
REMARK    1  A    between atoms: C_7  and  C_1 
REMARK    2  A    between atoms: C_6  and  C_7 
REMARK    3  A    between atoms: C_14  and  C_8 
REMARK    4  A    between atoms: C_18  and  C_14 
ROOT
ATOM      1  C   UNL d   1      -0.092   1.342   0.138  0.00  0.00     0.131 A 
ATOM      2  N   UNL d   1      -1.356  -0.643  -0.094  0.00  0.00    -0.305 N 
ATOM      3  HN  UNL d   1      -2.133  -1.297  -0.191  1.00  0.00     0.186 HD
ATOM      4  N   UNL d   1      -0.034  -0.955   0.014  0.00  0.00    -0.270 N 
ATOM      5  C   UNL d   1       0.815   0.134   0.085  0.00  0.00     0.246 A 
ATOM      6  C   UNL d   1      -1.429   0.652  -0.049  0.00  0.00     0.017 A 
ATOM      7  O   UNL d   1       2.032   0.105   0.097  0.00  0.00    -0.271 OA
ATOM      8  H   UNL d   1       0.287  -1.913  -0.050  0.00  0.00     0.190 HD
ENDROOT
BRANCH   1   9
ATOM      9  C   UNL d   1       0.010   2.074   1.479  0.00  0.00     0.063 C 
BRANCH   9  10
ATOM     10  C   UNL d   1       1.411   2.572   1.773  0.00  0.00     0.003 A 
ATOM     11  C   UNL d   1       1.979   3.528   0.920  0.00  0.00     0.124 A 
ATOM     12  F   UNL d   1       1.236   4.060  -0.063  0.00  0.00    -0.205 F 
ATOM     13  C   UNL d   1       3.308   3.929   1.035  0.00  0.00     0.043 A 
ATOM     14  C   UNL d   1       4.107   3.385   2.035  0.00  0.00     0.005 A 
ATOM     15  C   UNL d   1       3.558   2.464   2.926  0.00  0.00     0.024 A 
ATOM     16  C   UNL d   1       2.221   2.062   2.801  0.00  0.00     0.043 A 
ATOM     17 CL   UNL d   1       1.637   0.909   3.949  0.00  0.00    -0.084 Cl
ENDBRANCH   9  10
ENDBRANCH   1   9
BRANCH   6  18
ATOM     18  C   UNL d   1      -2.730   1.382  -0.212  0.00  0.00     0.054 C 
BRANCH  18  19
ATOM     19  C   UNL d   1      -2.783   2.263  -1.456  0.00  0.00     0.001 C 
ATOM     20  C   UNL d   1      -2.487   1.516  -2.750  0.00  0.00     0.005 C 
ENDBRANCH  18  19
ENDBRANCH   6  18
TORSDOF 4
