REMARK  5 active torsions:
REMARK  status: ('A' for Active; 'I' for Inactive)
REMARK    1  A    between atoms: C_10  and  C_3 
REMARK    2  A    between atoms: N_7  and  C_9 
REMARK    3  A    between atoms: C_18  and  C_8 
REMARK    4  A    between atoms: O_24  and  C_19 
REMARK    5  A    between atoms: C_25  and  O_24 
ROOT
ATOM      1  N   UNL d   1       1.568  -0.068   0.059  0.00  0.00    -0.331 N 
ATOM      2  HN  UNL d   1       2.513  -0.450   0.064  1.00  0.00     0.168 HD
ATOM      3  C   UNL d   1       1.199   1.172   0.050  0.00  0.00     0.162 A 
ATOM      4  C   UNL d   1       0.371  -0.742   0.062  0.00  0.00     0.111 A 
ATOM      5  O   UNL d   1      -0.126   1.436   0.045  0.00  0.00    -0.256 OA
ATOM      6  C   UNL d   1      -0.764   0.230   0.054  0.00  0.00     0.316 A 
ATOM      7  C   UNL d   1       0.284  -2.078   0.061  0.00  0.00     0.047 C 
ATOM      8  O   UNL d   1      -1.963   0.051   0.060  0.00  0.00    -0.257 OA
ENDROOT
BRANCH   7   9
ATOM      9  C   UNL d   1      -0.955  -2.850   0.006  0.00  0.00    -0.034 A 
ATOM     10  C   UNL d   1      -1.487  -3.207  -1.236  0.00  0.00     0.014 A 
ATOM     11  C   UNL d   1      -2.666  -3.956  -1.313  0.00  0.00     0.037 A 
ATOM     12  C   UNL d   1      -3.323  -4.356  -0.149  0.00  0.00     0.068 A 
ATOM     13  C   UNL d   1      -2.788  -4.000   1.092  0.00  0.00     0.037 A 
ATOM     14  C   UNL d   1      -1.608  -3.251   1.173  0.00  0.00     0.014 A 
BRANCH  12  15
ATOM     15  O   UNL d   1      -4.481  -5.087  -0.096  0.00  0.00    -0.352 OA
BRANCH  15  16
ATOM     16  C   UNL d   1      -5.068  -5.440  -1.348  0.00  0.00     0.171 C 
ATOM     17  C   UNL d   1      -6.350  -6.208  -1.083  0.00  0.00     0.034 C 
ENDBRANCH  15  16
ENDBRANCH  12  15
ENDBRANCH   7   9
BRANCH   3  18
ATOM     18  C   UNL d   1       2.081   2.351   0.053  0.00  0.00     0.015 A 
ATOM     19  C   UNL d   1       3.467   2.159  -0.045  0.00  0.00     0.018 A 
ATOM     20  C   UNL d   1       4.337   3.253  -0.001  0.00  0.00     0.037 A 
ATOM     21  C   UNL d   1       3.814   4.545   0.144  0.00  0.00     0.102 A 
ATOM     22  C   UNL d   1       2.430   4.748   0.226  0.00  0.00     0.037 A 
ATOM     23  C   UNL d   1       1.565   3.649   0.178  0.00  0.00     0.018 A 
BRANCH  21  24
ATOM     24  N   UNL d   1       4.725   5.695   0.224  0.00  0.00    -0.116 N 
ATOM     25  O   UNL d   1       5.942   5.472   0.154  0.00  0.00    -0.532 OA
ATOM     26  O   UNL d   1       4.222   6.819   0.362  0.00  0.00    -0.532 OA
ENDBRANCH  21  24
ENDBRANCH   3  18
TORSDOF 5
