REMARK  2 active torsions:
REMARK  status: ('A' for Active; 'I' for Inactive)
REMARK    1  A    between atoms: C_8  and  C_3 
REMARK    2  A    between atoms: C_10  and  C_7 
ROOT
ATOM      1  N   UNL d   1       1.571  -0.083  -0.043  0.00  0.00    -0.331 N 
ATOM      2  HN  UNL d   1       2.513  -0.470  -0.109  1.00  0.00     0.168 HD
ATOM      3  C   UNL d   1       1.208   1.157   0.016  0.00  0.00     0.162 A 
ATOM      4  C   UNL d   1       0.371  -0.748   0.005  0.00  0.00     0.111 A 
ATOM      5  O   UNL d   1      -0.115   1.425   0.101  0.00  0.00    -0.256 OA
ATOM      6  C   UNL d   1      -0.754   0.227   0.086  0.00  0.00     0.316 A 
ATOM      7  C   UNL d   1       0.267  -2.082  -0.011  0.00  0.00     0.047 C 
ATOM      8  O   UNL d   1      -1.954   0.051   0.134  0.00  0.00    -0.257 OA
ENDROOT
BRANCH   7   9
ATOM      9  C   UNL d   1      -0.984  -2.836   0.016  0.00  0.00    -0.034 A 
ATOM     10  C   UNL d   1      -1.602  -3.207  -1.184  0.00  0.00     0.013 A 
ATOM     11  C   UNL d   1      -2.776  -3.965  -1.163  0.00  0.00     0.024 A 
ATOM     12  C   UNL d   1      -3.330  -4.349   0.057  0.00  0.00     0.034 A 
ATOM     13  C   UNL d   1      -2.731  -3.967   1.256  0.00  0.00     0.024 A 
ATOM     14 CL   UNL d   1      -4.755  -5.313   0.082  0.00  0.00    -0.084 Cl
ATOM     15  C   UNL d   1      -1.559  -3.207   1.237  0.00  0.00     0.013 A 
ENDBRANCH   7   9
BRANCH   3  16
ATOM     16  C   UNL d   1       2.076   2.341  -0.005  0.00  0.00     0.015 A 
ATOM     17  C   UNL d   1       3.458   2.178  -0.169  0.00  0.00     0.017 A 
ATOM     18  C   UNL d   1       4.295   3.297  -0.188  0.00  0.00     0.025 A 
ATOM     19  C   UNL d   1       3.751   4.572  -0.036  0.00  0.00     0.034 A 
ATOM     20  C   UNL d   1       2.377   4.742   0.127  0.00  0.00     0.025 A 
ATOM     21 CL   UNL d   1       4.781   5.948  -0.047  0.00  0.00    -0.084 Cl
ATOM     22  C   UNL d   1       1.537   3.627   0.139  0.00  0.00     0.017 A 
ENDBRANCH   3  16
TORSDOF 2
