REMARK  3 active torsions:
REMARK  status: ('A' for Active; 'I' for Inactive)
REMARK    1  A    between atoms: N_2  and  C_1 
REMARK    2  A    between atoms: N_4  and  N_2 
REMARK    3  A    between atoms: C_6  and  N_4 
ROOT
ATOM      1  N   UNL d   1       1.014  -1.457   2.008  0.00  0.00    -0.204 NA
ATOM      2  H   UNL d   1       0.308  -1.003   1.421  0.00  0.00     0.153 HD
ENDROOT
BRANCH   1   3
ATOM      3  N   UNL d   1       1.704  -0.495   2.766  0.00  0.00    -0.293 N 
ATOM      4  H   UNL d   1       1.922  -0.690   3.736  0.00  0.00     0.183 HD
BRANCH   3   5
ATOM      5  C   UNL d   1       1.780   0.795   2.332  0.00  0.00     0.180 C 
ATOM      6  S   UNL d   1       2.295   2.029   3.312  0.00  0.00    -0.040 SA
ATOM      7  N   UNL d   1       1.381   1.026   1.055  0.00  0.00    -0.375 N 
ATOM      8  H   UNL d   1       1.582   0.287   0.393  0.00  0.00     0.158 HD
ATOM      9  H   UNL d   1       1.540   1.964   0.709  0.00  0.00     0.158 HD
ENDBRANCH   3   5
ENDBRANCH   1   3
BRANCH   1  10
ATOM     10  C   UNL d   1       0.390  -2.501   2.746  0.00  0.00     0.027 A 
ATOM     11  C   UNL d   1      -0.682  -3.180   2.143  0.00  0.00     0.025 A 
ATOM     12  C   UNL d   1      -1.313  -4.254   2.778  0.00  0.00     0.002 A 
ATOM     13  C   UNL d   1      -0.865  -4.683   4.022  0.00  0.00     0.000 A 
ATOM     14  C   UNL d   1       0.230  -4.060   4.613  0.00  0.00     0.002 A 
ATOM     15  C   UNL d   1       0.869  -2.993   3.965  0.00  0.00     0.025 A 
ENDBRANCH   1  10
TORSDOF 3
