REMARK  5 active torsions:
REMARK  status: ('A' for Active; 'I' for Inactive)
REMARK    1  A    between atoms: N_2  and  C_1 
REMARK    2  A    between atoms: N_3  and  C_1 
REMARK    3  A    between atoms: C_8  and  N_3 
REMARK    4  A    between atoms: C_7  and  N_4 
REMARK    5  A    between atoms: C_11  and  C_7 
ROOT
ATOM      1  N   UNL d   1       0.070   0.697   0.574  0.00  0.00    -0.356 N 
ATOM      2  N   UNL d   1      -2.153   2.148   2.192  0.00  0.00     0.094 N 
ATOM      3  C   UNL d   1      -0.823   0.028   1.527  0.00  0.00     0.155 C 
ATOM      4  C   UNL d   1      -2.165   0.760   1.710  0.00  0.00     0.292 C 
ATOM      5  C   UNL d   1      -0.112   3.177   0.963  0.00  0.00     0.050 C 
ATOM      6  C   UNL d   1       0.714   1.907   1.078  0.00  0.00     0.127 C 
ATOM      7  C   UNL d   1      -1.621   3.082   1.199  0.00  0.00     0.274 C 
ENDROOT
BRANCH   1   8
ATOM      8  C   UNL d   1       0.835  -0.051  -0.318  0.00  0.00     0.174 C 
ATOM      9  S   UNL d   1       1.826  -1.327   0.115  0.00  0.00    -0.041 SA
BRANCH   8  10
ATOM     10  N   UNL d   1       0.886   0.449  -1.597  0.00  0.00    -0.333 N 
ATOM     11  H   UNL d   1       1.718   0.200  -2.122  0.00  0.00     0.168 HD
BRANCH  10  12
ATOM     12  C   UNL d   1      -0.193   0.944  -2.357  0.00  0.00     0.034 A 
ATOM     13  C   UNL d   1       0.087   1.649  -3.531  0.00  0.00     0.032 A 
ATOM     14  C   UNL d   1      -0.954   2.087  -4.356  0.00  0.00     0.044 A 
ATOM     15  C   UNL d   1      -2.270   1.796  -4.017  0.00  0.00     0.116 A 
ATOM     16  C   UNL d   1      -2.567   1.082  -2.865  0.00  0.00     0.044 A 
ATOM     17  F   UNL d   1      -3.264   2.192  -4.823  0.00  0.00    -0.206 F 
ATOM     18  C   UNL d   1      -1.528   0.655  -2.038  0.00  0.00     0.032 A 
ENDBRANCH  10  12
ENDBRANCH   8  10
ENDBRANCH   1   8
BRANCH   2  19
ATOM     19  C   UNL d   1      -1.630   2.339   3.544  0.00  0.00     0.311 C 
BRANCH  19  20
ATOM     20  C   UNL d   1      -2.387   1.549   4.595  0.00  0.00    -0.030 A 
ATOM     21  C   UNL d   1      -1.737   0.555   5.345  0.00  0.00     0.012 A 
ATOM     22  C   UNL d   1      -2.437  -0.174   6.307  0.00  0.00     0.043 A 
ATOM     23  C   UNL d   1      -3.785   0.087   6.521  0.00  0.00     0.116 A 
ATOM     24  C   UNL d   1      -4.450   1.060   5.785  0.00  0.00     0.043 A 
ATOM     25  F   UNL d   1      -4.452  -0.611   7.449  0.00  0.00    -0.206 F 
ATOM     26  C   UNL d   1      -3.753   1.791   4.822  0.00  0.00     0.012 A 
ENDBRANCH  19  20
ENDBRANCH   2  19
TORSDOF 5
