REMARK  2 active torsions:
REMARK  status: ('A' for Active; 'I' for Inactive)
REMARK       I    between atoms: N_2  and  C_1 
REMARK    1  A    between atoms: C_8  and  N_2 
REMARK    2  A    between atoms: C_5  and  C_3 
ROOT
ATOM      1  C   UNL d   1       2.344  -1.006   5.005  0.00  0.00    -0.026 A 
ATOM      2  C   UNL d   1       2.766  -0.002   4.116  0.00  0.00     0.014 A 
ATOM      3  C   UNL d   1       1.220  -1.754   4.623  0.00  0.00     0.014 A 
ATOM      4  C   UNL d   1       0.993  -0.543   2.533  0.00  0.00     0.034 A 
ATOM      5  C   UNL d   1       0.561  -1.535   3.409  0.00  0.00     0.030 A 
ATOM      6  C   UNL d   1       2.104   0.224   2.896  0.00  0.00     0.030 A 
ENDROOT
BRANCH   1   7
ATOM      7  C   UNL d   1       3.047  -1.287   6.280  0.00  0.00    -0.026 A 
ATOM      8  C   UNL d   1       3.637  -0.268   7.048  0.00  0.00     0.012 A 
ATOM      9  C   UNL d   1       4.284  -0.549   8.258  0.00  0.00     0.001 A 
ATOM     10  C   UNL d   1       4.347  -1.856   8.734  0.00  0.00     0.000 A 
ATOM     11  C   UNL d   1       3.773  -2.883   7.996  0.00  0.00     0.001 A 
ATOM     12  C   UNL d   1       3.140  -2.601   6.782  0.00  0.00     0.012 A 
ENDBRANCH   1   7
BRANCH   4  13
ATOM     13  N   UNL d   1       0.385  -0.299   1.284  0.00  0.00    -0.328 N 
ATOM     14  C   UNL d   1      -0.809  -0.833   0.835  0.00  0.00     0.218 C 
ATOM     15  O   UNL d   1      -1.614  -1.487   1.495  0.00  0.00    -0.274 OA
ATOM     16  C   UNL d   1      -1.103  -0.525  -0.611  0.00  0.00     0.117 C 
ATOM     17  H   UNL d   1       0.850   0.371   0.682  0.00  0.00     0.169 HD
ENDBRANCH   4  13
TORSDOF 2
