REMARK  7 active torsions:
REMARK  status: ('A' for Active; 'I' for Inactive)
REMARK    1  A    between atoms: C_15  and  N_9 
REMARK    2  A    between atoms: C_18  and  C_15 
REMARK    3  A    between atoms: O_16  and  C_17 
REMARK    4  A    between atoms: C_17  and  C_19 
REMARK    5  A    between atoms: C_21  and  C_18 
REMARK    6  A    between atoms: C_19  and  C_20 
REMARK    7  A    between atoms: C_20  and  C_21 
ROOT
ATOM      1  C   UNL d   1       0.065  -0.736   0.083  0.00  0.00     0.101 A 
ATOM      2  C   UNL d   1       0.050   0.607   0.102  0.00  0.00     0.077 A 
ATOM      3  N   UNL d   1       1.274  -1.395  -0.036  0.00  0.00    -0.293 N 
ATOM      4  N   UNL d   1       2.467   0.646   0.004  0.00  0.00    -0.270 N 
ATOM      5  C   UNL d   1       2.505  -0.738  -0.078  0.00  0.00     0.332 A 
ATOM      6  C   UNL d   1       1.305   1.377   0.075  0.00  0.00     0.262 A 
ATOM      7  N   UNL d   1      -1.151  -1.409   0.178  0.00  0.00    -0.252 NA
ATOM      8  C   UNL d   1      -1.220   1.410   0.108  0.00  0.00     0.321 C 
ATOM      9  N   UNL d   1      -2.412   0.649  -0.320  0.00  0.00     0.105 N 
ATOM     10  C   UNL d   1      -2.379  -0.645   0.347  0.00  0.00     0.368 C 
ATOM     11  O   UNL d   1       3.570  -1.358  -0.175  0.00  0.00    -0.246 OA
ATOM     12  O   UNL d   1       1.276   2.605   0.130  0.00  0.00    -0.267 OA
ATOM     13  C   UNL d   1       1.343  -2.849  -0.076  0.00  0.00     0.162 C 
ATOM     14  C   UNL d   1       3.711   1.391   0.012  0.00  0.00     0.164 C 
ATOM     15  H   UNL d   1      -1.239  -2.097  -0.564  0.00  0.00     0.130 HD
ENDROOT
BRANCH   9  16
ATOM     16  C   UNL d   1      -3.661   1.374  -0.054  0.00  0.00     0.274 C 
BRANCH  16  17
ATOM     17  C   UNL d   1      -3.730   2.685  -0.848  0.00  0.00     0.030 C 
BRANCH  17  18
ATOM     18  C   UNL d   1      -5.031   3.447  -0.609  0.00  0.00     0.002 C 
BRANCH  18  19
ATOM     19  C   UNL d   1      -5.006   4.769  -1.378  0.00  0.00     0.002 C 
BRANCH  19  20
ATOM     20  C   UNL d   1      -6.279   5.577  -1.152  0.00  0.00     0.026 C 
BRANCH  20  21
ATOM     21  C   UNL d   1      -6.246   6.888  -1.925  0.00  0.00     0.164 C 
BRANCH  21  22
ATOM     22  O   UNL d   1      -7.455   7.592  -1.681  0.00  0.00    -0.401 OA
ATOM     23  H   UNL d   1      -7.406   8.422  -2.184  0.00  0.00     0.209 HD
ENDBRANCH  21  22
ENDBRANCH  20  21
ENDBRANCH  19  20
ENDBRANCH  18  19
ENDBRANCH  17  18
ENDBRANCH  16  17
ENDBRANCH   9  16
TORSDOF 7
