REMARK  6 active torsions:
REMARK  status: ('A' for Active; 'I' for Inactive)
REMARK    1  A    between atoms: C_2  and  C_1 
REMARK       I    between atoms: N_4  and  C_1 
REMARK    2  A    between atoms: C_9  and  C_3 
REMARK    3  A    between atoms: C_8  and  N_4 
REMARK       I    between atoms: C_5  and  N_6 
REMARK    4  A    between atoms: C_12  and  C_5 
REMARK    5  A    between atoms: N_6  and  C_7 
REMARK    6  A    between atoms: O_14  and  C_9 
ROOT
ATOM      1  C   UNL d   1       0.224  -0.274   1.162  0.00  0.00     0.059 A 
ATOM      2  C   UNL d   1       0.805   0.567   2.130  0.00  0.00     0.050 A 
ATOM      3  C   UNL d   1      -0.989  -0.931   1.439  0.00  0.00     0.019 A 
ATOM      4  C   UNL d   1       0.106   0.795   3.326  0.00  0.00     0.030 A 
ATOM      5  C   UNL d   1      -1.649  -0.717   2.649  0.00  0.00     0.001 A 
ATOM      6  C   UNL d   1      -1.110   0.160   3.584  0.00  0.00     0.002 A 
ENDROOT
BRANCH   1   7
ATOM      7  C   UNL d   1       0.936  -0.633  -0.093  0.00  0.00     0.258 C 
ATOM      8  N   UNL d   1       0.138  -0.733  -1.221  0.00  0.00    -0.322 N 
ATOM      9  H   UNL d   1      -0.700  -0.150  -1.256  0.00  0.00     0.169 HD
ATOM     10  O   UNL d   1       2.154  -0.766  -0.091  0.00  0.00    -0.267 OA
BRANCH   8  11
ATOM     11  C   UNL d   1       0.540  -1.347  -2.430  0.00  0.00     0.051 A 
ATOM     12  C   UNL d   1       0.068  -0.874  -3.666  0.00  0.00     0.064 A 
ATOM     13  C   UNL d   1       0.376  -1.560  -4.854  0.00  0.00     0.020 A 
ATOM     14  C   UNL d   1       1.165  -2.708  -4.812  0.00  0.00     0.001 A 
ATOM     15  C   UNL d   1       1.652  -3.171  -3.591  0.00  0.00     0.002 A 
ATOM     16  C   UNL d   1       1.347  -2.491  -2.408  0.00  0.00     0.030 A 
BRANCH  12  17
ATOM     17  C   UNL d   1      -0.725   0.377  -3.721  0.00  0.00     0.178 C 
ATOM     18  O   UNL d   1      -1.545   0.676  -2.870  0.00  0.00    -0.646 OA
BRANCH  17  19
ATOM     19  O   UNL d   1      -0.395   1.180  -4.756  0.00  0.00    -0.773 OA
ATOM     20  H   UNL d   1       0.414   0.923  -5.237  0.00  0.00     0.167 HD
ENDBRANCH  17  19
ENDBRANCH  12  17
ENDBRANCH   8  11
ENDBRANCH   1   7
BRANCH   2  21
ATOM     21  N   UNL d   1       2.059   1.195   1.907  0.00  0.00    -0.322 N 
ATOM     22  C   UNL d   1       2.986   1.399   2.913  0.00  0.00     0.256 C 
ATOM     23  O   UNL d   1       2.889   1.001   4.072  0.00  0.00    -0.267 OA
ATOM     24  H   UNL d   1       2.441   1.126   0.966  0.00  0.00     0.169 HD
BRANCH  22  25
ATOM     25  C   UNL d   1       4.228   2.112   2.524  0.00  0.00     0.032 A 
ATOM     26  C   UNL d   1       4.181   3.269   1.738  0.00  0.00     0.017 A 
ATOM     27  C   UNL d   1       5.357   3.989   1.499  0.00  0.00     0.001 A 
ATOM     28  C   UNL d   1       6.570   3.549   2.030  0.00  0.00     0.000 A 
ATOM     29  C   UNL d   1       6.617   2.386   2.802  0.00  0.00     0.001 A 
ATOM     30  C   UNL d   1       5.446   1.677   3.058  0.00  0.00     0.017 A 
ENDBRANCH  22  25
ENDBRANCH   2  21
TORSDOF 6
