REMARK  6 active torsions:
REMARK  status: ('A' for Active; 'I' for Inactive)
REMARK    1  A    between atoms: N_2  and  C_1 
REMARK       I    between atoms: C_3  and  N_2 
REMARK    2  A    between atoms: C_11  and  C_3 
REMARK    3  A    between atoms: C_5  and  C_12 
REMARK    4  A    between atoms: O_10  and  C_5 
REMARK    5  A    between atoms: S_8  and  C_11 
REMARK    6  A    between atoms: C_12  and  S_8 
ROOT
ATOM      1  N   UNL d   1       1.392  -2.828   0.103  0.00  0.00    -0.326 N 
ATOM      2  C   UNL d   1       2.213  -3.525   0.970  0.00  0.00     0.231 C 
ATOM      3  O   UNL d   1       2.932  -3.028   1.842  0.00  0.00    -0.272 OA
ATOM      4  H   UNL d   1       0.639  -3.339  -0.339  0.00  0.00     0.169 HD
ENDROOT
BRANCH   1   5
ATOM      5  C   UNL d   1       1.301  -1.416   0.078  0.00  0.00     0.045 A 
ATOM      6  C   UNL d   1       0.031  -0.780  -0.016  0.00  0.00     0.001 A 
ATOM      7  C   UNL d   1      -0.009   0.638  -0.033  0.00  0.00    -0.024 A 
ATOM      8  C   UNL d   1      -1.208  -1.469  -0.025  0.00  0.00     0.014 A 
ATOM      9  C   UNL d   1      -1.244   1.307  -0.050  0.00  0.00     0.012 A 
ATOM     10  C   UNL d   1       1.185   1.375  -0.008  0.00  0.00     0.012 A 
ATOM     11  C   UNL d   1      -2.445   0.600  -0.050  0.00  0.00     0.001 A 
ATOM     12  C   UNL d   1      -2.427  -0.788  -0.041  0.00  0.00     0.001 A 
ATOM     13  C   UNL d   1       2.419   0.735   0.054  0.00  0.00     0.003 A 
ATOM     14  C   UNL d   1       2.477  -0.654   0.112  0.00  0.00     0.030 A 
ENDBRANCH   1   5
BRANCH   2  15
ATOM     15  C   UNL d   1       2.192  -5.031   0.777  0.00  0.00     0.177 C 
BRANCH  15  16
ATOM     16  S   UNL d   1       3.659  -5.568  -0.162  0.00  0.00    -0.149 SA
BRANCH  16  17
ATOM     17  C   UNL d   1       5.015  -4.923   0.880  0.00  0.00     0.184 C 
BRANCH  17  18
ATOM     18  C   UNL d   1       5.022  -5.535   2.265  0.00  0.00     0.149 C 
ATOM     19  O   UNL d   1       5.546  -6.603   2.538  0.00  0.00    -0.649 OA
BRANCH  18  20
ATOM     20  O   UNL d   1       4.362  -4.799   3.198  0.00  0.00    -0.776 OA
ATOM     21  H   UNL d   1       3.956  -3.965   2.856  0.00  0.00     0.167 HD
ENDBRANCH  18  20
ENDBRANCH  17  18
ENDBRANCH  16  17
ENDBRANCH  15  16
ENDBRANCH   2  15
TORSDOF 6
