REMARK  9 active torsions:
REMARK  status: ('A' for Active; 'I' for Inactive)
REMARK    1  A    between atoms: O_5  and  C_1 
REMARK    2  A    between atoms: C_11  and  C_2 
REMARK    3  A    between atoms: C_7  and  O_5 
REMARK    4  A    between atoms: C_14  and  C_6 
REMARK       I    between atoms: N_13  and  C_7 
REMARK    5  A    between atoms: C_10  and  C_11 
REMARK    6  A    between atoms: C_22  and  C_12 
REMARK    7  A    between atoms: C_24  and  N_13 
REMARK    8  A    between atoms: C_25  and  N_13 
REMARK    9  A    between atoms: C_30  and  C_22 
ROOT
ATOM      1  C   UNL d   1       0.389  -0.840  -0.821  0.00  0.00     0.140 C 
ATOM      2  C   UNL d   1      -0.132  -1.482   0.295  0.00  0.00     0.111 C 
ATOM      3  N   UNL d   1       0.425   0.501  -0.962  0.00  0.00    -0.324 N 
ATOM      4  HN  UNL d   1       0.901   0.951  -1.745  1.00  0.00     0.169 HD
ATOM      5  C   UNL d   1      -0.200   1.206  -0.013  0.00  0.00     0.134 C 
ATOM      6  N   UNL d   1      -1.038   0.640   0.871  0.00  0.00    -0.347 N 
ATOM      7  HN  UNL d   1      -1.581   1.204   1.525  1.00  0.00     0.167 HD
ATOM      8  C   UNL d   1      -1.131  -0.711   0.858  0.00  0.00     0.000 C 
ENDROOT
BRANCH   2   9
ATOM      9  C   UNL d   1       0.999  -2.027   1.211  0.00  0.00     0.062 C 
BRANCH   9  10
ATOM     10  C   UNL d   1       0.779  -3.107   2.253  0.00  0.00     0.003 A 
ATOM     11  C   UNL d   1       0.108  -2.922   3.474  0.00  0.00     0.043 A 
ATOM     12 CL   UNL d   1      -0.642  -1.435   3.917  0.00  0.00    -0.084 Cl
ATOM     13  C   UNL d   1       0.091  -3.931   4.455  0.00  0.00     0.024 A 
ATOM     14  C   UNL d   1       0.784  -5.123   4.267  0.00  0.00     0.005 A 
ATOM     15  C   UNL d   1       1.485  -5.315   3.086  0.00  0.00     0.043 A 
ATOM     16  C   UNL d   1       1.468  -4.326   2.100  0.00  0.00     0.124 A 
ATOM     17  F   UNL d   1       2.221  -4.539   1.009  0.00  0.00    -0.205 F 
ENDBRANCH   9  10
ENDBRANCH   2   9
BRANCH   1  18
ATOM     18  O   UNL d   1       1.006  -1.504  -1.897  0.00  0.00    -0.247 OA
BRANCH  18  19
ATOM     19  C   UNL d   1       0.946  -2.869  -2.162  0.00  0.00     0.369 C 
ATOM     20  N   UNL d   1       1.506  -3.173  -3.405  0.00  0.00    -0.328 N 
ATOM     21  O   UNL d   1       0.480  -3.701  -1.396  0.00  0.00    -0.238 OA
BRANCH  20  22
ATOM     22  C   UNL d   1       1.813  -4.561  -3.732  0.00  0.00     0.123 C 
ATOM     23  C   UNL d   1       0.921  -5.159  -4.804  0.00  0.00     0.026 C 
ENDBRANCH  20  22
BRANCH  20  24
ATOM     24  C   UNL d   1       1.714  -2.143  -4.424  0.00  0.00     0.123 C 
ATOM     25  C   UNL d   1       0.423  -1.780  -5.152  0.00  0.00     0.026 C 
ENDBRANCH  20  24
ENDBRANCH  18  19
ENDBRANCH   1  18
BRANCH   8  26
ATOM     26  C   UNL d   1      -2.585  -1.148   0.898  0.00  0.00     0.053 C 
BRANCH  26  27
ATOM     27  C   UNL d   1      -2.990  -2.511   0.335  0.00  0.00     0.001 C 
ATOM     28  C   UNL d   1      -2.966  -3.611   1.379  0.00  0.00     0.005 C 
ENDBRANCH  26  27
ENDBRANCH   8  26
BRANCH   5  29
ATOM     29  C   UNL d   1      -0.072   2.679  -0.001  0.00  0.00     0.076 A 
ATOM     30  N   UNL d   1       1.089   3.216  -0.477  0.00  0.00    -0.363 N 
ATOM     31  C   UNL d   1       1.218   4.561  -0.457  0.00  0.00     0.088 A 
ATOM     32  HN  UNL d   1       1.835   2.621  -0.837  1.00  0.00     0.165 HD
ATOM     33  C   UNL d   1       0.240   5.423   0.007  0.00  0.00     0.017 A 
ATOM     34  C   UNL d   1      -0.942   4.876   0.492  0.00  0.00     0.004 A 
ATOM     35  C   UNL d   1      -1.096   3.491   0.495  0.00  0.00     0.033 A 
ENDBRANCH   5  29
TORSDOF 9
