REMARK  1 active torsions:
REMARK  status: ('A' for Active; 'I' for Inactive)
REMARK    1  A    between atoms: N_9  and  C_4 
ROOT
ATOM      1  C   UNL d   1      -1.037   0.502  -0.028  0.00  0.00    -0.007 C 
ATOM      2  C   UNL d   1      -1.069  -0.595  -0.901  0.00  0.00     0.027 C 
ATOM      3  C   UNL d   1      -2.276  -1.469  -0.485  0.00  0.00     0.007 C 
ATOM      4  C   UNL d   1       0.030   1.374  -0.005  0.00  0.00     0.032 C 
ATOM      5  C   UNL d   1      -2.057   0.165   1.059  0.00  0.00     0.031 C 
ATOM      6  C   UNL d   1      -2.014  -1.423   1.047  0.00  0.00    -0.027 C 
ATOM      7  N   UNL d   1       0.038  -1.073  -1.491  0.00  0.00    -0.358 N 
ATOM      8  HN  UNL d   1       0.010  -1.844  -2.158  1.00  0.00     0.166 HD
ATOM      9  C   UNL d   1       1.242   0.767  -0.431  0.00  0.00     0.013 A 
ATOM     10  C   UNL d   1       1.187  -0.465  -1.143  0.00  0.00     0.044 A 
ATOM     11  C   UNL d   1      -3.573  -0.607  -0.634  0.00  0.00     0.017 C 
ATOM     12  C   UNL d   1      -3.421   0.494   0.440  0.00  0.00     0.011 C 
ATOM     13  C   UNL d   1      -2.400  -2.805  -1.187  0.00  0.00     0.023 C 
ATOM     14  C   UNL d   1      -0.657  -2.062   1.472  0.00  0.00     0.016 C 
ATOM     15  C   UNL d   1      -3.089  -2.055   1.948  0.00  0.00     0.016 C 
ATOM     16  C   UNL d   1       2.500   1.276  -0.039  0.00  0.00     0.015 A 
ATOM     17  C   UNL d   1       2.381  -1.138  -1.388  0.00  0.00     0.030 A 
ATOM     18  C   UNL d   1       3.677   0.565  -0.276  0.00  0.00     0.001 A 
ATOM     19  C   UNL d   1       3.611  -0.651  -0.941  0.00  0.00     0.002 A 
ENDROOT
BRANCH   4  20
ATOM     20  N   UNL d   1      -0.008   2.703   0.463  0.00  0.00    -0.279 NA
ATOM     21  C   UNL d   1      -1.241   3.213   1.106  0.00  0.00     0.126 C 
ATOM     22  C   UNL d   1      -0.985   4.612   1.719  0.00  0.00     0.286 C 
ATOM     23  N   UNL d   1      -0.501   5.608   0.742  0.00  0.00     0.086 N 
ATOM     24  C   UNL d   1       0.675   5.065   0.025  0.00  0.00     0.286 C 
ATOM     25  C   UNL d   1      -0.154   6.854   1.424  0.00  0.00     0.310 C 
ATOM     26  C   UNL d   1       0.412   3.672  -0.600  0.00  0.00     0.126 C 
ENDBRANCH   4  20
TORSDOF 1
