REMARK  4 active torsions:
REMARK  status: ('A' for Active; 'I' for Inactive)
REMARK    1  A    between atoms: C_9  and  C_3 
REMARK    2  A    between atoms: O_14  and  C_4 
REMARK    3  A    between atoms: N_13  and  C_5 
REMARK    4  A    between atoms: C_8  and  C_9 
ROOT
ATOM      1  N   UNL d   1      -0.567   1.273   0.025  0.00  0.00    -0.313 N 
ATOM      2  HN  UNL d   1      -1.037   2.179   0.029  1.00  0.00     0.170 HD
ATOM      3  C   UNL d   1      -0.685  -1.146   0.053  0.00  0.00     0.019 A 
ATOM      4  C   UNL d   1      -1.248   0.120   0.054  0.00  0.00     0.150 A 
ATOM      5  C   UNL d   1       0.753   1.167  -0.008  0.00  0.00     0.157 A 
ATOM      6  N   UNL d   1       1.422   0.016   0.045  0.00  0.00    -0.336 N 
ATOM      7  HN  UNL d   1       2.442   0.001   0.074  1.00  0.00     0.168 HD
ATOM      8  C   UNL d   1       0.704  -1.133   0.060  0.00  0.00     0.018 A 
ATOM      9  C   UNL d   1       1.532  -2.381   0.032  0.00  0.00     0.069 C 
ENDROOT
BRANCH   3  10
ATOM     10  C   UNL d   1      -1.515  -2.400  -0.076  0.00  0.00     0.088 C 
BRANCH  10  11
ATOM     11  C   UNL d   1      -1.844  -3.162   1.191  0.00  0.00     0.007 A 
ATOM     12  C   UNL d   1      -1.409  -4.475   1.444  0.00  0.00     0.043 A 
ATOM     13 CL   UNL d   1      -0.383  -5.342   0.357  0.00  0.00    -0.084 Cl
ATOM     14  C   UNL d   1      -1.831  -5.169   2.589  0.00  0.00     0.024 A 
ATOM     15  C   UNL d   1      -2.705  -4.577   3.496  0.00  0.00     0.005 A 
ATOM     16  C   UNL d   1      -3.152  -3.284   3.263  0.00  0.00     0.043 A 
ATOM     17  C   UNL d   1      -2.721  -2.597   2.128  0.00  0.00     0.124 A 
ATOM     18  F   UNL d   1      -3.214  -1.367   1.923  0.00  0.00    -0.205 F 
ENDBRANCH  10  11
ENDBRANCH   3  10
BRANCH   4  19
ATOM     19  O   UNL d   1      -2.602   0.296   0.035  0.00  0.00    -0.346 OA
ATOM     20  H   UNL d   1      -2.946  -0.207   0.793  0.00  0.00     0.219 HD
ENDBRANCH   4  19
BRANCH   5  21
ATOM     21  N   UNL d   1       1.492   2.331  -0.079  0.00  0.00    -0.274 NA
ATOM     22  H   UNL d   1       0.950   3.103   0.281  0.00  0.00     0.127 HD
ATOM     23  H   UNL d   1       2.416   2.180   0.298  0.00  0.00     0.127 HD
ENDBRANCH   5  21
TORSDOF 4
