REMARK  5 active torsions:
REMARK  status: ('A' for Active; 'I' for Inactive)
REMARK       I    between atoms: C_2  and  N_1 
REMARK    1  A    between atoms: C_4  and  N_1 
REMARK    2  A    between atoms: C_13  and  C_2 
REMARK       I    between atoms: C_3  and  N_6 
REMARK    3  A    between atoms: C_5  and  C_3 
REMARK    4  A    between atoms: N_7  and  C_4 
REMARK    5  A    between atoms: N_6  and  N_7 
ROOT
ATOM      1  C   UNL d   1       2.449  -0.056   0.066  0.00  0.00     0.193 C 
ATOM      2  S   UNL d   1       3.534  -1.268  -0.303  0.00  0.00    -0.039 SA
ENDROOT
BRANCH   1   3
ATOM      3  N   UNL d   1       1.095   0.008  -0.227  0.00  0.00    -0.298 N 
ATOM      4  C   UNL d   1       0.357  -0.841  -1.049  0.00  0.00     0.257 C 
ATOM      5  O   UNL d   1       0.844  -1.561  -1.914  0.00  0.00    -0.267 OA
ATOM      6  H   UNL d   1       0.603   0.595   0.423  0.00  0.00     0.171 HD
BRANCH   4   7
ATOM      7  C   UNL d   1      -1.134  -0.797  -0.938  0.00  0.00     0.032 A 
ATOM      8  C   UNL d   1      -1.844   0.262  -0.359  0.00  0.00     0.017 A 
ATOM      9  C   UNL d   1      -3.245   0.248  -0.357  0.00  0.00     0.001 A 
ATOM     10  C   UNL d   1      -3.942  -0.815  -0.931  0.00  0.00     0.000 A 
ATOM     11  C   UNL d   1      -3.245  -1.875  -1.503  0.00  0.00     0.001 A 
ATOM     12  C   UNL d   1      -1.850  -1.865  -1.505  0.00  0.00     0.017 A 
ENDBRANCH   4   7
ENDBRANCH   1   3
BRANCH   1  13
ATOM     13  N   UNL d   1       2.926   1.036   0.753  0.00  0.00    -0.273 N 
ATOM     14  H   UNL d   1       3.914   1.055   1.013  0.00  0.00     0.189 HD
BRANCH  13  15
ATOM     15  N   UNL d   1       2.224   2.250   0.849  0.00  0.00    -0.262 N 
ATOM     16  C   UNL d   1       2.715   3.183   1.760  0.00  0.00     0.293 C 
ATOM     17  O   UNL d   1       3.537   2.881   2.624  0.00  0.00    -0.264 OA
ATOM     18  H   UNL d   1       1.823   2.626  -0.009  0.00  0.00     0.190 HD
BRANCH  16  19
ATOM     19  C   UNL d   1       2.201   4.522   1.578  0.00  0.00     0.144 A 
ATOM     20  O   UNL d   1       1.397   4.802   0.503  0.00  0.00    -0.317 OA
ATOM     21  C   UNL d   1       1.083   6.123   0.576  0.00  0.00     0.143 A 
ATOM     22  C   UNL d   1       1.661   6.698   1.683  0.00  0.00     0.027 A 
ATOM     23  C   UNL d   1       2.388   5.670   2.326  0.00  0.00     0.045 A 
ENDBRANCH  16  19
ENDBRANCH  13  15
ENDBRANCH   1  13
TORSDOF 5
