REMARK  5 active torsions:
REMARK  status: ('A' for Active; 'I' for Inactive)
REMARK    1  A    between atoms: C_8  and  C_1 
REMARK    2  A    between atoms: N_6  and  C_2 
REMARK    3  A    between atoms: O_20  and  C_8 
REMARK    4  A    between atoms: C_10  and  C_19 
REMARK    5  A    between atoms: N_12  and  O_20 
ROOT
ATOM      1  C   UNL d   1       2.731  -1.577  -0.032  0.00  0.00     0.320 C 
ATOM      2  O   UNL d   1       2.835  -2.657  -0.604  0.00  0.00    -0.257 OA
ENDROOT
BRANCH   1   3
ATOM      3  C   UNL d   1       1.489  -0.823   0.010  0.00  0.00     0.104 A 
ATOM      4  C   UNL d   1       0.176  -1.282  -0.041  0.00  0.00     0.145 A 
ATOM      5  N   UNL d   1      -0.619  -0.161  -0.101  0.00  0.00    -0.280 N 
ATOM      6  C   UNL d   1      -2.056  -0.014  -0.039  0.00  0.00     0.179 C 
ATOM      7  N   UNL d   1       0.096   0.987  -0.070  0.00  0.00    -0.307 N 
ATOM      8  C   UNL d   1       1.361   0.582   0.001  0.00  0.00     0.129 A 
ATOM      9  HN  UNL d   1      -0.255   1.944  -0.095  1.00  0.00     0.186 HD
BRANCH   4  10
ATOM     10  N   UNL d   1      -0.279  -2.605  -0.002  0.00  0.00    -0.317 N 
ATOM     11  C   UNL d   1      -1.424  -3.121  -0.582  0.00  0.00     0.098 A 
ATOM     12  C   UNL d   1      -1.524  -4.465  -0.296  0.00  0.00     0.019 A 
ATOM     13  C   UNL d   1      -0.402  -4.809   0.479  0.00  0.00     0.019 A 
ATOM     14  C   UNL d   1       0.340  -3.661   0.643  0.00  0.00     0.098 A 
ENDBRANCH   4  10
ENDBRANCH   1   3
BRANCH   1  15
ATOM     15  O   UNL d   1       3.754  -0.919   0.627  0.00  0.00    -0.195 OA
BRANCH  15  16
ATOM     16  N   UNL d   1       4.925  -1.702   0.557  0.00  0.00    -0.268 N 
ATOM     17  C   UNL d   1       5.879  -1.161   1.243  0.00  0.00     0.127 C 
ATOM     18  HN  UNL d   1       5.009  -2.575   0.036  1.00  0.00     0.194 HD
BRANCH  17  19
ATOM     19  C   UNL d   1       7.215  -1.798   1.304  0.00  0.00     0.003 A 
ATOM     20  C   UNL d   1       8.282  -1.227   2.009  0.00  0.00     0.047 A 
ATOM     21  C   UNL d   1       9.539  -1.845   2.001  0.00  0.00     0.048 A 
ATOM     22 CL   UNL d   1       8.129   0.238   2.912  0.00  0.00    -0.083 Cl
ATOM     23  C   UNL d   1       9.726  -3.034   1.297  0.00  0.00     0.035 A 
ATOM     24  C   UNL d   1       8.668  -3.621   0.608  0.00  0.00     0.025 A 
ATOM     25 CL   UNL d   1      11.275  -3.779   1.274  0.00  0.00    -0.084 Cl
ATOM     26  C   UNL d   1       7.415  -3.005   0.612  0.00  0.00     0.016 A 
ENDBRANCH  17  19
ENDBRANCH  15  16
ENDBRANCH   1  15
TORSDOF 5
