REMARK  5 active torsions:
REMARK  status: ('A' for Active; 'I' for Inactive)
REMARK    1  A    between atoms: C_8  and  C_2 
REMARK    2  A    between atoms: S_9  and  C_5 
REMARK    3  A    between atoms: C_16  and  S_9 
REMARK    4  A    between atoms: C_10  and  C_11 
REMARK    5  A    between atoms: C_17  and  C_16 
ROOT
ATOM      1  N   UNL d   1      -0.570   0.038   0.895  0.00  0.00    -0.320 N 
ATOM      2  C   UNL d   1      -0.291   1.029  -0.015  0.00  0.00     0.132 A 
ATOM      3  N   UNL d   1       0.509   0.512  -0.936  0.00  0.00    -0.283 N 
ATOM      4  HN  UNL d   1       0.859   1.001  -1.760  1.00  0.00     0.188 HD
ATOM      5  C   UNL d   1       0.148  -1.050   0.511  0.00  0.00     0.161 A 
ATOM      6  N   UNL d   1       0.791  -0.794  -0.599  0.00  0.00    -0.278 N 
ATOM      7  HN  UNL d   1       1.388  -1.439  -1.116  1.00  0.00     0.189 HD
ATOM      8  H   UNL d   1      -1.143   0.104   1.720  0.00  0.00     0.169 HD
ENDROOT
BRANCH   2   9
ATOM      9  C   UNL d   1      -0.769   2.412   0.053  0.00  0.00     0.009 A 
ATOM     10  C   UNL d   1      -1.587   2.888   1.082  0.00  0.00     0.016 A 
ATOM     11  C   UNL d   1      -1.992   4.233   1.114  0.00  0.00     0.009 A 
ATOM     12  C   UNL d   1      -1.599   5.150   0.121  0.00  0.00    -0.051 A 
ATOM     13  C   UNL d   1      -0.780   4.660  -0.906  0.00  0.00     0.009 A 
ATOM     14  C   UNL d   1      -0.375   3.318  -0.939  0.00  0.00     0.016 A 
BRANCH  12  15
ATOM     15  C   UNL d   1      -2.073   6.614   0.176  0.00  0.00    -0.024 C 
ATOM     16  C   UNL d   1      -1.550   7.480  -0.993  0.00  0.00     0.019 C 
ATOM     17  C   UNL d   1      -3.615   6.660   0.124  0.00  0.00     0.019 C 
ATOM     18  C   UNL d   1      -1.593   7.280   1.484  0.00  0.00     0.019 C 
ENDBRANCH  12  15
ENDBRANCH   2   9
BRANCH   5  19
ATOM     19  S   UNL d   1       0.160  -2.483   1.459  0.00  0.00    -0.088 SA
BRANCH  19  20
ATOM     20  C   UNL d   1       1.740  -3.205   0.914  0.00  0.00     0.121 C 
BRANCH  20  21
ATOM     21  C   UNL d   1       2.046  -4.492   1.643  0.00  0.00    -0.049 A 
ATOM     22  C   UNL d   1       1.686  -5.728   1.085  0.00  0.00     0.008 A 
ATOM     23  C   UNL d   1       1.975  -6.919   1.754  0.00  0.00     0.001 A 
ATOM     24  C   UNL d   1       2.620  -6.888   2.988  0.00  0.00     0.000 A 
ATOM     25  C   UNL d   1       2.973  -5.667   3.559  0.00  0.00     0.001 A 
ATOM     26  C   UNL d   1       2.686  -4.474   2.891  0.00  0.00     0.008 A 
ENDBRANCH  20  21
ENDBRANCH  19  20
ENDBRANCH   5  19
TORSDOF 5
