REMARK  4 active torsions:
REMARK  status: ('A' for Active; 'I' for Inactive)
REMARK    1  A    between atoms: C_5  and  N_1 
REMARK    2  A    between atoms: N_2  and  C_8 
REMARK    3  A    between atoms: C_11  and  C_3 
REMARK    4  A    between atoms: C_4  and  C_14 
ROOT
ATOM      1  C   UNL d   1       1.453   4.665   1.852  0.00  0.00     0.055 C 
ATOM      2  C   UNL d   1       0.301   4.123   2.308  0.00  0.00     0.035 C 
ATOM      3  C   UNL d   1       2.369   3.870   1.081  0.00  0.00     0.100 C 
ATOM      4  N   UNL d   1       3.098   3.228   0.445  0.00  0.00    -0.191 NA
ENDROOT
BRANCH   1   5
ATOM      5  C   UNL d   1       1.764   6.104   2.097  0.00  0.00    -0.015 A 
ATOM      6  C   UNL d   1       1.405   6.745   3.299  0.00  0.00     0.015 A 
ATOM      7  C   UNL d   1       1.702   8.097   3.522  0.00  0.00     0.037 A 
ATOM      8  C   UNL d   1       2.379   8.829   2.542  0.00  0.00     0.102 A 
ATOM      9  C   UNL d   1       2.761   8.214   1.346  0.00  0.00     0.037 A 
ATOM     10  C   UNL d   1       2.454   6.863   1.131  0.00  0.00     0.015 A 
BRANCH   8  11
ATOM     11  N   UNL d   1       2.690  10.247   2.770  0.00  0.00    -0.116 N 
ATOM     12  O   UNL d   1       2.321  10.752   3.840  0.00  0.00    -0.532 OA
ATOM     13  O   UNL d   1       3.298  10.854   1.878  0.00  0.00    -0.532 OA
ENDBRANCH   8  11
ENDBRANCH   1   5
BRANCH   2  14
ATOM     14  C   UNL d   1      -0.102   2.728   2.081  0.00  0.00    -0.032 A 
ATOM     15  C   UNL d   1       0.344   1.709   2.930  0.00  0.00     0.047 A 
ATOM     16  C   UNL d   1      -0.003   0.378   2.652  0.00  0.00     0.103 A 
ATOM     17  C   UNL d   1      -0.800   0.061   1.545  0.00  0.00     0.036 A 
ATOM     18  C   UNL d   1      -1.252   1.084   0.711  0.00  0.00     0.003 A 
ATOM     19  C   UNL d   1      -0.904   2.410   0.977  0.00  0.00     0.011 A 
BRANCH  16  20
ATOM     20  N   UNL d   1       0.484  -0.699   3.524  0.00  0.00    -0.116 N 
ATOM     21  O   UNL d   1       1.190  -0.380   4.492  0.00  0.00    -0.532 OA
ATOM     22  O   UNL d   1       0.156  -1.860   3.246  0.00  0.00    -0.532 OA
ENDBRANCH  16  20
ENDBRANCH   2  14
TORSDOF 4
