REMARK  6 active torsions:
REMARK  status: ('A' for Active; 'I' for Inactive)
REMARK    1  A    between atoms: C_11  and  C_1 
REMARK    2  A    between atoms: N_3  and  C_2 
REMARK    3  A    between atoms: C_4  and  C_6 
REMARK    4  A    between atoms: C_10  and  C_4 
REMARK    5  A    between atoms: N_8  and  C_5 
REMARK       I    between atoms: C_6  and  N_8 
REMARK    6  A    between atoms: O_23  and  C_11 
ROOT
ATOM      1  C   UNL d   1       1.664   3.638   1.179  0.00  0.00     0.113 C 
ATOM      2  C   UNL d   1       0.419   3.005   1.478  0.00  0.00     0.105 C 
ATOM      3  N   UNL d   1      -0.594   2.478   1.676  0.00  0.00    -0.191 NA
ENDROOT
BRANCH   1   4
ATOM      4  C   UNL d   1       2.787   2.804   0.602  0.00  0.00     0.266 C 
ATOM      5  N   UNL d   1       2.397   1.561   0.136  0.00  0.00    -0.321 N 
ATOM      6  H   UNL d   1       1.408   1.392  -0.017  0.00  0.00     0.169 HD
ATOM      7  O   UNL d   1       3.927   3.245   0.514  0.00  0.00    -0.267 OA
BRANCH   5   8
ATOM      8  C   UNL d   1       3.223   0.569  -0.405  0.00  0.00     0.058 A 
ATOM      9  C   UNL d   1       4.588   0.338  -0.262  0.00  0.00     0.106 A 
ATOM     10  S   UNL d   1       5.104  -0.971  -1.277  0.00  0.00    -0.094 SA
ATOM     11  C   UNL d   1       3.527  -1.293  -1.811  0.00  0.00     0.053 A 
ATOM     12  C   UNL d   1       2.621  -0.421  -1.261  0.00  0.00     0.038 A 
BRANCH   9  13
ATOM     13  C   UNL d   1       5.646   0.918   0.551  0.00  0.00     0.302 C 
ATOM     14  O   UNL d   1       6.833   0.970   0.241  0.00  0.00    -0.259 OA
BRANCH  13  15
ATOM     15  O   UNL d   1       5.178   1.299   1.779  0.00  0.00    -0.322 OA
ATOM     16  C   UNL d   1       6.173   1.959   2.566  0.00  0.00     0.213 C 
ENDBRANCH  13  15
ENDBRANCH   9  13
ENDBRANCH   5   8
ENDBRANCH   1   4
BRANCH   1  17
ATOM     17  C   UNL d   1       1.759   4.960   1.429  0.00  0.00     0.047 C 
ATOM     18  C   UNL d   1       2.888   5.777   1.154  0.00  0.00     0.009 A 
ATOM     19  S   UNL d   1       2.964   6.628  -0.341  0.00  0.00    -0.066 SA
ATOM     20  C   UNL d   1       3.971   6.089   1.957  0.00  0.00     0.022 A 
ATOM     21  C   UNL d   1       4.385   7.435   0.116  0.00  0.00     0.144 A 
ATOM     22  C   UNL d   1       4.837   7.056   1.360  0.00  0.00     0.045 A 
BRANCH  21  23
ATOM     23  N   UNL d   1       4.973   8.425  -0.749  0.00  0.00    -0.108 N 
ATOM     24  O   UNL d   1       5.956   9.031  -0.299  0.00  0.00    -0.531 OA
ATOM     25  O   UNL d   1       4.457   8.620  -1.857  0.00  0.00    -0.531 OA
ENDBRANCH  21  23
ENDBRANCH   1  17
TORSDOF 6
