REMARK  7 active torsions:
REMARK  status: ('A' for Active; 'I' for Inactive)
REMARK    1  A    between atoms: N_3  and  C_1 
REMARK    2  A    between atoms: N_4  and  C_2 
REMARK    3  A    between atoms: C_7  and  N_3 
REMARK    4  A    between atoms: C_8  and  N_4 
REMARK    5  A    between atoms: N_11  and  C_22 
REMARK    6  A    between atoms: C_21  and  N_12 
REMARK    7  A    between atoms: C_22  and  C_21 
ROOT
ATOM      1  C   UNL d   1       3.156   1.334  -0.696  0.00  0.00     0.141 C 
ENDROOT
BRANCH   1   2
ATOM      2  N   UNL d   1       2.938   2.779  -0.678  0.00  0.00    -0.365 N 
ATOM      3  C   UNL d   1       2.899   3.635  -1.734  0.00  0.00     0.172 C 
ATOM      4  S   UNL d   1       2.553   3.204  -3.310  0.00  0.00    -0.041 SA
ATOM      5  H   UNL d   1       2.811   3.199   0.234  0.00  0.00     0.161 HD
BRANCH   3   6
ATOM      6  N   UNL d   1       3.135   4.955  -1.471  0.00  0.00    -0.333 N 
ATOM      7  H   UNL d   1       2.852   5.563  -2.236  0.00  0.00     0.168 HD
BRANCH   6   8
ATOM      8  C   UNL d   1       3.842   5.581  -0.422  0.00  0.00     0.035 A 
ATOM      9  C   UNL d   1       4.641   4.905   0.506  0.00  0.00     0.053 A 
ATOM     10  C   UNL d   1       5.292   5.601   1.520  0.00  0.00     0.036 A 
ATOM     11 CL   UNL d   1       6.223   4.738   2.684  0.00  0.00    -0.084 Cl
ATOM     12  C   UNL d   1       5.201   6.985   1.605  0.00  0.00     0.024 A 
ATOM     13  C   UNL d   1       4.456   7.680   0.651  0.00  0.00     0.004 A 
ATOM     14  C   UNL d   1       3.785   6.980  -0.356  0.00  0.00     0.029 A 
ENDBRANCH   6   8
ENDBRANCH   3   6
ENDBRANCH   1   2
BRANCH   1  15
ATOM     15  C   UNL d   1       4.618   1.001  -0.370  0.00  0.00     0.141 C 
BRANCH  15  16
ATOM     16  N   UNL d   1       5.557   1.531  -1.355  0.00  0.00    -0.365 N 
ATOM     17  C   UNL d   1       6.915   1.516  -1.270  0.00  0.00     0.172 C 
ATOM     18  S   UNL d   1       7.789   1.372   0.146  0.00  0.00    -0.041 SA
ATOM     19  H   UNL d   1       5.168   2.042  -2.142  0.00  0.00     0.161 HD
BRANCH  17  20
ATOM     20  N   UNL d   1       7.614   1.636  -2.439  0.00  0.00    -0.333 N 
ATOM     21  H   UNL d   1       8.595   1.834  -2.281  0.00  0.00     0.168 HD
BRANCH  20  22
ATOM     22  C   UNL d   1       7.314   1.122  -3.724  0.00  0.00     0.035 A 
ATOM     23  C   UNL d   1       6.142   0.431  -4.045  0.00  0.00     0.053 A 
ATOM     24  C   UNL d   1       5.991  -0.155  -5.303  0.00  0.00     0.036 A 
ATOM     25 CL   UNL d   1       4.547  -1.020  -5.666  0.00  0.00    -0.084 Cl
ATOM     26  C   UNL d   1       7.005  -0.082  -6.250  0.00  0.00     0.024 A 
ATOM     27  C   UNL d   1       8.178   0.608  -5.946  0.00  0.00     0.004 A 
ATOM     28  C   UNL d   1       8.325   1.210  -4.693  0.00  0.00     0.029 A 
ENDBRANCH  20  22
ENDBRANCH  17  20
ENDBRANCH  15  16
ENDBRANCH   1  15
TORSDOF 7
