REMARK  3 active torsions:
REMARK  status: ('A' for Active; 'I' for Inactive)
REMARK    1  A    between atoms: C_4  and  N_1 
REMARK    2  A    between atoms: C_3  and  C_2 
REMARK       I    between atoms: N_5  and  C_3 
REMARK    3  A    between atoms: C_9  and  N_5 
ROOT
ATOM      1  C   UNL d   1       1.764  -0.950  -2.614  0.00  0.00     0.258 C 
ATOM      2  N   UNL d   1       2.237  -1.185  -3.893  0.00  0.00    -0.323 N 
ATOM      3  O   UNL d   1       2.285  -1.345  -1.575  0.00  0.00    -0.267 OA
ATOM      4  H   UNL d   1       1.764  -0.785  -4.695  0.00  0.00     0.169 HD
ENDROOT
BRANCH   1   5
ATOM      5  C   UNL d   1       0.498  -0.172  -2.470  0.00  0.00     0.065 A 
ATOM      6  C   UNL d   1       0.084   0.883  -3.284  0.00  0.00     0.118 A 
ATOM      7  C   UNL d   1      -1.147   1.537  -3.098  0.00  0.00     0.037 A 
ATOM      8  C   UNL d   1      -1.964   1.152  -2.038  0.00  0.00     0.002 A 
ATOM      9  C   UNL d   1      -1.548   0.141  -1.173  0.00  0.00     0.001 A 
ATOM     10  C   UNL d   1      -0.331  -0.516  -1.387  0.00  0.00     0.020 A 
BRANCH   6  11
ATOM     11  N   UNL d   1       0.940   1.390  -4.321  0.00  0.00    -0.115 N 
ATOM     12  O   UNL d   1       1.874   2.123  -3.981  0.00  0.00    -0.532 OA
ATOM     13  O   UNL d   1       0.698   1.004  -5.471  0.00  0.00    -0.532 OA
ENDBRANCH   6  11
ENDBRANCH   1   5
BRANCH   2  14
ATOM     14  C   UNL d   1       3.430  -1.875  -4.217  0.00  0.00     0.035 A 
ATOM     15  C   UNL d   1       4.077  -2.753  -3.345  0.00  0.00     0.031 A 
ATOM     16  C   UNL d   1       5.268  -3.382  -3.723  0.00  0.00     0.021 A 
ATOM     17  C   UNL d   1       5.823  -3.119  -4.972  0.00  0.00     0.011 A 
ATOM     18  C   UNL d   1       5.181  -2.259  -5.859  0.00  0.00     0.021 A 
ATOM     19 BR   UNL d   1       7.458  -3.929  -5.463  0.00  0.00    -0.051 Br
ATOM     20  C   UNL d   1       3.977  -1.652  -5.487  0.00  0.00     0.031 A 
ENDBRANCH   2  14
TORSDOF 3
