REMARK  5 active torsions:
REMARK  status: ('A' for Active; 'I' for Inactive)
REMARK    1  A    between atoms: O_5  and  C_1 
REMARK    2  A    between atoms: N_3  and  C_2 
REMARK    3  A    between atoms: C_6  and  O_5 
REMARK    4  A    between atoms: C_7  and  O_8 
REMARK    5  A    between atoms: O_8  and  C_9 
ROOT
ATOM      1  C   UNL d   1       0.448   1.272   0.090  0.00  0.00     0.133 A 
ATOM      2  C   UNL d   1       1.810   1.258  -0.247  0.00  0.00     0.138 A 
ATOM      3  C   UNL d   1      -0.230   0.038   0.130  0.00  0.00     0.104 A 
ATOM      4  C   UNL d   1       0.451  -1.169  -0.111  0.00  0.00     0.101 A 
ATOM      5  C   UNL d   1       2.489   0.066  -0.536  0.00  0.00     0.042 A 
ATOM      6  C   UNL d   1       1.803  -1.142  -0.487  0.00  0.00     0.041 A 
ATOM      7 CL   UNL d   1      -1.927  -0.004   0.510  0.00  0.00    -0.078 Cl
ENDROOT
BRANCH   1   8
ATOM      8  O   UNL d   1      -0.318   2.389   0.345  0.00  0.00    -0.303 OA
BRANCH   8   9
ATOM      9  C   UNL d   1       0.168   3.422   1.112  0.00  0.00     0.119 A 
ATOM     10  C   UNL d   1      -0.008   4.720   0.600  0.00  0.00     0.069 A 
ATOM     11 CL   UNL d   1      -0.815   4.989  -0.906  0.00  0.00    -0.081 Cl
ATOM     12  C   UNL d   1       0.472   5.833   1.293  0.00  0.00     0.027 A 
ATOM     13  C   UNL d   1       1.115   5.665   2.517  0.00  0.00     0.003 A 
ATOM     14  C   UNL d   1       1.244   4.388   3.062  0.00  0.00     0.027 A 
ATOM     15  C   UNL d   1       0.753   3.270   2.377  0.00  0.00     0.069 A 
ATOM     16 CL   UNL d   1       0.881   1.743   3.176  0.00  0.00    -0.081 Cl
ENDBRANCH   8   9
ENDBRANCH   1   8
BRANCH   2  17
ATOM     17  N   UNL d   1       2.595   2.466  -0.339  0.00  0.00    -0.113 N 
ATOM     18  O   UNL d   1       2.331   3.242  -1.263  0.00  0.00    -0.532 OA
ATOM     19  O   UNL d   1       3.508   2.611   0.490  0.00  0.00    -0.532 OA
ENDBRANCH   2  17
BRANCH   4  20
ATOM     20  O   UNL d   1      -0.250  -2.353   0.059  0.00  0.00    -0.305 OA
BRANCH  20  21
ATOM     21  C   UNL d   1       0.478  -3.478   0.383  0.00  0.00     0.119 A 
ATOM     22  C   UNL d   1       1.217  -3.580   1.572  0.00  0.00     0.069 A 
ATOM     23 CL   UNL d   1       1.159  -2.372   2.807  0.00  0.00    -0.081 Cl
ATOM     24  C   UNL d   1       2.044  -4.686   1.789  0.00  0.00     0.027 A 
ATOM     25  C   UNL d   1       2.097  -5.716   0.851  0.00  0.00     0.003 A 
ATOM     26  C   UNL d   1       1.297  -5.660  -0.291  0.00  0.00     0.027 A 
ATOM     27  C   UNL d   1       0.484  -4.548  -0.522  0.00  0.00     0.069 A 
ATOM     28 CL   UNL d   1      -0.471  -4.515  -1.960  0.00  0.00    -0.081 Cl
ENDBRANCH  20  21
ENDBRANCH   4  20
TORSDOF 5
