REMARK  5 active torsions:
REMARK  status: ('A' for Active; 'I' for Inactive)
REMARK    1  A    between atoms: C_7  and  C_1 
REMARK    2  A    between atoms: C_6  and  C_2 
REMARK    3  A    between atoms: C_8  and  C_5 
REMARK    4  A    between atoms: O_16  and  C_6 
REMARK    5  A    between atoms: C_22  and  O_16 
ROOT
ATOM      1  C   UNL d   1       0.566  -2.362   0.128  0.00  0.00     0.303 C 
ATOM      2  O   UNL d   1       1.792  -2.296   0.174  0.00  0.00    -0.259 OA
ENDROOT
BRANCH   1   3
ATOM      3  C   UNL d   1      -0.304  -1.216   0.269  0.00  0.00     0.100 C 
ATOM      4  C   UNL d   1      -0.179  -0.006   1.039  0.00  0.00     0.087 C 
ATOM      5  N   UNL d   1      -1.348   0.662   0.991  0.00  0.00    -0.259 N 
ATOM      6  O   UNL d   1      -2.131   0.043   0.054  0.00  0.00    -0.241 OA
ATOM      7  HN  UNL d   1      -1.602   1.477   1.550  1.00  0.00     0.195 HD
ATOM      8  C   UNL d   1      -1.498  -1.059  -0.408  0.00  0.00     0.091 C 
ATOM      9  C   UNL d   1      -2.186  -1.766  -1.511  0.00  0.00     0.080 C 
BRANCH   4  10
ATOM     10  C   UNL d   1       0.944   0.576   1.806  0.00  0.00     0.037 A 
ATOM     11  C   UNL d   1       1.272   1.950   1.671  0.00  0.00     0.048 A 
ATOM     12 CL   UNL d   1       0.421   3.054   0.632  0.00  0.00    -0.083 Cl
ATOM     13  C   UNL d   1       2.344   2.526   2.374  0.00  0.00     0.025 A 
ATOM     14  C   UNL d   1       3.151   1.746   3.189  0.00  0.00     0.003 A 
ATOM     15  C   UNL d   1       2.846   0.402   3.351  0.00  0.00     0.025 A 
ATOM     16  C   UNL d   1       1.731  -0.166   2.708  0.00  0.00     0.048 A 
ATOM     17 CL   UNL d   1       1.333  -1.762   3.226  0.00  0.00    -0.083 Cl
ENDBRANCH   4  10
ENDBRANCH   1   3
BRANCH   1  18
ATOM     18  O   UNL d   1      -0.173  -3.549   0.003  0.00  0.00    -0.275 OA
BRANCH  18  19
ATOM     19  C   UNL d   1       0.481  -4.705   0.441  0.00  0.00     0.082 A 
ATOM     20  C   UNL d   1       0.656  -4.909   1.804  0.00  0.00     0.075 A 
ATOM     21  C   UNL d   1       1.350  -6.036   2.233  0.00  0.00     0.093 A 
ATOM     22  O   UNL d   1       1.563  -6.126   3.621  0.00  0.00    -0.275 OA
ATOM     23  C   UNL d   1       1.825  -7.005   1.346  0.00  0.00     0.013 A 
ATOM     24  C   UNL d   1       2.326  -7.142   4.159  0.00  0.00     0.289 A 
ATOM     25  O   UNL d   1       2.580  -7.216   5.355  0.00  0.00    -0.260 OA
ATOM     26  C   UNL d   1       2.826  -8.155   3.224  0.00  0.00     0.099 A 
ATOM     27  C   UNL d   1       2.602  -8.127   1.899  0.00  0.00     0.066 A 
ATOM     28  C   UNL d   1       1.537  -6.827  -0.018  0.00  0.00     0.018 A 
ATOM     29  C   UNL d   1       0.864  -5.680  -0.472  0.00  0.00     0.038 A 
BRANCH  27  30
ATOM     30  C   UNL d   1       3.162  -9.186   1.001  0.00  0.00     0.418 C 
ATOM     31  F   UNL d   1       2.228  -9.713   0.170  0.00  0.00    -0.166 F 
ATOM     32  F   UNL d   1       4.164  -8.705   0.224  0.00  0.00    -0.166 F 
ATOM     33  F   UNL d   1       3.682 -10.231   1.699  0.00  0.00    -0.166 F 
ENDBRANCH  27  30
ENDBRANCH  18  19
ENDBRANCH   1  18
TORSDOF 5
