REMARK  9 active torsions:
REMARK  status: ('A' for Active; 'I' for Inactive)
REMARK    1  A    between atoms: N_3  and  S_1 
REMARK    2  A    between atoms: C_12  and  S_1 
REMARK    3  A    between atoms: N_9  and  N_3 
REMARK    4  A    between atoms: C_4  and  C_13 
REMARK    5  A    between atoms: C_28  and  C_5 
REMARK       I    between atoms: C_7  and  N_9 
REMARK    6  A    between atoms: C_19  and  C_7 
REMARK    7  A    between atoms: O_20  and  C_19 
REMARK    8  A    between atoms: C_21  and  O_20 
REMARK    9  A    between atoms: C_33  and  C_28 
ROOT
ATOM      1  C   UNL d   1       0.253  -1.748   3.170  0.00  0.00     0.261 C 
ATOM      2  N   UNL d   1       0.080  -3.120   3.292  0.00  0.00    -0.276 N 
ATOM      3  O   UNL d   1       0.887  -1.260   2.233  0.00  0.00    -0.269 OA
ATOM      4  H   UNL d   1      -0.626  -3.531   3.901  0.00  0.00     0.184 HD
ENDROOT
BRANCH   1   5
ATOM      5  C   UNL d   1      -0.444  -0.927   4.266  0.00  0.00     0.218 C 
ATOM      6  C   UNL d   1      -0.888   0.428   3.730  0.00  0.00     0.050 C 
BRANCH   5   7
ATOM      7  O   UNL d   1       0.451  -0.680   5.353  0.00  0.00    -0.337 OA
BRANCH   7   8
ATOM      8  C   UNL d   1       0.361  -1.475   6.457  0.00  0.00     0.072 A 
ATOM      9  C   UNL d   1       1.539  -1.637   7.186  0.00  0.00     0.075 A 
ATOM     10  C   UNL d   1       1.553  -2.489   8.293  0.00  0.00     0.092 A 
ATOM     11  O   UNL d   1       2.797  -2.673   8.928  0.00  0.00    -0.275 OA
ATOM     12  C   UNL d   1       0.410  -3.160   8.729  0.00  0.00     0.004 A 
ATOM     13  C   UNL d   1       2.946  -3.608   9.937  0.00  0.00     0.288 C 
ATOM     14  O   UNL d   1       4.034  -3.876  10.433  0.00  0.00    -0.260 OA
ATOM     15  C   UNL d   1       1.720  -4.263  10.422  0.00  0.00     0.090 C 
ATOM     16  C   UNL d   1       0.507  -4.065   9.883  0.00  0.00    -0.039 C 
ATOM     17  C   UNL d   1      -0.777  -2.932   8.028  0.00  0.00     0.017 A 
ATOM     18  C   UNL d   1      -0.804  -2.088   6.912  0.00  0.00     0.038 A 
BRANCH  16  19
ATOM     19  C   UNL d   1      -0.720  -4.721  10.469  0.00  0.00     0.039 C 
BRANCH  19  20
ATOM     20  C   UNL d   1      -1.083  -6.038   9.777  0.00  0.00     0.000 C 
ATOM     21  C   UNL d   1      -2.343  -6.644  10.379  0.00  0.00     0.005 C 
ENDBRANCH  19  20
ENDBRANCH  16  19
ENDBRANCH   7   8
ENDBRANCH   5   7
ENDBRANCH   1   5
BRANCH   2  22
ATOM     22  N   UNL d   1       0.543  -3.940   2.158  0.00  0.00    -0.123 NA
ATOM     23  H   UNL d   1       1.032  -3.390   1.440  0.00  0.00     0.166 HD
BRANCH  22  24
ATOM     24  S   UNL d   1      -0.575  -5.062   1.536  0.00  0.00     0.258 S 
ATOM     25  O   UNL d   1      -1.623  -4.298   0.885  0.00  0.00    -0.204 OA
ATOM     26  O   UNL d   1      -0.887  -6.004   2.585  0.00  0.00    -0.204 OA
BRANCH  24  27
ATOM     27  C   UNL d   1       0.385  -5.872   0.283  0.00  0.00     0.076 A 
ATOM     28  C   UNL d   1       1.045  -7.070   0.578  0.00  0.00     0.041 A 
ATOM     29  C   UNL d   1       1.792  -7.721  -0.418  0.00  0.00     0.049 A 
ATOM     30  C   UNL d   1       1.855  -7.154  -1.703  0.00  0.00     0.016 A 
ATOM     31  C   UNL d   1       1.178  -5.967  -1.994  0.00  0.00     0.002 A 
ATOM     32  C   UNL d   1       0.436  -5.326  -1.003  0.00  0.00     0.025 A 
BRANCH  29  33
ATOM     33  C   UNL d   1       2.526  -9.011  -0.134  0.00  0.00     0.417 C 
ATOM     34  F   UNL d   1       2.359  -9.464   1.139  0.00  0.00    -0.166 F 
ATOM     35  F   UNL d   1       2.126 -10.027  -0.948  0.00  0.00    -0.166 F 
ATOM     36  F   UNL d   1       3.870  -8.892  -0.315  0.00  0.00    -0.166 F 
ENDBRANCH  29  33
ENDBRANCH  24  27
ENDBRANCH  22  24
ENDBRANCH   2  22
TORSDOF 9
