REMARK  2 active torsions:
REMARK  status: ('A' for Active; 'I' for Inactive)
REMARK    1  A    between atoms: C_4  and  C_1 
REMARK    2  A    between atoms: C_7  and  C_4 
ROOT
ATOM      1  C   UNL d   1       0.789  -0.112  -0.025  0.00  0.00     0.084 C 
ATOM      2  C   UNL d   1       2.079  -0.475   0.048  0.00  0.00     0.080 C 
ATOM      3  C   UNL d   1       3.198   0.515   0.318  0.00  0.00     0.262 C 
ATOM      4  N   UNL d   1       2.450  -1.818  -0.181  0.00  0.00    -0.287 NA
ATOM      5  N   UNL d   1       4.400   0.212  -0.286  0.00  0.00    -0.355 N 
ATOM      6  O   UNL d   1       3.109   1.460   1.089  0.00  0.00    -0.267 OA
ATOM      7  C   UNL d   1       3.583  -2.005  -1.106  0.00  0.00     0.112 C 
ATOM      8  C   UNL d   1       4.770  -1.142  -0.663  0.00  0.00     0.137 C 
ATOM      9  H   UNL d   1       2.726  -2.201   0.726  0.00  0.00     0.127 HD
ATOM     10  H   UNL d   1       5.132   0.862  -0.028  0.00  0.00     0.162 HD
ENDROOT
BRANCH   1  11
ATOM     11  C   UNL d   1       0.219   1.263   0.004  0.00  0.00     0.184 C 
ATOM     12  O   UNL d   1       0.868   2.259  -0.291  0.00  0.00    -0.288 OA
BRANCH  11  13
ATOM     13  C   UNL d   1      -1.256   1.369   0.202  0.00  0.00     0.014 A 
ATOM     14  C   UNL d   1      -1.996   0.393   0.882  0.00  0.00     0.016 A 
ATOM     15  C   UNL d   1      -3.392   0.464   0.913  0.00  0.00     0.007 A 
ATOM     16  C   UNL d   1      -4.064   1.523   0.292  0.00  0.00    -0.062 A 
ATOM     17  C   UNL d   1      -3.320   2.527  -0.338  0.00  0.00     0.007 A 
ATOM     18  C   UNL d   1      -5.563   1.534   0.237  0.00  0.00     0.048 C 
ATOM     19  C   UNL d   1      -1.925   2.456  -0.374  0.00  0.00     0.016 A 
ENDBRANCH  11  13
ENDBRANCH   1  11
TORSDOF 2
