REMARK  8 active torsions:
REMARK  status: ('A' for Active; 'I' for Inactive)
REMARK    1  A    between atoms: O_2  and  C_1 
REMARK    2  A    between atoms: C_7  and  C_1 
REMARK    3  A    between atoms: C_4  and  O_2 
REMARK    4  A    between atoms: C_3  and  S_9 
REMARK    5  A    between atoms: O_16  and  C_3 
REMARK    6  A    between atoms: S_9  and  C_17 
REMARK    7  A    between atoms: C_23  and  O_16 
REMARK    8  A    between atoms: C_17  and  C_18 
ROOT
ATOM      1  C   UNL d   1       0.336  -0.357  -1.141  0.00  0.00     0.040 A 
ATOM      2  C   UNL d   1       0.784  -1.592  -1.627  0.00  0.00     0.018 A 
ATOM      3  C   UNL d   1      -0.765   0.258  -1.755  0.00  0.00     0.018 A 
ATOM      4  C   UNL d   1      -0.944  -1.576  -3.344  0.00  0.00    -0.048 A 
ATOM      5  C   UNL d   1      -1.399  -0.348  -2.843  0.00  0.00     0.009 A 
ATOM      6  C   UNL d   1       0.150  -2.194  -2.720  0.00  0.00     0.009 A 
ENDROOT
BRANCH   1   7
ATOM      7  C   UNL d   1       1.092   0.293  -0.033  0.00  0.00     0.298 C 
ATOM      8  O   UNL d   1       2.095  -0.174   0.489  0.00  0.00    -0.259 OA
BRANCH   7   9
ATOM      9  O   UNL d   1       0.491   1.500   0.274  0.00  0.00    -0.272 OA
BRANCH   9  10
ATOM     10  C   UNL d   1       1.349   2.502   0.744  0.00  0.00     0.118 A 
ATOM     11  C   UNL d   1       2.476   2.885   0.010  0.00  0.00     0.153 A 
ATOM     12  C   UNL d   1       3.234   3.976   0.404  0.00  0.00     0.087 A 
ATOM     13  F   UNL d   1       2.802   2.239  -1.120  0.00  0.00    -0.203 F 
ATOM     14  C   UNL d   1       2.842   4.694   1.527  0.00  0.00     0.119 A 
ATOM     15  C   UNL d   1       1.711   4.332   2.260  0.00  0.00     0.045 A 
ATOM     16  F   UNL d   1       3.546   5.771   1.897  0.00  0.00    -0.206 F 
ATOM     17  C   UNL d   1       0.953   3.228   1.867  0.00  0.00     0.043 A 
ENDBRANCH   9  10
ENDBRANCH   7   9
ENDBRANCH   1   7
BRANCH   4  18
ATOM     18  C   UNL d   1      -1.628  -2.220  -4.531  0.00  0.00     0.120 C 
BRANCH  18  19
ATOM     19  S   UNL d   1      -1.343  -1.291  -6.061  0.00  0.00    -0.089 SA
BRANCH  19  20
ATOM     20  C   UNL d   1      -2.451  -2.028  -7.219  0.00  0.00     0.175 C 
ATOM     21  S   UNL d   1      -3.164  -3.535  -7.080  0.00  0.00    -0.045 SA
BRANCH  20  22
ATOM     22  O   UNL d   1      -2.647  -1.248  -8.322  0.00  0.00    -0.336 OA
BRANCH  22  23
ATOM     23  C   UNL d   1      -3.639  -1.514  -9.341  0.00  0.00     0.172 C 
ATOM     24  C   UNL d   1      -3.753  -0.262 -10.192  0.00  0.00     0.034 C 
ENDBRANCH  22  23
ENDBRANCH  20  22
ENDBRANCH  19  20
ENDBRANCH  18  19
ENDBRANCH   4  18
TORSDOF 8
