REMARK  5 active torsions:
REMARK  status: ('A' for Active; 'I' for Inactive)
REMARK    1  A    between atoms: O_6  and  C_1 
REMARK    2  A    between atoms: N_4  and  C_2 
REMARK    3  A    between atoms: N_5  and  C_3 
REMARK    4  A    between atoms: C_11  and  O_6 
REMARK    5  A    between atoms: C_7  and  C_8 
ROOT
ATOM      1  C   UNL d   1       1.309  -0.383   0.115  0.00  0.00     0.142 A 
ATOM      2  C   UNL d   1       0.315  -1.359   0.283  0.00  0.00     0.140 A 
ATOM      3  C   UNL d   1       0.853   0.936  -0.050  0.00  0.00     0.140 A 
ATOM      4  C   UNL d   1      -1.481   0.271  -0.047  0.00  0.00     0.052 A 
ATOM      5  C   UNL d   1      -0.510   1.273  -0.139  0.00  0.00     0.055 A 
ATOM      6  C   UNL d   1      -1.058  -1.048   0.177  0.00  0.00     0.055 A 
ENDROOT
BRANCH   1   7
ATOM      7  O   UNL d   1       2.673  -0.540   0.117  0.00  0.00    -0.304 OA
BRANCH   7   8
ATOM      8  C   UNL d   1       3.308  -1.671  -0.335  0.00  0.00     0.098 C 
ATOM      9  C   UNL d   1       2.993  -2.425  -1.473  0.00  0.00     0.069 C 
ATOM     10  C   UNL d   1       3.679  -3.617  -1.728  0.00  0.00     0.050 C 
ATOM     11 CL   UNL d   1       1.812  -1.928  -2.631  0.00  0.00    -0.081 Cl
ATOM     12  C   UNL d   1       4.743  -3.997  -0.910  0.00  0.00     0.035 C 
ATOM     13  C   UNL d   1       5.145  -3.184   0.145  0.00  0.00     0.026 C 
ATOM     14 CL   UNL d   1       5.578  -5.468  -1.218  0.00  0.00    -0.084 Cl
ATOM     15  C   UNL d   1       4.424  -2.026   0.433  0.00  0.00     0.041 C 
ENDBRANCH   7   8
ENDBRANCH   1   7
BRANCH   2  16
ATOM     16  N   UNL d   1       0.629  -2.731   0.639  0.00  0.00    -0.113 N 
ATOM     17  O   UNL d   1       1.319  -2.905   1.653  0.00  0.00    -0.532 OA
ATOM     18  O   UNL d   1       0.144  -3.623  -0.068  0.00  0.00    -0.532 OA
ENDBRANCH   2  16
BRANCH   3  19
ATOM     19  N   UNL d   1       1.813   2.029  -0.111  0.00  0.00    -0.113 N 
ATOM     20  O   UNL d   1       2.563   2.179   0.861  0.00  0.00    -0.532 OA
ATOM     21  O   UNL d   1       1.764   2.757  -1.112  0.00  0.00    -0.532 OA
ENDBRANCH   3  19
BRANCH   4  22
ATOM     22  C   UNL d   1      -2.957   0.586  -0.171  0.00  0.00     0.417 C 
ATOM     23  F   UNL d   1      -3.214   1.916  -0.284  0.00  0.00    -0.166 F 
ATOM     24  F   UNL d   1      -3.518  -0.006  -1.257  0.00  0.00    -0.166 F 
ATOM     25  F   UNL d   1      -3.663   0.153   0.908  0.00  0.00    -0.166 F 
ENDBRANCH   4  22
TORSDOF 5
