REMARK  3 active torsions:
REMARK  status: ('A' for Active; 'I' for Inactive)
REMARK    1  A    between atoms: C_8  and  N_3 
REMARK    2  A    between atoms: C_9  and  C_4 
REMARK    3  A    between atoms: C_7  and  C_5 
ROOT
ATOM      1  N   UNL d   1       1.149  -0.183   0.084  0.00  0.00    -0.301 N 
ATOM      2  HN  UNL d   1       2.148  -0.380   0.128  1.00  0.00     0.187 HD
ATOM      3  N   UNL d   1       0.141  -1.100   0.106  0.00  0.00    -0.283 N 
ATOM      4  C   UNL d   1       0.597   0.990  -0.006  0.00  0.00     0.038 A 
ATOM      5  C   UNL d   1      -1.194  -0.507   0.015  0.00  0.00     0.147 A 
ATOM      6  C   UNL d   1      -0.907   0.993  -0.009  0.00  0.00     0.091 A 
ENDROOT
BRANCH   5   7
ATOM      7  C   UNL d   1      -2.093  -0.883   1.185  0.00  0.00    -0.033 A 
ATOM      8  C   UNL d   1      -1.571  -1.151   2.464  0.00  0.00     0.011 A 
ATOM      9  C   UNL d   1      -2.408  -1.517   3.519  0.00  0.00     0.024 A 
ATOM     10  C   UNL d   1      -3.782  -1.594   3.313  0.00  0.00     0.034 A 
ATOM     11  C   UNL d   1      -4.323  -1.310   2.060  0.00  0.00     0.024 A 
ATOM     12 CL   UNL d   1      -4.818  -2.047   4.609  0.00  0.00    -0.084 Cl
ATOM     13  C   UNL d   1      -3.484  -0.955   1.000  0.00  0.00     0.011 A 
ENDBRANCH   5   7
BRANCH   3  14
ATOM     14  C   UNL d   1       0.417  -2.466   0.047  0.00  0.00     0.051 A 
ATOM     15  C   UNL d   1       1.637  -2.968   0.530  0.00  0.00     0.031 A 
ATOM     16  C   UNL d   1       1.913  -4.339   0.544  0.00  0.00     0.002 A 
ATOM     17  C   UNL d   1       0.980  -5.241   0.043  0.00  0.00     0.000 A 
ATOM     18  C   UNL d   1      -0.225  -4.771  -0.467  0.00  0.00     0.002 A 
ATOM     19  C   UNL d   1      -0.503  -3.399  -0.456  0.00  0.00     0.031 A 
ENDBRANCH   3  14
BRANCH   4  20
ATOM     20  C   UNL d   1       1.371   2.250  -0.118  0.00  0.00    -0.012 A 
ATOM     21  C   UNL d   1       2.770   2.192  -0.121  0.00  0.00     0.013 A 
ATOM     22  C   UNL d   1       3.523   3.360  -0.260  0.00  0.00     0.001 A 
ATOM     23  C   UNL d   1       2.883   4.590  -0.399  0.00  0.00     0.000 A 
ATOM     24  C   UNL d   1       1.491   4.656  -0.393  0.00  0.00     0.001 A 
ATOM     25  C   UNL d   1       0.733   3.490  -0.250  0.00  0.00     0.013 A 
ENDBRANCH   4  20
TORSDOF 3
