REMARK  5 active torsions:
REMARK  status: ('A' for Active; 'I' for Inactive)
REMARK    1  A    between atoms: N_2  and  S_1 
REMARK    2  A    between atoms: C_9  and  S_1 
REMARK    3  A    between atoms: C_3  and  N_2 
REMARK       I    between atoms: C_7  and  N_10 
REMARK    4  A    between atoms: C_14  and  C_7 
REMARK    5  A    between atoms: N_10  and  C_18 
ROOT
ATOM      1  C   UNL d   1       0.467   0.693   1.505  0.00  0.00     0.075 A 
ATOM      2  C   UNL d   1       0.463  -0.356   2.427  0.00  0.00     0.027 A 
ATOM      3  C   UNL d   1       0.178   1.992   1.919  0.00  0.00     0.027 A 
ATOM      4  C   UNL d   1      -0.210   1.191   4.189  0.00  0.00     0.034 A 
ATOM      5  C   UNL d   1      -0.163   2.233   3.257  0.00  0.00     0.031 A 
ATOM      6  C   UNL d   1       0.119  -0.104   3.762  0.00  0.00     0.031 A 
ENDROOT
BRANCH   1   7
ATOM      7  S   UNL d   1       0.977   0.380  -0.168  0.00  0.00     0.247 S 
ATOM      8  O   UNL d   1       1.406   1.632  -0.749  0.00  0.00    -0.205 OA
ATOM      9  O   UNL d   1       1.859  -0.771  -0.179  0.00  0.00    -0.205 OA
BRANCH   7  10
ATOM     10  N   UNL d   1      -0.462  -0.008  -0.961  0.00  0.00    -0.165 NA
ATOM     11  H   UNL d   1      -0.458   0.477  -1.854  0.00  0.00     0.147 HD
BRANCH  10  12
ATOM     12  C   UNL d   1      -0.858  -1.340  -0.973  0.00  0.00     0.117 A 
ATOM     13  N   UNL d   1      -1.575  -1.874   0.017  0.00  0.00    -0.249 N 
ATOM     14  O   UNL d   1      -1.828  -3.180  -0.367  0.00  0.00    -0.241 OA
ATOM     15  HN  UNL d   1      -1.873  -1.417   0.878  1.00  0.00     0.196 HD
ATOM     16  C   UNL d   1      -1.250  -3.415  -1.577  0.00  0.00     0.075 A 
ATOM     17  C   UNL d   1      -0.634  -2.265  -2.011  0.00  0.00     0.079 A 
ATOM     18  C   UNL d   1      -1.402  -4.774  -2.122  0.00  0.00     0.079 C 
ENDBRANCH  10  12
ENDBRANCH   7  10
ENDBRANCH   1   7
BRANCH   4  19
ATOM     19  N   UNL d   1      -0.572   1.352   5.548  0.00  0.00    -0.327 N 
ATOM     20  C   UNL d   1      -0.968   2.521   6.180  0.00  0.00     0.229 C 
ATOM     21  O   UNL d   1      -1.048   3.619   5.631  0.00  0.00    -0.272 OA
ATOM     22  H   UNL d   1      -0.567   0.508   6.104  0.00  0.00     0.169 HD
BRANCH  20  23
ATOM     23  C   UNL d   1      -1.341   2.358   7.676  0.00  0.00     0.030 C 
ATOM     24  C   UNL d   1      -0.160   1.800   8.485  0.00  0.00     0.025 C 
ATOM     25  C   UNL d   1      -1.711   3.740   8.252  0.00  0.00     0.025 C 
ATOM     26  C   UNL d   1      -2.556   1.430   7.824  0.00  0.00     0.025 C 
ENDBRANCH  20  23
ENDBRANCH   4  19
TORSDOF 5
