REMARK  6 active torsions:
REMARK  status: ('A' for Active; 'I' for Inactive)
REMARK    1  A    between atoms: C_2  and  C_1 
REMARK       I    between atoms: N_10  and  C_2 
REMARK    2  A    between atoms: C_4  and  C_13 
REMARK    3  A    between atoms: C_16  and  N_10 
REMARK    4  A    between atoms: S_12  and  C_17 
REMARK    5  A    between atoms: C_13  and  S_12 
REMARK    6  A    between atoms: C_17  and  C_16 
ROOT
ATOM      1  C   UNL d   1       0.575   5.032  -0.038  0.00  0.00     0.133 C 
ENDROOT
BRANCH   1   2
ATOM      2  N   UNL d   1       0.918   3.627  -0.075  0.00  0.00    -0.356 N 
ATOM      3  C   UNL d   1       1.092   2.876   1.072  0.00  0.00     0.258 C 
ATOM      4  O   UNL d   1       1.056   3.394   2.184  0.00  0.00    -0.267 OA
ATOM      5  H   UNL d   1       0.962   3.150  -0.967  0.00  0.00     0.162 HD
BRANCH   3   6
ATOM      6  C   UNL d   1       1.307   1.451   0.858  0.00  0.00     0.072 A 
ATOM      7  S   UNL d   1       1.394   0.766  -0.713  0.00  0.00    -0.097 SA
ATOM      8  C   UNL d   1       1.638  -0.806  -0.093  0.00  0.00     0.050 A 
ATOM      9  C   UNL d   1       1.649  -0.823   1.282  0.00  0.00     0.009 A 
ATOM     10  C   UNL d   1       1.455   0.479   1.832  0.00  0.00     0.025 A 
ENDBRANCH   3   6
ENDBRANCH   1   2
BRANCH   1  11
ATOM     11  C   UNL d   1       1.805   5.932   0.071  0.00  0.00     0.093 C 
BRANCH  11  12
ATOM     12  S   UNL d   1       1.370   7.705   0.081  0.00  0.00    -0.163 SA
BRANCH  12  13
ATOM     13  C   UNL d   1       0.440   7.777   1.647  0.00  0.00     0.114 C 
BRANCH  13  14
ATOM     14  C   UNL d   1      -0.155   9.142   1.880  0.00  0.00    -0.027 A 
ATOM     15  C   UNL d   1      -1.422   9.510   1.394  0.00  0.00     0.041 A 
ATOM     16 CL   UNL d   1      -2.405   8.424   0.474  0.00  0.00    -0.084 Cl
ATOM     17  C   UNL d   1      -1.938  10.784   1.650  0.00  0.00     0.024 A 
ATOM     18  C   UNL d   1      -1.196  11.708   2.384  0.00  0.00     0.002 A 
ATOM     19  C   UNL d   1       0.067  11.361   2.860  0.00  0.00     0.001 A 
ATOM     20  C   UNL d   1       0.585  10.091   2.607  0.00  0.00     0.009 A 
ENDBRANCH  13  14
ENDBRANCH  12  13
ENDBRANCH  11  12
ENDBRANCH   1  11
TORSDOF 6
