REMARK  6 active torsions:
REMARK  status: ('A' for Active; 'I' for Inactive)
REMARK    1  A    between atoms: C_9  and  C_3 
REMARK    2  A    between atoms: O_12  and  C_4 
REMARK    3  A    between atoms: S_11  and  C_5 
REMARK    4  A    between atoms: C_14  and  C_8 
REMARK    5  A    between atoms: C_10  and  C_9 
REMARK    6  A    between atoms: O_15  and  C_14 
ROOT
ATOM      1  N   UNL d   1      -0.165  -1.174  -0.436  0.00  0.00    -0.317 N 
ATOM      2  HN  UNL d   1      -0.628  -2.058  -0.645  1.00  0.00     0.170 HD
ATOM      3  C   UNL d   1      -0.276   1.216  -0.118  0.00  0.00     0.021 A 
ATOM      4  C   UNL d   1      -0.828  -0.014  -0.421  0.00  0.00     0.150 A 
ATOM      5  C   UNL d   1       1.140  -1.107  -0.160  0.00  0.00     0.146 A 
ATOM      6  N   UNL d   1       1.809   0.033   0.061  0.00  0.00    -0.338 N 
ATOM      7  HN  UNL d   1       2.816   0.030   0.218  1.00  0.00     0.168 HD
ATOM      8  C   UNL d   1       1.104   1.193   0.069  0.00  0.00     0.045 A 
ENDROOT
BRANCH   3   9
ATOM      9  C   UNL d   1      -1.117   2.452   0.043  0.00  0.00     0.078 C 
BRANCH   9  10
ATOM     10  C   UNL d   1      -1.352   3.313  -1.179  0.00  0.00    -0.089 C 
ATOM     11  C   UNL d   1      -0.860   3.091  -2.410  0.00  0.00     0.014 C 
ATOM     12  C   UNL d   1      -2.218   4.519  -0.909  0.00  0.00     0.043 C 
ENDBRANCH   9  10
ENDBRANCH   3   9
BRANCH   4  13
ATOM     13  O   UNL d   1      -2.148  -0.143  -0.751  0.00  0.00    -0.346 OA
ATOM     14  H   UNL d   1      -2.409   0.664  -1.223  0.00  0.00     0.219 HD
ENDBRANCH   4  13
BRANCH   8  15
ATOM     15  C   UNL d   1       1.933   2.447   0.263  0.00  0.00     0.224 C 
BRANCH  15  16
ATOM     16  O   UNL d   1       1.571   3.220   1.407  0.00  0.00    -0.390 OA
ATOM     17  C   UNL d   1       1.987   2.623   2.628  0.00  0.00     0.201 C 
ENDBRANCH  15  16
ENDBRANCH   8  15
BRANCH   5  18
ATOM     18  S   UNL d   1       2.086  -2.607  -0.059  0.00  0.00    -0.098 SA
ATOM     19  C   UNL d   1       0.769  -3.834  -0.251  0.00  0.00     0.099 C 
ENDBRANCH   5  18
TORSDOF 6
