REMARK  2 active torsions:
REMARK  status: ('A' for Active; 'I' for Inactive)
REMARK    1  A    between atoms: C_2  and  N_1 
REMARK    2  A    between atoms: O_16  and  C_6 
ROOT
ATOM      1  C   UNL d   1       1.115   2.211  -1.122  0.00  0.00     0.080 A 
ATOM      2  C   UNL d   1       1.937   2.150  -2.257  0.00  0.00     0.057 A 
ATOM      3  C   UNL d   1       0.814   3.458  -0.548  0.00  0.00     0.095 A 
ATOM      4  C   UNL d   1       1.300   4.630  -1.136  0.00  0.00     0.041 A 
ATOM      5  C   UNL d   1       2.420   3.325  -2.829  0.00  0.00     0.036 A 
ATOM      6  C   UNL d   1       2.104   4.564  -2.275  0.00  0.00     0.026 A 
ATOM      7 CL   UNL d   1       3.381   3.244  -4.254  0.00  0.00    -0.084 Cl
ENDROOT
BRANCH   1   8
ATOM      8  N   UNL d   1       0.535   0.996  -0.636  0.00  0.00    -0.248 N 
ATOM      9  C   UNL d   1       1.427   0.093  -0.029  0.00  0.00     0.240 C 
ATOM     10  O   UNL d   1       2.630   0.333   0.130  0.00  0.00    -0.272 OA
ATOM     11  C   UNL d   1       0.899  -1.260   0.393  0.00  0.00     0.178 C 
ATOM     12  S   UNL d   1      -0.805  -1.185   0.952  0.00  0.00    -0.150 SA
ATOM     13  C   UNL d   1      -1.466  -0.512  -0.575  0.00  0.00     0.178 C 
ATOM     14  C   UNL d   1      -0.818   0.798  -0.971  0.00  0.00     0.240 C 
ATOM     15  O   UNL d   1      -1.463   1.575  -1.682  0.00  0.00    -0.272 OA
ENDBRANCH   1   8
BRANCH   3  16
ATOM     16  O   UNL d   1       0.016   3.620   0.552  0.00  0.00    -0.354 OA
ATOM     17  C   UNL d   1       0.560   3.021   1.728  0.00  0.00     0.210 C 
ENDBRANCH   3  16
TORSDOF 2
