REMARK  6 active torsions:
REMARK  status: ('A' for Active; 'I' for Inactive)
REMARK    1  A    between atoms: C_20  and  N_1 
REMARK    2  A    between atoms: C_5  and  C_2 
REMARK    3  A    between atoms: S_17  and  C_6 
REMARK    4  A    between atoms: C_9  and  C_18 
REMARK    5  A    between atoms: C_23  and  C_15 
REMARK    6  A    between atoms: C_18  and  S_17 
ROOT
ATOM      1  C   UNL d   1       2.345  -1.323  -0.029  0.00  0.00     0.092 C 
ATOM      2  C   UNL d   1       2.413  -0.969   1.286  0.00  0.00     0.056 C 
ATOM      3  C   UNL d   1       2.700  -0.378  -1.114  0.00  0.00     0.103 C 
ATOM      4  N   UNL d   1       2.966   0.354  -1.973  0.00  0.00    -0.191 NA
ENDROOT
BRANCH   1   5
ATOM      5  C   UNL d   1       2.201  -2.740  -0.355  0.00  0.00     0.150 A 
ATOM      6  N   UNL d   1       1.019  -3.572  -0.399  0.00  0.00    -0.274 N 
ATOM      7  C   UNL d   1       1.515  -4.819  -0.853  0.00  0.00     0.168 A 
ATOM      8  N   UNL d   1       2.826  -4.736  -0.961  0.00  0.00    -0.278 N 
ATOM      9  N   UNL d   1       3.240  -3.487  -0.669  0.00  0.00    -0.282 N 
ATOM     10  HN  UNL d   1       3.439  -5.507  -1.227  1.00  0.00     0.189 HD
ATOM     11  HN  UNL d   1       4.209  -3.168  -0.689  1.00  0.00     0.188 HD
BRANCH   6  12
ATOM     12  C   UNL d   1      -0.315  -3.197  -0.019  0.00  0.00     0.043 A 
ATOM     13  C   UNL d   1      -0.754  -1.883  -0.238  0.00  0.00     0.030 A 
ATOM     14  C   UNL d   1      -2.013  -1.454   0.202  0.00  0.00     0.002 A 
ATOM     15  C   UNL d   1      -2.865  -2.333   0.858  0.00  0.00     0.000 A 
ATOM     16  C   UNL d   1      -2.463  -3.652   1.054  0.00  0.00     0.002 A 
ATOM     17  C   UNL d   1      -1.194  -4.087   0.620  0.00  0.00     0.030 A 
ENDBRANCH   6  12
BRANCH   7  18
ATOM     18  S   UNL d   1       0.878  -6.405  -1.218  0.00  0.00    -0.087 SA
BRANCH  18  19
ATOM     19  C   UNL d   1      -0.809  -6.539  -1.823  0.00  0.00     0.122 C 
BRANCH  19  20
ATOM     20  C   UNL d   1      -1.375  -7.989  -2.037  0.00  0.00    -0.035 C 
ATOM     21  C   UNL d   1      -1.531  -8.894  -0.940  0.00  0.00    -0.048 C 
ATOM     22  C   UNL d   1      -2.404 -10.028  -1.030  0.00  0.00    -0.049 C 
ATOM     23  C   UNL d   1      -0.679  -8.692   0.294  0.00  0.00     0.049 C 
ATOM     24  C   UNL d   1      -2.597 -10.919   0.184  0.00  0.00     0.049 C 
ATOM     25  C   UNL d   1      -3.162 -10.246  -2.209  0.00  0.00    -0.049 C 
ATOM     26  C   UNL d   1      -2.920  -9.427  -3.345  0.00  0.00    -0.049 C 
ATOM     27  C   UNL d   1      -4.221 -11.335  -2.294  0.00  0.00     0.049 C 
ATOM     28  C   UNL d   1      -1.955  -8.370  -3.280  0.00  0.00    -0.048 C 
ATOM     29  C   UNL d   1      -3.753  -9.629  -4.604  0.00  0.00     0.049 C 
ATOM     30  C   UNL d   1      -1.478  -7.751  -4.575  0.00  0.00     0.049 C 
ENDBRANCH  19  20
ENDBRANCH  18  19
ENDBRANCH   7  18
ENDBRANCH   1   5
BRANCH   2  31
ATOM     31  C   UNL d   1       2.775   0.389   1.728  0.00  0.00     0.033 A 
ATOM     32  N   UNL d   1       1.754   1.266   1.819  0.00  0.00    -0.366 N 
ATOM     33  C   UNL d   1       2.068   2.529   2.196  0.00  0.00     0.088 A 
ATOM     34  HN  UNL d   1       0.793   0.993   1.613  1.00  0.00     0.165 HD
ATOM     35  C   UNL d   1       3.352   2.956   2.493  0.00  0.00     0.017 A 
ATOM     36  C   UNL d   1       4.388   2.035   2.391  0.00  0.00     0.004 A 
ATOM     37  C   UNL d   1       4.097   0.728   2.001  0.00  0.00     0.029 A 
ENDBRANCH   2  31
TORSDOF 6
