REMARK  5 active torsions:
REMARK  status: ('A' for Active; 'I' for Inactive)
REMARK    1  A    between atoms: C_3  and  C_1 
REMARK    2  A    between atoms: N_2  and  C_8 
REMARK    3  A    between atoms: O_7  and  C_3 
REMARK    4  A    between atoms: C_13  and  C_4 
REMARK    5  A    between atoms: C_12  and  O_7 
ROOT
ATOM      1  C   UNL d   1       0.906  -0.011   0.034  0.00  0.00     0.120 C 
ATOM      2  C   UNL d   1       0.141   0.830   0.759  0.00  0.00     0.040 C 
ATOM      3  C   UNL d   1       0.337  -1.022  -0.794  0.00  0.00     0.105 C 
ATOM      4  N   UNL d   1      -0.188  -1.826  -1.443  0.00  0.00    -0.191 NA
ENDROOT
BRANCH   1   5
ATOM      5  C   UNL d   1       2.385   0.131   0.162  0.00  0.00     0.304 C 
ATOM      6  O   UNL d   1       2.914   0.888   0.959  0.00  0.00    -0.258 OA
BRANCH   5   7
ATOM      7  O   UNL d   1       3.040  -0.691  -0.698  0.00  0.00    -0.307 OA
BRANCH   7   8
ATOM      8  C   UNL d   1       4.496  -0.777  -0.688  0.00  0.00     0.060 C 
ATOM      9  C   UNL d   1       5.017  -1.274   0.667  0.00  0.00     0.046 C 
ATOM     10  C   UNL d   1       4.849  -1.819  -1.763  0.00  0.00     0.046 C 
ATOM     11  C   UNL d   1       5.150   0.555  -1.079  0.00  0.00     0.046 C 
ENDBRANCH   7   8
ENDBRANCH   5   7
ENDBRANCH   1   5
BRANCH   2  12
ATOM     12  C   UNL d   1      -1.328   0.778   0.793  0.00  0.00    -0.035 A 
ATOM     13  C   UNL d   1      -1.967   0.033   1.792  0.00  0.00     0.014 A 
ATOM     14  C   UNL d   1      -3.358  -0.104   1.792  0.00  0.00     0.037 A 
ATOM     15  C   UNL d   1      -4.113   0.515   0.787  0.00  0.00     0.102 A 
ATOM     16  C   UNL d   1      -3.484   1.279  -0.205  0.00  0.00     0.037 A 
ATOM     17  C   UNL d   1      -2.090   1.410  -0.197  0.00  0.00     0.014 A 
BRANCH  15  18
ATOM     18  N   UNL d   1      -5.573   0.354   0.770  0.00  0.00    -0.116 N 
ATOM     19  O   UNL d   1      -6.204   0.917  -0.135  0.00  0.00    -0.532 OA
ATOM     20  O   UNL d   1      -6.087  -0.332   1.665  0.00  0.00    -0.532 OA
ENDBRANCH  15  18
ENDBRANCH   2  12
TORSDOF 5
