REMARK  10 active torsions:
REMARK  status: ('A' for Active; 'I' for Inactive)
REMARK    1  A    between atoms: N_5  and  C_1 
REMARK       I    between atoms: C_8  and  N_5 
REMARK    2  A    between atoms: C_13  and  C_8 
REMARK    3  A    between atoms: C_9  and  C_15 
REMARK    4  A    between atoms: O_12  and  C_9 
REMARK    5  A    between atoms: C_18  and  C_13 
REMARK    6  A    between atoms: C_15  and  C_17 
REMARK    7  A    between atoms: C_17  and  C_21 
REMARK    8  A    between atoms: C_19  and  C_18 
REMARK    9  A    between atoms: C_20  and  C_19 
REMARK   10  A    between atoms: C_21  and  C_20 
ROOT
ATOM      1  N   UNL d   1      -0.240  -5.032  -0.412  0.00  0.00    -0.312 N 
ATOM      2  C   UNL d   1      -1.331  -4.529  -1.098  0.00  0.00     0.223 C 
ATOM      3  O   UNL d   1      -1.437  -3.421  -1.619  0.00  0.00    -0.273 OA
ATOM      4  H   UNL d   1      -0.267  -5.967  -0.031  0.00  0.00     0.170 HD
ENDROOT
BRANCH   2   5
ATOM      5  C   UNL d   1      -2.505  -5.479  -1.138  0.00  0.00     0.103 C 
BRANCH   5   6
ATOM      6  C   UNL d   1      -3.402  -5.250   0.076  0.00  0.00     0.009 C 
BRANCH   6   7
ATOM      7  C   UNL d   1      -4.654  -6.128   0.070  0.00  0.00     0.000 C 
BRANCH   7   8
ATOM      8  C   UNL d   1      -4.308  -7.614   0.090  0.00  0.00     0.000 C 
BRANCH   8   9
ATOM      9  C   UNL d   1      -5.557  -8.489   0.113  0.00  0.00     0.000 C 
BRANCH   9  10
ATOM     10  C   UNL d   1      -5.157  -9.961   0.114  0.00  0.00     0.010 C 
BRANCH  10  11
ATOM     11  C   UNL d   1      -6.371 -10.884   0.131  0.00  0.00     0.111 C 
BRANCH  11  12
ATOM     12  C   UNL d   1      -5.938 -12.331   0.136  0.00  0.00     0.258 C 
ATOM     13  O   UNL d   1      -4.777 -12.720   0.128  0.00  0.00    -0.265 OA
BRANCH  12  14
ATOM     14  O   UNL d   1      -7.032 -13.142   0.152  0.00  0.00    -0.326 OA
ATOM     15  C   UNL d   1      -6.702 -14.531   0.157  0.00  0.00     0.213 C 
ENDBRANCH  12  14
ENDBRANCH  11  12
ENDBRANCH  10  11
ENDBRANCH   9  10
ENDBRANCH   8   9
ENDBRANCH   7   8
ENDBRANCH   6   7
ENDBRANCH   5   6
ENDBRANCH   2   5
BRANCH   1  16
ATOM     16  C   UNL d   1       0.924  -4.309  -0.229  0.00  0.00     0.130 A 
ATOM     17  N   UNL d   1       1.127  -3.061  -0.658  0.00  0.00    -0.245 N 
ATOM     18  O   UNL d   1       2.396  -2.708  -0.269  0.00  0.00    -0.241 OA
ATOM     19  HN  UNL d   1       0.466  -2.482  -1.175  1.00  0.00     0.196 HD
ATOM     20  C   UNL d   1       2.966  -3.742   0.396  0.00  0.00     0.076 A 
ATOM     21  C   UNL d   1       2.076  -4.787   0.448  0.00  0.00     0.084 A 
ATOM     22  C   UNL d   1       4.335  -3.517   0.884  0.00  0.00     0.079 C 
ENDBRANCH   1  16
TORSDOF 10
