REMARK  2 active torsions:
REMARK  status: ('A' for Active; 'I' for Inactive)
REMARK    1  A    between atoms: C_8  and  N_1 
REMARK    2  A    between atoms: N_9  and  C_3 
ROOT
ATOM      1  N   UNL d   1      -0.635   1.246   0.014  0.00  0.00    -0.254 N 
ATOM      2  C   UNL d   1      -1.376   0.065   0.201  0.00  0.00     0.335 A 
ATOM      3  C   UNL d   1       0.758   1.218  -0.154  0.00  0.00     0.094 A 
ATOM      4  N   UNL d   1      -0.662  -1.103   0.192  0.00  0.00    -0.275 N 
ATOM      5  C   UNL d   1       1.400   0.039  -0.172  0.00  0.00     0.117 A 
ATOM      6  C   UNL d   1       0.673  -1.221  -0.021  0.00  0.00     0.252 A 
ATOM      7  O   UNL d   1      -2.597  -0.011   0.340  0.00  0.00    -0.246 OA
ATOM      8  O   UNL d   1       1.251  -2.299  -0.070  0.00  0.00    -0.268 OA
ATOM      9  H   UNL d   1      -1.195  -1.953   0.285  0.00  0.00     0.173 HD
ENDROOT
BRANCH   1  10
ATOM     10  C   UNL d   1      -1.375   2.480  -0.025  0.00  0.00     0.045 A 
ATOM     11  C   UNL d   1      -2.280   2.801   0.996  0.00  0.00     0.030 A 
ATOM     12  C   UNL d   1      -2.958   4.022   0.985  0.00  0.00     0.002 A 
ATOM     13  C   UNL d   1      -2.759   4.922  -0.060  0.00  0.00     0.000 A 
ATOM     14  C   UNL d   1      -1.881   4.605  -1.094  0.00  0.00     0.002 A 
ATOM     15  C   UNL d   1      -1.185   3.394  -1.072  0.00  0.00     0.030 A 
ENDBRANCH   1  10
BRANCH   3  16
ATOM     16  N   UNL d   1       1.517   2.379  -0.237  0.00  0.00    -0.288 NA
ATOM     17  H   UNL d   1       1.077   3.155   0.255  0.00  0.00     0.125 HD
ATOM     18  H   UNL d   1       2.487   2.265   0.044  0.00  0.00     0.125 HD
ENDBRANCH   3  16
TORSDOF 2
