REMARK  6 active torsions:
REMARK  status: ('A' for Active; 'I' for Inactive)
REMARK    1  A    between atoms: N_3  and  C_1 
REMARK    2  A    between atoms: C_4  and  C_2 
REMARK       I    between atoms: N_6  and  C_4 
REMARK    3  A    between atoms: O_13  and  C_5 
REMARK    4  A    between atoms: C_15  and  N_6 
REMARK    5  A    between atoms: O_14  and  C_8 
REMARK    6  A    between atoms: C_18  and  C_15 
ROOT
ATOM      1  C   UNL d   1       1.234  -0.700   0.556  0.00  0.00     0.137 A 
ATOM      2  C   UNL d   1      -1.075  -1.445   0.750  0.00  0.00     0.101 A 
ATOM      3  C   UNL d   1       0.305  -1.754   0.655  0.00  0.00     0.119 A 
ATOM      4  C   UNL d   1       0.840   0.634   0.440  0.00  0.00     0.042 A 
ATOM      5  C   UNL d   1      -1.467  -0.087   0.588  0.00  0.00     0.086 A 
ATOM      6  C   UNL d   1      -0.513   0.933   0.447  0.00  0.00     0.040 A 
ENDROOT
BRANCH   2   7
ATOM      7  C   UNL d   1      -2.147  -2.494   0.999  0.00  0.00     0.257 C 
ATOM      8  N   UNL d   1      -1.796  -3.814   0.847  0.00  0.00    -0.352 N 
ATOM      9  H   UNL d   1      -0.810  -4.028   0.789  0.00  0.00     0.163 HD
ATOM     10  O   UNL d   1      -3.290  -2.166   1.299  0.00  0.00    -0.267 OA
BRANCH   8  11
ATOM     11  C   UNL d   1      -2.717  -4.951   0.873  0.00  0.00     0.080 C 
ATOM     12  C   UNL d   1      -3.916  -4.767  -0.058  0.00  0.00     0.032 C 
BRANCH  11  13
ATOM     13  C   UNL d   1      -3.078  -5.435   2.290  0.00  0.00     0.020 C 
ATOM     14  C   UNL d   1      -4.276  -4.774   2.962  0.00  0.00     0.007 C 
ENDBRANCH  11  13
ENDBRANCH   8  11
ENDBRANCH   2   7
BRANCH   3  15
ATOM     15  O   UNL d   1       0.716  -3.067   0.705  0.00  0.00    -0.352 OA
ATOM     16  C   UNL d   1       1.367  -3.497  -0.502  0.00  0.00     0.210 C 
ENDBRANCH   3  15
BRANCH   5  17
ATOM     17  O   UNL d   1      -2.787   0.281   0.666  0.00  0.00    -0.355 OA
ATOM     18  C   UNL d   1      -3.267   0.987  -0.479  0.00  0.00     0.210 C 
ENDBRANCH   5  17
BRANCH   1  19
ATOM     19  N   UNL d   1       2.661  -0.947   0.627  0.00  0.00    -0.113 N 
ATOM     20  O   UNL d   1       3.098  -1.496   1.645  0.00  0.00    -0.532 OA
ATOM     21  O   UNL d   1       3.338  -0.571  -0.339  0.00  0.00    -0.532 OA
ENDBRANCH   1  19
TORSDOF 6
