REMARK  1 active torsions:
REMARK  status: ('A' for Active; 'I' for Inactive)
REMARK    1  A    between atoms: C_4  and  N_1 
ROOT
ATOM      1  N   UNL d   1       2.599   0.028   0.197  0.00  0.00    -0.252 N 
ATOM      2  C   UNL d   1       1.953   1.049  -0.489  0.00  0.00     0.232 C 
ATOM      3  C   UNL d   1       1.897  -1.156   0.380  0.00  0.00     0.232 C 
ATOM      4  C   UNL d   1       0.503  -0.947   0.942  0.00  0.00     0.113 C 
ATOM      5  C   UNL d   1       0.578   1.371   0.035  0.00  0.00     0.113 C 
ATOM      6  C   UNL d   1      -0.294   0.131   0.201  0.00  0.00    -0.024 C 
ATOM      7  O   UNL d   1       2.438   1.708  -1.411  0.00  0.00    -0.273 OA
ATOM      8  O   UNL d   1       2.312  -2.297   0.178  0.00  0.00    -0.273 OA
ATOM      9  C   UNL d   1      -0.810  -0.390  -1.159  0.00  0.00     0.010 C 
ATOM     10  C   UNL d   1      -1.572   0.489   1.003  0.00  0.00     0.010 C 
ATOM     11  C   UNL d   1      -2.245  -0.818  -0.887  0.00  0.00     0.001 C 
ATOM     12  C   UNL d   1      -2.745   0.255   0.061  0.00  0.00     0.001 C 
ENDROOT
BRANCH   1  13
ATOM     13  C   UNL d   1       4.016   0.129   0.441  0.00  0.00     0.048 A 
ATOM     14  C   UNL d   1       4.607   1.407   0.500  0.00  0.00     0.054 A 
ATOM     15  C   UNL d   1       5.929   1.581   0.909  0.00  0.00     0.037 A 
ATOM     16 CL   UNL d   1       6.574   3.171   1.042  0.00  0.00    -0.084 Cl
ATOM     17  C   UNL d   1       6.709   0.487   1.254  0.00  0.00     0.048 A 
ATOM     18  C   UNL d   1       6.148  -0.782   1.187  0.00  0.00     0.037 A 
ATOM     19  C   UNL d   1       4.815  -0.965   0.798  0.00  0.00     0.054 A 
ATOM     20 CL   UNL d   1       7.102  -2.147   1.629  0.00  0.00    -0.084 Cl
ENDBRANCH   1  13
TORSDOF 1
