REMARK  3 active torsions:
REMARK  status: ('A' for Active; 'I' for Inactive)
REMARK    1  A    between atoms: N_2  and  S_1 
REMARK    2  A    between atoms: C_3  and  S_1 
REMARK    3  A    between atoms: C_9  and  N_2 
ROOT
ATOM      1  N   UNL d   1       0.479   0.056   1.741  0.00  0.00    -0.281 N 
ATOM      2  H   UNL d   1      -0.450   0.464   1.834  0.00  0.00     0.179 HD
ENDROOT
BRANCH   1   3
ATOM      3  S   UNL d   1       0.964  -0.036   0.118  0.00  0.00     0.263 S 
ATOM      4  O   UNL d   1       2.393  -0.259   0.062  0.00  0.00    -0.200 OA
ATOM      5  O   UNL d   1       0.342   1.081  -0.563  0.00  0.00    -0.200 OA
BRANCH   3   6
ATOM      6  C   UNL d   1       0.141  -1.510  -0.453  0.00  0.00     0.080 A 
ATOM      7  C   UNL d   1      -1.258  -1.511  -0.543  0.00  0.00     0.028 A 
ATOM      8  C   UNL d   1      -1.921  -2.686  -0.897  0.00  0.00     0.044 A 
ATOM      9  C   UNL d   1      -1.182  -3.830  -1.184  0.00  0.00     0.116 A 
ATOM     10  C   UNL d   1       0.210  -3.822  -1.134  0.00  0.00     0.044 A 
ATOM     11  F   UNL d   1      -1.823  -4.961  -1.509  0.00  0.00    -0.206 F 
ATOM     12  C   UNL d   1       0.881  -2.655  -0.767  0.00  0.00     0.028 A 
ENDBRANCH   3   6
ENDBRANCH   1   3
BRANCH   1  13
ATOM     13  C   UNL d   1       0.803  -1.032   2.600  0.00  0.00     0.045 A 
ATOM     14  C   UNL d   1      -0.109  -2.073   2.787  0.00  0.00     0.069 A 
ATOM     15  C   UNL d   1       0.298  -3.145   3.552  0.00  0.00     0.107 A 
ATOM     16  O   UNL d   1      -0.436  -4.263   3.800  0.00  0.00    -0.323 OA
ATOM     17  C   UNL d   1       1.538  -3.187   4.144  0.00  0.00     0.105 A 
ATOM     18  C   UNL d   1       0.500  -5.032   4.585  0.00  0.00     0.352 A 
ATOM     19  O   UNL d   1       1.734  -4.332   4.851  0.00  0.00    -0.323 OA
ATOM     20  C   UNL d   1       2.447  -2.162   3.996  0.00  0.00     0.042 A 
ATOM     21  C   UNL d   1       2.076  -1.077   3.194  0.00  0.00     0.033 A 
ENDBRANCH   1  13
TORSDOF 3
