REMARK  5 active torsions:
REMARK  status: ('A' for Active; 'I' for Inactive)
REMARK    1  A    between atoms: C_11  and  N_1 
REMARK    2  A    between atoms: C_9  and  C_6 
REMARK    3  A    between atoms: C_17  and  C_9 
REMARK    4  A    between atoms: C_12  and  N_16 
REMARK    5  A    between atoms: N_16  and  N_13 
ROOT
ATOM      1  N   UNL d   1      -1.248  -0.781  -2.067  0.00  0.00    -0.227 N 
ATOM      2  N   UNL d   1       0.661  -0.488  -1.110  0.00  0.00    -0.226 N 
ATOM      3  HN  UNL d   1       1.667  -0.416  -0.958  1.00  0.00     0.210 HD
ATOM      4  N   UNL d   1       0.100  -0.841  -2.251  0.00  0.00    -0.220 N 
ATOM      5  HN  UNL d   1       0.584  -1.107  -3.108  1.00  0.00     0.210 HD
ATOM      6  C   UNL d   1      -1.458  -0.421  -0.737  0.00  0.00     0.125 A 
ATOM      7  N   UNL d   1      -0.282  -0.234  -0.166  0.00  0.00    -0.271 N 
ATOM      8  HN  UNL d   1      -0.114   0.048   0.800  1.00  0.00     0.190 HD
ENDROOT
BRANCH   6   9
ATOM      9  C   UNL d   1      -2.733  -0.280  -0.001  0.00  0.00     0.126 C 
BRANCH   9  10
ATOM     10  C   UNL d   1      -3.337  -1.631   0.266  0.00  0.00     0.087 C 
ATOM     11  N   UNL d   1      -4.574  -1.852  -0.038  0.00  0.00    -0.315 N 
ATOM     12  HN  UNL d   1      -5.158  -1.161  -0.510  1.00  0.00     0.185 HD
BRANCH  11  13
ATOM     13  N   UNL d   1      -5.037  -3.081   0.321  0.00  0.00    -0.301 N 
ATOM     14  H   UNL d   1      -4.499  -3.899   0.039  0.00  0.00     0.187 HD
BRANCH  13  15
ATOM     15  C   UNL d   1      -6.439  -3.306   0.283  0.00  0.00     0.054 A 
ATOM     16  C   UNL d   1      -6.989  -4.558   0.630  0.00  0.00    -0.033 A 
ATOM     17  C   UNL d   1      -8.391  -4.718   0.666  0.00  0.00     0.015 A 
ATOM     18  C   UNL d   1      -6.160  -5.771   0.959  0.00  0.00     0.050 C 
ATOM     19  C   UNL d   1      -9.258  -3.651   0.405  0.00  0.00    -0.061 A 
ATOM     20  C   UNL d   1      -8.713  -2.408   0.098  0.00  0.00     0.009 A 
ATOM     21  C   UNL d   1     -10.743  -3.847   0.488  0.00  0.00     0.048 C 
ATOM     22  C   UNL d   1      -7.327  -2.240   0.049  0.00  0.00     0.032 A 
ENDBRANCH  13  15
ENDBRANCH  11  13
ENDBRANCH   9  10
ENDBRANCH   6   9
BRANCH   1  23
ATOM     23  C   UNL d   1      -2.119  -1.095  -3.150  0.00  0.00     0.059 A 
ATOM     24  C   UNL d   1      -1.559  -1.612  -4.336  0.00  0.00     0.031 A 
ATOM     25  C   UNL d   1      -2.371  -1.975  -5.413  0.00  0.00     0.002 A 
ATOM     26  C   UNL d   1      -3.750  -1.820  -5.329  0.00  0.00     0.000 A 
ATOM     27  C   UNL d   1      -4.313  -1.285  -4.174  0.00  0.00     0.002 A 
ATOM     28  C   UNL d   1      -3.503  -0.917  -3.093  0.00  0.00     0.031 A 
ENDBRANCH   1  23
TORSDOF 5
