REMARK  3 active torsions:
REMARK  status: ('A' for Active; 'I' for Inactive)
REMARK    1  A    between atoms: C_2  and  C_1 
REMARK    2  A    between atoms: O_8  and  C_2 
REMARK    3  A    between atoms: C_7  and  C_3 
ROOT
ATOM      1  C   UNL d   1       0.986  -0.041   0.016  0.00  0.00     0.120 C 
ATOM      2  C   UNL d   1       0.261   1.095   0.054  0.00  0.00     0.040 C 
ATOM      3  C   UNL d   1       0.393  -1.333  -0.011  0.00  0.00     0.105 C 
ATOM      4  N   UNL d   1      -0.103  -2.383  -0.034  0.00  0.00    -0.191 NA
ENDROOT
BRANCH   1   5
ATOM      5  C   UNL d   1       2.466   0.095   0.012  0.00  0.00     0.303 C 
ATOM      6  O   UNL d   1       3.059   1.164   0.039  0.00  0.00    -0.258 OA
BRANCH   5   7
ATOM      7  O   UNL d   1       3.059  -1.125  -0.015  0.00  0.00    -0.322 OA
ATOM      8  C   UNL d   1       4.488  -1.094  -0.005  0.00  0.00     0.213 C 
ENDBRANCH   5   7
ENDBRANCH   1   5
BRANCH   2   9
ATOM      9  C   UNL d   1      -1.203   1.160   0.087  0.00  0.00    -0.035 A 
ATOM     10  C   UNL d   1      -1.873   1.176   1.316  0.00  0.00     0.013 A 
ATOM     11  C   UNL d   1      -3.267   1.280   1.356  0.00  0.00     0.024 A 
ATOM     12  C   UNL d   1      -3.989   1.365   0.168  0.00  0.00     0.034 A 
ATOM     13  C   UNL d   1      -3.332   1.332  -1.061  0.00  0.00     0.024 A 
ATOM     14 CL   UNL d   1      -5.701   1.526   0.218  0.00  0.00    -0.084 Cl
ATOM     15  C   UNL d   1      -1.938   1.227  -1.102  0.00  0.00     0.013 A 
ENDBRANCH   2   9
TORSDOF 3
