REMARK  3 active torsions:
REMARK  status: ('A' for Active; 'I' for Inactive)
REMARK    1  A    between atoms: N_14  and  C_5 
REMARK    2  A    between atoms: S_15  and  C_11 
REMARK    3  A    between atoms: C_13  and  C_12 
ROOT
ATOM      1  N   UNL d   1      -0.245  -0.546   0.100  0.00  0.00    -0.070 N 
ATOM      2  C   UNL d   1      -0.201   0.811   0.013  0.00  0.00     0.149 A 
ATOM      3  N   UNL d   1       0.987   1.460  -0.016  0.00  0.00    -0.321 N 
ATOM      4  HN  UNL d   1       1.038   2.477  -0.063  1.00  0.00     0.169 HD
ATOM      5  C   UNL d   1       0.943  -1.291   0.135  0.00  0.00     0.701 A 
ATOM      6  N   UNL d   1      -1.491  -1.075   0.096  0.00  0.00    -0.277 N 
ATOM      7  HN  UNL d   1      -1.762  -2.058   0.142  1.00  0.00     0.188 HD
ATOM      8  N   UNL d   1       2.083  -0.661   0.080  0.00  0.00    -0.169 N 
ATOM      9  HN  UNL d   1       2.965  -1.173   0.083  1.00  0.00     0.186 HD
ATOM     10  C   UNL d   1      -1.512   1.210  -0.029  0.00  0.00     0.083 A 
ATOM     11  C   UNL d   1       2.062   0.723   0.018  0.00  0.00     0.160 A 
ATOM     12  C   UNL d   1      -2.286   0.012   0.016  0.00  0.00     0.063 A 
ENDROOT
BRANCH  12  13
ATOM     13  C   UNL d   1      -3.749  -0.075  -0.008  0.00  0.00    -0.008 A 
ATOM     14  C   UNL d   1      -4.422  -1.146   0.598  0.00  0.00     0.015 A 
ATOM     15  C   UNL d   1      -5.821  -1.182   0.625  0.00  0.00     0.024 A 
ATOM     16  C   UNL d   1      -6.555  -0.154   0.037  0.00  0.00     0.034 A 
ATOM     17  C   UNL d   1      -5.904   0.906  -0.588  0.00  0.00     0.024 A 
ATOM     18 CL   UNL d   1      -8.274  -0.186   0.088  0.00  0.00    -0.084 Cl
ATOM     19  C   UNL d   1      -4.507   0.943  -0.611  0.00  0.00     0.015 A 
ENDBRANCH  12  13
BRANCH   5  20
ATOM     20  N   UNL d   1       0.869  -2.660   0.205  0.00  0.00    -0.233 N 
ATOM     21  H   UNL d   1      -0.028  -3.059  -0.067  0.00  0.00     0.174 HD
ATOM     22  H   UNL d   1       1.684  -3.156  -0.131  0.00  0.00     0.174 HD
ENDBRANCH   5  20
BRANCH  11  23
ATOM     23  S   UNL d   1       3.579   1.609  -0.017  0.00  0.00    -0.098 SA
ATOM     24  C   UNL d   1       4.783   0.275   0.027  0.00  0.00     0.099 C 
ENDBRANCH  11  23
TORSDOF 3
