REMARK  7 active torsions:
REMARK  status: ('A' for Active; 'I' for Inactive)
REMARK    1  A    between atoms: O_2  and  C_1 
REMARK    2  A    between atoms: C_5  and  C_1 
REMARK    3  A    between atoms: C_3  and  O_2 
REMARK    4  A    between atoms: C_4  and  S_6 
REMARK    5  A    between atoms: N_8  and  C_4 
REMARK    6  A    between atoms: S_6  and  C_13 
REMARK    7  A    between atoms: C_13  and  C_12 
ROOT
ATOM      1  C   UNL d   1       0.264  -0.869  -0.855  0.00  0.00     0.046 A 
ATOM      2  C   UNL d   1       0.755  -2.188  -0.709  0.00  0.00    -0.032 A 
ATOM      3  C   UNL d   1      -0.880  -0.619  -1.642  0.00  0.00     0.018 A 
ATOM      4  C   UNL d   1       0.046  -3.217  -1.370  0.00  0.00     0.009 A 
ATOM      5  C   UNL d   1      -1.522  -1.651  -2.320  0.00  0.00     0.001 A 
ATOM      6  C   UNL d   1      -1.055  -2.951  -2.186  0.00  0.00     0.001 A 
ENDROOT
BRANCH   1   7
ATOM      7  C   UNL d   1       0.939   0.365  -0.370  0.00  0.00     0.299 C 
ATOM      8  O   UNL d   1       0.384   1.390  -0.000  0.00  0.00    -0.259 OA
BRANCH   7   9
ATOM      9  O   UNL d   1       2.285   0.213  -0.640  0.00  0.00    -0.271 OA
BRANCH   9  10
ATOM     10  C   UNL d   1       2.986   1.357  -1.047  0.00  0.00     0.122 A 
ATOM     11  C   UNL d   1       4.065   1.807  -0.280  0.00  0.00     0.069 A 
ATOM     12 CL   UNL d   1       4.424   1.125   1.264  0.00  0.00    -0.081 Cl
ATOM     13  C   UNL d   1       4.912   2.796  -0.788  0.00  0.00     0.027 A 
ATOM     14  C   UNL d   1       4.678   3.336  -2.054  0.00  0.00     0.003 A 
ATOM     15  C   UNL d   1       3.597   2.892  -2.814  0.00  0.00     0.027 A 
ATOM     16  C   UNL d   1       2.759   1.893  -2.322  0.00  0.00     0.069 A 
ATOM     17 CL   UNL d   1       1.533   1.296  -3.379  0.00  0.00    -0.081 Cl
ENDBRANCH   9  10
ENDBRANCH   7   9
ENDBRANCH   1   7
BRANCH   2  18
ATOM     18  C   UNL d   1       1.919  -2.546   0.206  0.00  0.00     0.121 C 
BRANCH  18  19
ATOM     19  S   UNL d   1       2.915  -3.976  -0.337  0.00  0.00    -0.096 SA
BRANCH  19  20
ATOM     20  C   UNL d   1       4.161  -3.932   0.914  0.00  0.00     0.136 C 
ATOM     21  S   UNL d   1       3.873  -4.799   2.328  0.00  0.00    -0.053 SA
BRANCH  20  22
ATOM     22  N   UNL d   1       5.321  -3.200   0.620  0.00  0.00    -0.375 N 
ATOM     23  C   UNL d   1       5.526  -2.414  -0.601  0.00  0.00     0.150 C 
ATOM     24  C   UNL d   1       6.431  -3.083   1.566  0.00  0.00     0.150 C 
ENDBRANCH  20  22
ENDBRANCH  19  20
ENDBRANCH  18  19
ENDBRANCH   2  18
TORSDOF 7
