REMARK  5 active torsions:
REMARK  status: ('A' for Active; 'I' for Inactive)
REMARK    1  A    between atoms: N_2  and  C_1 
REMARK       I    between atoms: C_3  and  N_2 
REMARK    2  A    between atoms: C_11  and  C_3 
REMARK    3  A    between atoms: C_5  and  C_12 
REMARK    4  A    between atoms: O_13  and  C_5 
REMARK    5  A    between atoms: C_12  and  C_11 
ROOT
ATOM      1  N   UNL d   1       2.265  -2.301  -0.195  0.00  0.00    -0.327 N 
ATOM      2  C   UNL d   1       3.615  -2.475  -0.436  0.00  0.00     0.222 C 
ATOM      3  O   UNL d   1       4.412  -1.598  -0.759  0.00  0.00    -0.273 OA
ATOM      4  H   UNL d   1       1.707  -3.139  -0.107  0.00  0.00     0.169 HD
ENDROOT
BRANCH   1   5
ATOM      5  C   UNL d   1       1.578  -1.059  -0.130  0.00  0.00     0.042 A 
ATOM      6  C   UNL d   1       2.273   0.159  -0.062  0.00  0.00     0.053 A 
ATOM      7  C   UNL d   1       1.593   1.373   0.024  0.00  0.00     0.036 A 
ATOM      8 CL   UNL d   1       2.480   2.846   0.109  0.00  0.00    -0.084 Cl
ATOM      9  C   UNL d   1       0.207   1.402   0.057  0.00  0.00     0.024 A 
ATOM     10  C   UNL d   1      -0.501   0.203   0.003  0.00  0.00     0.011 A 
ATOM     11  C   UNL d   1       0.166  -1.035  -0.101  0.00  0.00    -0.035 A 
ATOM     12  C   UNL d   1      -0.691  -2.273  -0.134  0.00  0.00     0.050 C 
ENDBRANCH   1   5
BRANCH   2  13
ATOM     13  C   UNL d   1       4.073  -3.914  -0.304  0.00  0.00     0.113 C 
BRANCH  13  14
ATOM     14  C   UNL d   1       5.587  -3.942  -0.106  0.00  0.00     0.119 C 
BRANCH  14  15
ATOM     15  C   UNL d   1       6.124  -5.338   0.016  0.00  0.00     0.139 C 
ATOM     16  O   UNL d   1       5.450  -6.353  -0.024  0.00  0.00    -0.650 OA
BRANCH  15  17
ATOM     17  O   UNL d   1       7.466  -5.356   0.186  0.00  0.00    -0.776 OA
ATOM     18  H   UNL d   1       7.877  -4.470   0.190  0.00  0.00     0.167 HD
ENDBRANCH  15  17
ENDBRANCH  14  15
ENDBRANCH  13  14
ENDBRANCH   2  13
TORSDOF 5
