REMARK  4 active torsions:
REMARK  status: ('A' for Active; 'I' for Inactive)
REMARK    1  A    between atoms: N_8  and  C_1 
REMARK       I    between atoms: C_9  and  N_8 
REMARK    2  A    between atoms: C_10  and  C_9 
REMARK    3  A    between atoms: O_23  and  C_14 
REMARK    4  A    between atoms: O_24  and  C_15 
ROOT
ATOM      1  C   UNL d   1       2.331   0.637   0.353  0.00  0.00     0.155 C 
ATOM      2  S   UNL d   1       2.412  -0.922   1.108  0.00  0.00    -0.011 SA
ATOM      3  C   UNL d   1      -0.082  -0.845   0.055  0.00  0.00     0.051 A 
ATOM      4  C   UNL d   1       1.140  -1.637   0.172  0.00  0.00     0.229 C 
ATOM      5  N   UNL d   1       1.245   1.221  -0.040  0.00  0.00    -0.336 N 
ATOM      6  HN  UNL d   1       1.284   2.171  -0.410  1.00  0.00     0.168 HD
ATOM      7  C   UNL d   1       0.009   0.546   0.040  0.00  0.00     0.051 A 
ATOM      8  C   UNL d   1      -1.309  -1.511   0.014  0.00  0.00     0.058 A 
ATOM      9  C   UNL d   1      -1.187   1.260   0.031  0.00  0.00     0.070 A 
ATOM     10  C   UNL d   1      -2.506  -0.794   0.035  0.00  0.00     0.102 A 
ATOM     11  C   UNL d   1      -2.443   0.613   0.058  0.00  0.00     0.103 A 
ATOM     12  O   UNL d   1       1.208  -2.779  -0.259  0.00  0.00    -0.279 OA
ENDROOT
BRANCH   1  13
ATOM     13  N   UNL d   1       3.514   1.322   0.150  0.00  0.00    -0.303 N 
ATOM     14  C   UNL d   1       4.833   0.931   0.373  0.00  0.00     0.259 C 
ATOM     15  O   UNL d   1       5.193  -0.094   0.940  0.00  0.00    -0.267 OA
ATOM     16  H   UNL d   1       3.358   2.195  -0.337  0.00  0.00     0.171 HD
BRANCH  14  17
ATOM     17  C   UNL d   1       5.897   1.888  -0.027  0.00  0.00     0.054 A 
ATOM     18  C   UNL d   1       5.867   2.688  -1.178  0.00  0.00     0.052 A 
ATOM     19  C   UNL d   1       6.915   3.578  -1.435  0.00  0.00     0.067 A 
ATOM     20 CL   UNL d   1       4.604   2.606  -2.353  0.00  0.00    -0.083 Cl
ATOM     21  C   UNL d   1       7.990   3.653  -0.557  0.00  0.00     0.118 A 
ATOM     22  C   UNL d   1       8.058   2.841   0.565  0.00  0.00     0.043 A 
ATOM     23  F   UNL d   1       8.980   4.520  -0.802  0.00  0.00    -0.206 F 
ATOM     24  C   UNL d   1       7.016   1.954   0.827  0.00  0.00     0.022 A 
ENDBRANCH  14  17
ENDBRANCH   1  13
BRANCH  11  25
ATOM     25  O   UNL d   1      -3.490   1.502   0.100  0.00  0.00    -0.353 OA
ATOM     26  C   UNL d   1      -4.809   1.002   0.273  0.00  0.00     0.210 C 
ENDBRANCH  11  25
BRANCH  10  27
ATOM     27  O   UNL d   1      -3.725  -1.413   0.043  0.00  0.00    -0.353 OA
ATOM     28  C   UNL d   1      -3.760  -2.836   0.100  0.00  0.00     0.210 C 
ENDBRANCH  10  27
TORSDOF 4
