REMARK  4 active torsions:
REMARK  status: ('A' for Active; 'I' for Inactive)
REMARK    1  A    between atoms: C_8  and  C_6 
REMARK    2  A    between atoms: C_12  and  C_22 
REMARK    3  A    between atoms: O_20  and  C_16 
REMARK    4  A    between atoms: C_22  and  O_20 
ROOT
ATOM      1  N   UNL d   1       2.618  -3.227   0.201  0.00  0.00    -0.305 N 
ATOM      2  HN  UNL d   1       3.115  -3.841  -0.444  1.00  0.00     0.186 HD
ATOM      3  C   UNL d   1       3.075  -2.668   1.281  0.00  0.00     0.043 C 
ATOM      4  N   UNL d   1       1.324  -2.807   0.125  0.00  0.00    -0.322 N 
ATOM      5  C   UNL d   1       2.183  -1.613   1.866  0.00  0.00     0.067 C 
ATOM      6  C   UNL d   1       0.832  -2.181   1.369  0.00  0.00     0.144 C 
ATOM      7  C   UNL d   1       4.436  -2.785   1.802  0.00  0.00    -0.005 A 
ATOM      8  C   UNL d   1       5.376  -1.921   1.240  0.00  0.00    -0.046 A 
ATOM      9  C   UNL d   1       0.741  -2.348  -1.121  0.00  0.00     0.171 C 
ATOM     10  C   UNL d   1       2.534  -0.260   1.163  0.00  0.00     0.013 C 
ATOM     11  C   UNL d   1       4.722  -3.531   2.939  0.00  0.00     0.014 A 
ATOM     12  C   UNL d   1       4.012   0.129   0.881  0.00  0.00     0.005 C 
ATOM     13  C   UNL d   1       4.926  -0.915   0.212  0.00  0.00     0.039 C 
ATOM     14  C   UNL d   1       6.674  -1.903   1.770  0.00  0.00     0.008 A 
ATOM     15  C   UNL d   1       6.002  -3.460   3.500  0.00  0.00     0.001 A 
ATOM     16  C   UNL d   1       6.977  -2.666   2.898  0.00  0.00     0.001 A 
ENDROOT
BRANCH   6  17
ATOM     17  C   UNL d   1       0.121  -3.307   2.128  0.00  0.00    -0.033 C 
ATOM     18  C   UNL d   1       0.811  -4.234   2.921  0.00  0.00     0.012 C 
ATOM     19  C   UNL d   1       0.289  -5.511   3.151  0.00  0.00     0.037 C 
ATOM     20  C   UNL d   1      -0.948  -5.861   2.616  0.00  0.00     0.069 C 
ATOM     21  C   UNL d   1      -1.734  -4.889   2.005  0.00  0.00     0.037 C 
ATOM     22  C   UNL d   1      -1.201  -3.620   1.755  0.00  0.00     0.012 C 
BRANCH  20  23
ATOM     23  O   UNL d   1      -1.435  -7.143   2.618  0.00  0.00    -0.348 OA
BRANCH  23  24
ATOM     24  C   UNL d   1      -0.448  -8.106   2.219  0.00  0.00     0.202 C 
BRANCH  24  25
ATOM     25  C   UNL d   1      -1.150  -9.317   1.674  0.00  0.00    -0.011 C 
ATOM     26  C   UNL d   1      -0.824  -9.936   0.530  0.00  0.00     0.009 C 
ENDBRANCH  24  25
ENDBRANCH  23  24
ENDBRANCH  20  23
ENDBRANCH   6  17
TORSDOF 4
