REMARK  5 active torsions:
REMARK  status: ('A' for Active; 'I' for Inactive)
REMARK    1  A    between atoms: C_9  and  C_1 
REMARK    2  A    between atoms: N_3  and  C_2 
REMARK    3  A    between atoms: N_8  and  C_4 
REMARK    4  A    between atoms: C_6  and  C_7 
REMARK       I    between atoms: C_7  and  N_8 
REMARK    5  A    between atoms: O_19  and  C_9 
ROOT
ATOM      1  C   UNL d   1       2.359   3.083   0.197  0.00  0.00     0.280 C 
ATOM      2  N   UNL d   1       2.415   1.721  -0.033  0.00  0.00    -0.320 N 
ATOM      3  O   UNL d   1       1.360   3.694   0.558  0.00  0.00    -0.265 OA
ATOM      4  H   UNL d   1       3.348   1.323  -0.052  0.00  0.00     0.169 HD
ENDROOT
BRANCH   2   5
ATOM      5  C   UNL d   1       1.352   0.824  -0.029  0.00  0.00     0.059 C 
ATOM      6  C   UNL d   1       0.006   1.058  -0.275  0.00  0.00     0.105 C 
ATOM      7  S   UNL d   1      -0.933  -0.369  -0.010  0.00  0.00    -0.093 SA
ATOM      8  C   UNL d   1       0.452  -1.323   0.242  0.00  0.00     0.053 C 
ATOM      9  C   UNL d   1       1.601  -0.570   0.200  0.00  0.00     0.038 C 
BRANCH   6  10
ATOM     10  C   UNL d   1      -0.666   2.224  -0.827  0.00  0.00     0.185 C 
ATOM     11  O   UNL d   1      -0.205   2.981  -1.669  0.00  0.00    -0.646 OA
BRANCH  10  12
ATOM     12  O   UNL d   1      -1.944   2.357  -0.371  0.00  0.00    -0.772 OA
ATOM     13  H   UNL d   1      -2.167   1.659   0.274  0.00  0.00     0.167 HD
ENDBRANCH  10  12
ENDBRANCH   6  10
ENDBRANCH   2   5
BRANCH   1  14
ATOM     14  C   UNL d   1       3.661   3.721   0.056  0.00  0.00     0.146 A 
ATOM     15  O   UNL d   1       4.771   2.932  -0.149  0.00  0.00    -0.283 OA
ATOM     16  C   UNL d   1       5.831   3.779  -0.251  0.00  0.00     0.215 A 
ATOM     17  C   UNL d   1       5.449   5.091  -0.115  0.00  0.00     0.066 A 
ATOM     18  C   UNL d   1       4.045   5.051   0.096  0.00  0.00     0.047 A 
BRANCH  16  19
ATOM     19  N   UNL d   1       7.104   3.173  -0.486  0.00  0.00    -0.090 N 
ATOM     20  O   UNL d   1       8.045   3.942  -0.722  0.00  0.00    -0.530 OA
ATOM     21  O   UNL d   1       7.169   1.938  -0.430  0.00  0.00    -0.530 OA
ENDBRANCH  16  19
ENDBRANCH   1  14
TORSDOF 5
