REMARK  4 active torsions:
REMARK  status: ('A' for Active; 'I' for Inactive)
REMARK    1  A    between atoms: C_2  and  N_1 
REMARK    2  A    between atoms: N_6  and  N_12 
REMARK    3  A    between atoms: N_12  and  C_8 
REMARK    4  A    between atoms: C_15  and  C_13 
ROOT
ATOM      1  N   UNL d   1      -1.795   1.680  -4.573  0.00  0.00    -0.286 N 
ATOM      2  H   UNL d   1      -2.358   2.508  -4.414  0.00  0.00     0.188 HD
ENDROOT
BRANCH   1   3
ATOM      3  N   UNL d   1      -1.540   1.127  -5.777  0.00  0.00    -0.309 N 
ATOM      4  C   UNL d   1      -2.101   1.687  -6.798  0.00  0.00     0.118 C 
ATOM      5  HN  UNL d   1      -0.937   0.311  -5.876  1.00  0.00     0.186 HD
BRANCH   4   6
ATOM      6  C   UNL d   1      -1.885   1.144  -8.155  0.00  0.00    -0.019 A 
ATOM      7  C   UNL d   1      -1.057   0.030  -8.344  0.00  0.00     0.014 A 
ATOM      8  C   UNL d   1      -0.862  -0.489  -9.624  0.00  0.00     0.024 A 
ATOM      9  C   UNL d   1      -1.497   0.107 -10.712  0.00  0.00     0.034 A 
ATOM     10  C   UNL d   1      -2.322   1.219 -10.530  0.00  0.00     0.024 A 
ATOM     11 CL   UNL d   1      -1.264  -0.536 -12.290  0.00  0.00    -0.084 Cl
ATOM     12  C   UNL d   1      -2.518   1.743  -9.247  0.00  0.00     0.014 A 
ENDBRANCH   4   6
ENDBRANCH   1   3
BRANCH   1  13
ATOM     13  C   UNL d   1      -1.184   1.176  -3.420  0.00  0.00     0.119 A 
ATOM     14  C   UNL d   1      -0.355   0.051  -3.473  0.00  0.00     0.052 A 
ATOM     15  C   UNL d   1       0.240  -0.434  -2.309  0.00  0.00     0.041 A 
ATOM     16  C   UNL d   1      -0.013   0.228  -1.113  0.00  0.00     0.118 A 
ATOM     17  C   UNL d   1      -0.843   1.338  -1.127  0.00  0.00     0.125 A 
ATOM     18  N   UNL d   1      -1.430   1.819  -2.256  0.00  0.00    -0.349 N 
ATOM     19  HN  UNL d   1      -2.036   2.639  -2.225  1.00  0.00     0.167 HD
BRANCH  16  20
ATOM     20  N   UNL d   1       0.576  -0.229   0.135  0.00  0.00    -0.114 N 
ATOM     21  O   UNL d   1       0.320   0.412   1.163  0.00  0.00    -0.532 OA
ATOM     22  O   UNL d   1       1.301  -1.234   0.095  0.00  0.00    -0.532 OA
ENDBRANCH  16  20
ENDBRANCH   1  13
TORSDOF 4
