REMARK  4 active torsions:
REMARK  status: ('A' for Active; 'I' for Inactive)
REMARK       I    between atoms: C_2  and  N_7 
REMARK    1  A    between atoms: C_4  and  C_2 
REMARK    2  A    between atoms: C_5  and  C_6 
REMARK    3  A    between atoms: O_13  and  C_5 
REMARK    4  A    between atoms: N_7  and  C_8 
ROOT
ATOM      1  C   UNL d   1      -3.188  -0.045  -0.284  0.00  0.00    -0.078 C 
ATOM      2  C   UNL d   1      -2.677  -1.125  -0.429  0.00  0.00     0.018 C 
ATOM      3  C   UNL d   1      -3.234   3.665  -0.128  0.00  0.00     0.036 A 
ATOM      4  C   UNL d   1      -3.705   1.284  -0.214  0.00  0.00     0.019 A 
ATOM      5  C   UNL d   1      -2.818   2.342   0.007  0.00  0.00     0.050 A 
ATOM      6  C   UNL d   1      -5.506   2.858  -0.492  0.00  0.00     0.004 A 
ATOM      7  C   UNL d   1      -4.599   3.914  -0.337  0.00  0.00     0.029 A 
ATOM      8  C   UNL d   1      -5.055   1.541  -0.457  0.00  0.00     0.021 A 
ENDROOT
BRANCH   3   9
ATOM      9  N   UNL d   1      -2.376   4.782  -0.087  0.00  0.00    -0.324 N 
ATOM     10  C   UNL d   1      -1.020   4.945  -0.216  0.00  0.00     0.245 C 
ATOM     11  O   UNL d   1      -0.553   6.078  -0.140  0.00  0.00    -0.268 OA
ATOM     12  H   UNL d   1      -2.826   5.689  -0.021  0.00  0.00     0.169 HD
BRANCH  10  13
ATOM     13  C   UNL d   1      -0.169   3.796  -0.603  0.00  0.00     0.081 C 
ATOM     14  C   UNL d   1       1.146   3.648  -0.393  0.00  0.00     0.086 C 
BRANCH  14  15
ATOM     15  C   UNL d   1       2.061   4.554   0.313  0.00  0.00     0.165 C 
ATOM     16  O   UNL d   1       1.827   5.360   1.188  0.00  0.00    -0.647 OA
BRANCH  15  17
ATOM     17  O   UNL d   1       3.312   4.320  -0.127  0.00  0.00    -0.773 OA
ATOM     18  H   UNL d   1       3.860   4.960   0.373  0.00  0.00     0.167 HD
ENDBRANCH  15  17
ENDBRANCH  14  15
ENDBRANCH  10  13
ENDBRANCH   3   9
TORSDOF 4
