REMARK  9 active torsions:
REMARK  status: ('A' for Active; 'I' for Inactive)
REMARK    1  A    between atoms: C_8  and  S_1 
REMARK    2  A    between atoms: C_10  and  S_1 
REMARK    3  A    between atoms: C_2  and  C_4 
REMARK    4  A    between atoms: C_3  and  C_5 
REMARK    5  A    between atoms: C_7  and  N_9 
REMARK       I    between atoms: N_9  and  C_11 
REMARK    6  A    between atoms: C_31  and  C_10 
REMARK    7  A    between atoms: C_11  and  C_30 
REMARK    8  A    between atoms: S_28  and  C_31 
REMARK    9  A    between atoms: C_30  and  S_28 
ROOT
ATOM      1  N   UNL d   1       0.289  -6.946  -1.119  0.00  0.00    -0.326 N 
ATOM      2  C   UNL d   1       0.643  -6.504  -2.377  0.00  0.00     0.231 C 
ATOM      3  O   UNL d   1       0.467  -7.155  -3.407  0.00  0.00    -0.272 OA
ATOM      4  H   UNL d   1       0.193  -6.237  -0.399  0.00  0.00     0.169 HD
ENDROOT
BRANCH   1   5
ATOM      5  C   UNL d   1      -0.149  -8.254  -0.829  0.00  0.00     0.036 A 
ATOM      6  C   UNL d   1       0.348  -9.374  -1.506  0.00  0.00     0.045 A 
ATOM      7  C   UNL d   1      -0.039 -10.673  -1.134  0.00  0.00     0.050 A 
ATOM      8  C   UNL d   1      -1.008 -10.831  -0.132  0.00  0.00     0.032 A 
ATOM      9  C   UNL d   1      -1.541  -9.717   0.535  0.00  0.00     0.050 A 
ATOM     10  C   UNL d   1      -1.071  -8.434   0.205  0.00  0.00     0.045 A 
BRANCH   7  11
ATOM     11  C   UNL d   1       0.620 -11.872  -1.777  0.00  0.00     0.417 C 
ATOM     12  F   UNL d   1       0.237 -13.057  -1.221  0.00  0.00    -0.166 F 
ATOM     13  F   UNL d   1       0.356 -11.980  -3.106  0.00  0.00    -0.166 F 
ATOM     14  F   UNL d   1       1.977 -11.837  -1.661  0.00  0.00    -0.166 F 
ENDBRANCH   7  11
BRANCH   9  15
ATOM     15  C   UNL d   1      -2.613  -9.877   1.587  0.00  0.00     0.417 C 
ATOM     16  F   UNL d   1      -2.891 -11.175   1.889  0.00  0.00    -0.166 F 
ATOM     17  F   UNL d   1      -2.276  -9.282   2.764  0.00  0.00    -0.166 F 
ATOM     18  F   UNL d   1      -3.795  -9.318   1.209  0.00  0.00    -0.166 F 
ENDBRANCH   9  15
ENDBRANCH   1   5
BRANCH   2  19
ATOM     19  C   UNL d   1       1.177  -5.081  -2.490  0.00  0.00     0.177 C 
BRANCH  19  20
ATOM     20  S   UNL d   1       1.636  -4.277  -0.923  0.00  0.00    -0.159 SA
BRANCH  20  21
ATOM     21  C   UNL d   1       2.278  -2.680  -1.583  0.00  0.00     0.089 C 
BRANCH  21  22
ATOM     22  C   UNL d   1       1.157  -1.841  -2.171  0.00  0.00     0.156 C 
BRANCH  22  23
ATOM     23  S   UNL d   1       1.751  -0.269  -2.756  0.00  0.00     0.176 S 
ATOM     24  O   UNL d   1       2.116   0.538  -1.613  0.00  0.00    -0.223 OA
ATOM     25  O   UNL d   1       2.693  -0.511  -3.837  0.00  0.00    -0.223 OA
BRANCH  23  26
ATOM     26  C   UNL d   1       0.286   0.444  -3.479  0.00  0.00     0.059 A 
ATOM     27  C   UNL d   1      -0.545   1.256  -2.702  0.00  0.00     0.025 A 
ATOM     28  C   UNL d   1      -1.708   1.788  -3.268  0.00  0.00     0.025 A 
ATOM     29  C   UNL d   1      -2.021   1.518  -4.601  0.00  0.00     0.034 A 
ATOM     30  C   UNL d   1      -1.177   0.725  -5.380  0.00  0.00     0.025 A 
ATOM     31 CL   UNL d   1      -3.457   2.168  -5.290  0.00  0.00    -0.084 Cl
ATOM     32  C   UNL d   1      -0.014   0.189  -4.821  0.00  0.00     0.025 A 
ENDBRANCH  23  26
ENDBRANCH  22  23
ENDBRANCH  21  22
ENDBRANCH  20  21
ENDBRANCH  19  20
ENDBRANCH   2  19
TORSDOF 9
