REMARK  6 active torsions:
REMARK  status: ('A' for Active; 'I' for Inactive)
REMARK    1  A    between atoms: C_8  and  C_1 
REMARK    2  A    between atoms: C_12  and  C_6 
REMARK    3  A    between atoms: C_9  and  N_7 
REMARK    4  A    between atoms: O_19  and  C_8 
REMARK    5  A    between atoms: N_10  and  C_12 
REMARK    6  A    between atoms: C_25  and  O_19 
ROOT
ATOM      1  N   UNL d   1       3.708  -0.503  -0.135  0.00  0.00    -0.377 N 
ATOM      2  N   UNL d   1       2.663   2.271  -0.008  0.00  0.00     0.097 N 
ATOM      3  C   UNL d   1       2.901   0.051  -1.241  0.00  0.00     0.153 C 
ATOM      4  C   UNL d   1       3.492   0.140   1.178  0.00  0.00     0.153 C 
ATOM      5  C   UNL d   1       3.495   1.686   1.070  0.00  0.00     0.292 C 
ATOM      6  C   UNL d   1       3.016   1.593  -1.272  0.00  0.00     0.292 C 
ENDROOT
BRANCH   2   7
ATOM      7  C   UNL d   1       1.214   2.162   0.262  0.00  0.00     0.337 C 
BRANCH   7   8
ATOM      8  C   UNL d   1       0.722   3.069   1.362  0.00  0.00     0.080 C 
ATOM      9  S   UNL d   1       0.935   4.770   1.245  0.00  0.00    -0.067 SA
ATOM     10  C   UNL d   1       0.264   4.960   2.819  0.00  0.00     0.104 C 
ATOM     11  C   UNL d   1      -0.213   3.738   3.264  0.00  0.00     0.029 C 
ATOM     12  N   UNL d   1       0.078   2.663   2.434  0.00  0.00    -0.355 N 
ATOM     13  C   UNL d   1      -0.966   3.454   4.520  0.00  0.00     0.070 C 
ATOM     14  HN  UNL d   1      -0.172   1.694   2.630  1.00  0.00     0.166 HD
BRANCH  10  15
ATOM     15  C   UNL d   1       0.333   6.258   3.442  0.00  0.00     0.302 C 
ATOM     16  O   UNL d   1       0.671   7.308   2.905  0.00  0.00    -0.259 OA
BRANCH  15  17
ATOM     17  O   UNL d   1       0.101   6.132   4.782  0.00  0.00    -0.317 OA
BRANCH  17  18
ATOM     18  C   UNL d   1       0.702   7.143   5.606  0.00  0.00     0.174 C 
ATOM     19  C   UNL d   1       2.084   6.654   5.999  0.00  0.00     0.034 C 
ENDBRANCH  17  18
ENDBRANCH  15  17
ENDBRANCH  10  15
ENDBRANCH   7   8
ENDBRANCH   2   7
BRANCH   1  20
ATOM     20  C   UNL d   1       4.039  -1.860  -0.187  0.00  0.00     0.031 A 
ATOM     21  C   UNL d   1       3.935  -2.718   0.920  0.00  0.00     0.053 A 
ATOM     22  C   UNL d   1       4.378  -4.045   0.859  0.00  0.00     0.036 A 
ATOM     23 CL   UNL d   1       4.254  -5.052   2.251  0.00  0.00    -0.084 Cl
ATOM     24  C   UNL d   1       4.933  -4.557  -0.308  0.00  0.00     0.024 A 
ATOM     25  C   UNL d   1       5.030  -3.738  -1.425  0.00  0.00     0.004 A 
ATOM     26  C   UNL d   1       4.588  -2.412  -1.360  0.00  0.00     0.029 A 
ENDBRANCH   1  20
TORSDOF 6
