REMARK  8 active torsions:
REMARK  status: ('A' for Active; 'I' for Inactive)
REMARK    1  A    between atoms: N_4  and  C_1 
REMARK    2  A    between atoms: N_12  and  C_1 
REMARK    3  A    between atoms: C_2  and  N_3 
REMARK    4  A    between atoms: N_11  and  C_2 
REMARK    5  A    between atoms: C_18  and  N_11 
REMARK    6  A    between atoms: C_17  and  N_12 
REMARK    7  A    between atoms: C_13  and  C_17 
REMARK    8  A    between atoms: C_14  and  C_18 
ROOT
ATOM      1  N   UNL d   1      -0.126  -2.873   2.938  0.00  0.00    -0.355 N 
ATOM      2  N   UNL d   1       0.172  -0.553   1.240  0.00  0.00    -0.355 N 
ATOM      3  C   UNL d   1      -0.499  -2.938   1.511  0.00  0.00     0.145 C 
ATOM      4  C   UNL d   1      -0.889  -1.542   0.972  0.00  0.00     0.145 C 
ATOM      5  C   UNL d   1       0.566  -0.492   2.662  0.00  0.00     0.145 C 
ATOM      6  C   UNL d   1       0.929  -1.878   3.216  0.00  0.00     0.145 C 
ENDROOT
BRANCH   1   7
ATOM      7  C   UNL d   1      -0.998  -3.358   3.921  0.00  0.00     0.170 C 
ATOM      8  S   UNL d   1      -1.417  -2.513   5.306  0.00  0.00    -0.041 SA
BRANCH   7   9
ATOM      9  N   UNL d   1      -1.472  -4.615   3.602  0.00  0.00    -0.364 N 
ATOM     10  H   UNL d   1      -0.874  -5.130   2.970  0.00  0.00     0.162 HD
BRANCH   9  11
ATOM     11  C   UNL d   1      -2.423  -5.426   4.342  0.00  0.00     0.148 C 
BRANCH  11  12
ATOM     12  C   UNL d   1      -1.681  -6.314   5.287  0.00  0.00    -0.018 C 
ATOM     13  C   UNL d   1      -1.699  -7.656   5.253  0.00  0.00     0.008 C 
ENDBRANCH  11  12
ENDBRANCH   9  11
ENDBRANCH   7   9
ENDBRANCH   1   7
BRANCH   2  14
ATOM     14  C   UNL d   1       1.003  -0.113   0.203  0.00  0.00     0.170 C 
ATOM     15  S   UNL d   1       2.676  -0.133   0.273  0.00  0.00    -0.041 SA
BRANCH  14  16
ATOM     16  N   UNL d   1       0.269   0.339  -0.874  0.00  0.00    -0.364 N 
ATOM     17  H   UNL d   1      -0.707   0.511  -0.678  0.00  0.00     0.162 HD
BRANCH  16  18
ATOM     18  C   UNL d   1       0.756   0.879  -2.131  0.00  0.00     0.148 C 
BRANCH  18  19
ATOM     19  C   UNL d   1       0.266   2.291  -2.251  0.00  0.00    -0.018 C 
ATOM     20  C   UNL d   1      -0.611   2.717  -3.167  0.00  0.00     0.008 C 
ENDBRANCH  18  19
ENDBRANCH  16  18
ENDBRANCH  14  16
ENDBRANCH   2  14
TORSDOF 8
