REMARK  7 active torsions:
REMARK  status: ('A' for Active; 'I' for Inactive)
REMARK    1  A    between atoms: C_15  and  N_4 
REMARK    2  A    between atoms: N_5  and  C_10 
REMARK    3  A    between atoms: C_13  and  C_6 
REMARK    4  A    between atoms: C_16  and  N_8 
REMARK    5  A    between atoms: C_28  and  C_15 
REMARK    6  A    between atoms: O_26  and  C_21 
REMARK    7  A    between atoms: O_27  and  C_28 
ROOT
ATOM      1  C   UNL d   1       1.077  -0.146   0.143  0.00  0.00     0.162 C 
ATOM      2  N   UNL d   1      -0.480   1.730  -0.127  0.00  0.00    -0.299 N 
ATOM      3  HN  UNL d   1      -0.525   2.710   0.153  1.00  0.00     0.187 HD
ATOM      4  N   UNL d   1       0.727   1.101  -0.407  0.00  0.00    -0.269 N 
ATOM      5  C   UNL d   1      -1.550   0.997  -0.244  0.00  0.00     0.046 C 
ATOM      6  S   UNL d   1      -0.273  -1.321   0.253  0.00  0.00    -0.086 SA
ATOM      7  N   UNL d   1       2.167  -0.673   0.599  0.00  0.00    -0.336 N 
ATOM      8  HN  UNL d   1       2.134  -1.647   0.901  1.00  0.00     0.168 HD
ATOM      9  C   UNL d   1      -1.488  -0.430  -0.732  0.00  0.00     0.142 C 
ENDROOT
BRANCH   4  10
ATOM     10  C   UNL d   1       1.720   2.043  -0.943  0.00  0.00     0.177 C 
BRANCH  10  11
ATOM     11  C   UNL d   1       1.216   2.748  -2.206  0.00  0.00     0.185 C 
BRANCH  11  12
ATOM     12  O   UNL d   1       2.193   3.683  -2.663  0.00  0.00    -0.399 OA
ATOM     13  H   UNL d   1       1.838   4.093  -3.471  0.00  0.00     0.209 HD
ENDBRANCH  11  12
ENDBRANCH  10  11
ENDBRANCH   4  10
BRANCH   7  14
ATOM     14  C   UNL d   1       3.382   0.000   0.704  0.00  0.00     0.034 C 
ATOM     15  C   UNL d   1       3.515   1.217   1.376  0.00  0.00     0.032 C 
ATOM     16  C   UNL d   1       4.719   1.927   1.330  0.00  0.00     0.039 C 
ATOM     17  C   UNL d   1       5.824   1.383   0.676  0.00  0.00     0.068 C 
ATOM     18  C   UNL d   1       5.741   0.096   0.145  0.00  0.00     0.039 C 
ATOM     19  C   UNL d   1       4.522  -0.587   0.152  0.00  0.00     0.032 C 
BRANCH  17  20
ATOM     20  O   UNL d   1       7.029   2.010   0.517  0.00  0.00    -0.356 OA
ATOM     21  C   UNL d   1       6.971   3.434   0.498  0.00  0.00     0.210 C 
ENDBRANCH  17  20
ENDBRANCH   7  14
BRANCH   5  22
ATOM     22  C   UNL d   1      -2.873   1.609   0.070  0.00  0.00    -0.011 A 
ATOM     23  C   UNL d   1      -2.943   2.565   1.094  0.00  0.00     0.016 A 
ATOM     24  C   UNL d   1      -4.160   3.180   1.403  0.00  0.00     0.037 A 
ATOM     25  C   UNL d   1      -5.307   2.839   0.677  0.00  0.00     0.102 A 
ATOM     26  C   UNL d   1      -5.241   1.887  -0.352  0.00  0.00     0.037 A 
ATOM     27  C   UNL d   1      -4.022   1.273  -0.654  0.00  0.00     0.016 A 
BRANCH  25  28
ATOM     28  N   UNL d   1      -6.588   3.494   0.988  0.00  0.00    -0.116 N 
ATOM     29  O   UNL d   1      -6.604   4.318   1.906  0.00  0.00    -0.532 OA
ATOM     30  O   UNL d   1      -7.572   3.178   0.302  0.00  0.00    -0.532 OA
ENDBRANCH  25  28
ENDBRANCH   5  22
TORSDOF 7
