REMARK  8 active torsions:
REMARK  status: ('A' for Active; 'I' for Inactive)
REMARK    1  A    between atoms: C_17  and  N_1 
REMARK    2  A    between atoms: S_13  and  C_2 
REMARK    3  A    between atoms: C_15  and  C_7 
REMARK    4  A    between atoms: C_16  and  C_8 
REMARK    5  A    between atoms: O_20  and  C_9 
REMARK    6  A    between atoms: C_10  and  C_14 
REMARK    7  A    between atoms: C_18  and  S_13 
REMARK    8  A    between atoms: C_14  and  C_18 
ROOT
ATOM      1  C   UNL d   1       6.280  -1.292   0.903  0.00  0.00    -0.016 A 
ATOM      2  C   UNL d   1       7.293  -2.719  -0.874  0.00  0.00    -0.016 A 
ATOM      3  C   UNL d   1       7.309  -1.589  -0.023  0.00  0.00     0.079 A 
ATOM      4  C   UNL d   1       5.042  -3.208  -0.022  0.00  0.00     0.012 A 
ATOM      5  C   UNL d   1       6.117  -3.497  -0.867  0.00  0.00     0.026 A 
ATOM      6  C   UNL d   1       5.150  -2.139   0.879  0.00  0.00     0.026 A 
ENDROOT
BRANCH   4   7
ATOM      7  C   UNL d   1       3.772  -4.016  -0.046  0.00  0.00     0.169 C 
ATOM      8  O   UNL d   1       2.938  -3.820   0.833  0.00  0.00    -0.291 OA
BRANCH   7   9
ATOM      9  C   UNL d   1       3.605  -5.038  -1.162  0.00  0.00     0.166 C 
BRANCH   9  10
ATOM     10  S   UNL d   1       1.964  -5.828  -1.160  0.00  0.00    -0.084 SA
BRANCH  10  11
ATOM     11  C   UNL d   1       2.141  -6.869  -2.539  0.00  0.00     0.177 C 
ATOM     12  N   UNL d   1       2.986  -7.965  -2.636  0.00  0.00    -0.219 N 
ATOM     13  N   UNL d   1       3.116  -8.256  -3.956  0.00  0.00     0.001 NA
ATOM     14  N   UNL d   1       2.265  -7.466  -4.594  0.00  0.00    -0.006 NA
ATOM     15  N   UNL d   1       1.669  -6.585  -3.733  0.00  0.00    -0.264 N 
ATOM     16  HN  UNL d   1       0.996  -5.856  -3.969  1.00  0.00     0.186 HD
BRANCH  12  17
ATOM     17  C   UNL d   1       3.703  -8.689  -1.653  0.00  0.00     0.056 A 
ATOM     18  C   UNL d   1       3.229  -8.795  -0.341  0.00  0.00     0.031 A 
ATOM     19  C   UNL d   1       3.984  -9.470   0.620  0.00  0.00     0.002 A 
ATOM     20  C   UNL d   1       5.212 -10.035   0.277  0.00  0.00     0.000 A 
ATOM     21  C   UNL d   1       5.673  -9.958  -1.035  0.00  0.00     0.002 A 
ATOM     22  C   UNL d   1       4.913  -9.305  -2.008  0.00  0.00     0.031 A 
ENDBRANCH  12  17
ENDBRANCH  10  11
ENDBRANCH   9  10
ENDBRANCH   7   9
ENDBRANCH   4   7
BRANCH   2  23
ATOM     23  C   UNL d   1       8.453  -3.117  -1.827  0.00  0.00    -0.021 C 
ATOM     24  C   UNL d   1       8.208  -2.447  -3.193  0.00  0.00     0.019 C 
ATOM     25  C   UNL d   1       9.862  -2.723  -1.321  0.00  0.00     0.019 C 
ATOM     26  C   UNL d   1       8.535  -4.655  -2.051  0.00  0.00     0.019 C 
ENDBRANCH   2  23
BRANCH   1  27
ATOM     27  C   UNL d   1       6.351  -0.109   1.902  0.00  0.00    -0.021 C 
ATOM     28  C   UNL d   1       5.117  -0.006   2.838  0.00  0.00     0.019 C 
ATOM     29  C   UNL d   1       7.569  -0.260   2.844  0.00  0.00     0.019 C 
ATOM     30  C   UNL d   1       6.437   1.246   1.163  0.00  0.00     0.019 C 
ENDBRANCH   1  27
BRANCH   3  31
ATOM     31  O   UNL d   1       8.328  -0.695  -0.163  0.00  0.00    -0.360 OA
ATOM     32  H   UNL d   1       8.987  -0.918   0.511  0.00  0.00     0.217 HD
ENDBRANCH   3  31
TORSDOF 8
