REMARK  4 active torsions:
REMARK  status: ('A' for Active; 'I' for Inactive)
REMARK    1  A    between atoms: O_10  and  C_3 
REMARK    2  A    between atoms: S_9  and  C_4 
REMARK    3  A    between atoms: C_12  and  C_8 
REMARK    4  A    between atoms: O_13  and  C_12 
ROOT
ATOM      1  N   UNL d   1      -0.705   1.219   0.023  0.00  0.00    -0.317 N 
ATOM      2  HN  UNL d   1      -1.189   2.117   0.022  1.00  0.00     0.170 HD
ATOM      3  C   UNL d   1      -1.354   0.050   0.028  0.00  0.00     0.149 A 
ATOM      4  C   UNL d   1       0.630   1.117   0.020  0.00  0.00     0.143 A 
ATOM      5  C   UNL d   1      -0.778  -1.201   0.033  0.00  0.00     0.014 A 
ATOM      6  N   UNL d   1       1.320  -0.030   0.017  0.00  0.00    -0.338 N 
ATOM      7  HN  UNL d   1       2.340  -0.036   0.009  1.00  0.00     0.168 HD
ATOM      8  C   UNL d   1       0.609  -1.185   0.024  0.00  0.00     0.045 A 
ATOM      9  C   UNL d   1      -1.583  -2.460   0.024  0.00  0.00     0.055 C 
ENDROOT
BRANCH   8  10
ATOM     10  C   UNL d   1       1.433  -2.456  -0.013  0.00  0.00     0.224 C 
BRANCH  10  11
ATOM     11  O   UNL d   1       1.154  -3.283  -1.147  0.00  0.00    -0.390 OA
ATOM     12  C   UNL d   1       1.565  -2.690  -2.374  0.00  0.00     0.201 C 
ENDBRANCH  10  11
ENDBRANCH   8  10
BRANCH   4  13
ATOM     13  S   UNL d   1       1.546   2.628   0.011  0.00  0.00    -0.107 SA
ATOM     14  H   UNL d   1       0.452   3.397   0.010  0.00  0.00     0.110 HD
ENDBRANCH   4  13
BRANCH   3  15
ATOM     15  O   UNL d   1      -2.705   0.198   0.022  0.00  0.00    -0.346 OA
ATOM     16  H   UNL d   1      -2.784   1.168   0.009  0.00  0.00     0.219 HD
ENDBRANCH   3  15
TORSDOF 4
