REMARK  6 active torsions:
REMARK  status: ('A' for Active; 'I' for Inactive)
REMARK    1  A    between atoms: S_4  and  C_1 
REMARK    2  A    between atoms: C_7  and  C_2 
REMARK    3  A    between atoms: N_11  and  C_3 
REMARK    4  A    between atoms: C_8  and  S_4 
REMARK    5  A    between atoms: S_12  and  C_5 
REMARK    6  A    between atoms: O_16  and  C_7 
ROOT
ATOM      1  C   UNL d   1      -0.560  -1.317   0.043  0.00  0.00     0.115 C 
ATOM      2  C   UNL d   1      -0.217   1.011  -0.010  0.00  0.00     0.109 C 
ATOM      3  C   UNL d   1      -1.153  -0.009  -0.048  0.00  0.00     0.073 C 
ATOM      4  C   UNL d   1       0.801  -1.242   0.277  0.00  0.00     0.066 C 
ATOM      5  S   UNL d   1       1.366   0.369   0.156  0.00  0.00    -0.073 SA
ENDROOT
BRANCH   1   6
ATOM      6  S   UNL d   1      -1.484  -2.789   0.028  0.00  0.00     0.210 S 
ATOM      7  O   UNL d   1      -2.768  -2.435  -0.556  0.00  0.00    -0.217 OA
ATOM      8  O   UNL d   1      -0.637  -3.787  -0.590  0.00  0.00    -0.217 OA
BRANCH   6   9
ATOM      9  C   UNL d   1      -1.803  -3.272   1.700  0.00  0.00     0.064 A 
ATOM     10  C   UNL d   1      -1.470  -2.457   2.787  0.00  0.00     0.025 A 
ATOM     11  C   UNL d   1      -1.768  -2.885   4.083  0.00  0.00     0.025 A 
ATOM     12  C   UNL d   1      -2.401  -4.112   4.283  0.00  0.00     0.034 A 
ATOM     13  C   UNL d   1      -2.739  -4.921   3.198  0.00  0.00     0.025 A 
ATOM     14 CL   UNL d   1      -2.775  -4.626   5.881  0.00  0.00    -0.084 Cl
ATOM     15  C   UNL d   1      -2.437  -4.504   1.902  0.00  0.00     0.025 A 
ENDBRANCH   6   9
ENDBRANCH   1   6
BRANCH   3  16
ATOM     16  N   UNL d   1      -2.486   0.209  -0.116  0.00  0.00    -0.397 N 
ATOM     17  H   UNL d   1      -2.868   1.139  -0.292  0.00  0.00     0.156 HD
ATOM     18  H   UNL d   1      -3.132  -0.543  -0.388  0.00  0.00     0.156 HD
ENDBRANCH   3  16
BRANCH   4  19
ATOM     19  S   UNL d   1       1.909  -2.514   0.791  0.00  0.00    -0.126 SA
ATOM     20  C   UNL d   1       2.546  -3.102  -0.793  0.00  0.00     0.096 C 
ENDBRANCH   4  19
BRANCH   2  21
ATOM     21  C   UNL d   1      -0.366   2.458  -0.060  0.00  0.00     0.302 C 
ATOM     22  O   UNL d   1       0.541   3.283  -0.023  0.00  0.00    -0.259 OA
BRANCH  21  23
ATOM     23  O   UNL d   1      -1.690   2.804  -0.139  0.00  0.00    -0.322 OA
ATOM     24  C   UNL d   1      -1.937   4.211  -0.123  0.00  0.00     0.213 C 
ENDBRANCH  21  23
ENDBRANCH   2  21
TORSDOF 6
