REMARK  5 active torsions:
REMARK  status: ('A' for Active; 'I' for Inactive)
REMARK    1  A    between atoms: C_2  and  C_1 
REMARK    2  A    between atoms: C_22  and  N_3 
REMARK    3  A    between atoms: S_6  and  C_14 
REMARK    4  A    between atoms: C_16  and  S_6 
REMARK    5  A    between atoms: C_14  and  C_10 
ROOT
ATOM      1  C   UNL d   1      -0.596  -2.692   0.125  0.00  0.00     0.201 A 
ATOM      2  N   UNL d   1      -0.055  -3.402   1.093  0.00  0.00    -0.321 N 
ATOM      3  HN  UNL d   1       0.528  -3.078   1.865  1.00  0.00     0.169 HD
ATOM      4  C   UNL d   1      -0.461  -4.681   0.817  0.00  0.00     0.118 A 
ATOM      5  N   UNL d   1      -1.209  -4.795  -0.288  0.00  0.00    -0.246 N 
ATOM      6  HN  UNL d   1      -1.603  -5.640  -0.702  1.00  0.00     0.196 HD
ATOM      7  O   UNL d   1      -1.321  -3.478  -0.735  0.00  0.00    -0.216 OA
ENDROOT
BRANCH   4   8
ATOM      8  C   UNL d   1       0.021  -5.847   1.577  0.00  0.00     0.224 C 
BRANCH   8   9
ATOM      9  S   UNL d   1      -1.135  -6.427   2.787  0.00  0.00     0.182 S 
ATOM     10  O   UNL d   1      -0.591  -7.649   3.360  0.00  0.00    -0.222 OA
ATOM     11  O   UNL d   1      -1.520  -5.335   3.660  0.00  0.00    -0.222 OA
BRANCH   9  12
ATOM     12  C   UNL d   1      -2.585  -6.910   1.872  0.00  0.00     0.059 A 
ATOM     13  C   UNL d   1      -2.671  -8.206   1.348  0.00  0.00     0.026 A 
ATOM     14  C   UNL d   1      -3.820  -8.587   0.654  0.00  0.00     0.044 A 
ATOM     15  C   UNL d   1      -4.865  -7.680   0.502  0.00  0.00     0.116 A 
ATOM     16  C   UNL d   1      -4.792  -6.400   1.042  0.00  0.00     0.044 A 
ATOM     17  F   UNL d   1      -5.965  -8.050  -0.167  0.00  0.00    -0.206 F 
ATOM     18  C   UNL d   1      -3.650  -6.011   1.742  0.00  0.00     0.026 A 
ENDBRANCH   9  12
ENDBRANCH   8   9
ENDBRANCH   4   8
BRANCH   1  19
ATOM     19  C   UNL d   1      -0.391  -1.291  -0.050  0.00  0.00     0.123 A 
ATOM     20  N   UNL d   1      -1.232  -0.448  -0.736  0.00  0.00    -0.287 N 
ATOM     21  N   UNL d   1      -0.758   0.814  -0.843  0.00  0.00    -0.301 N 
ATOM     22  C   UNL d   1       0.390   0.800  -0.154  0.00  0.00     0.042 A 
ATOM     23  HN  UNL d   1      -1.180   1.600  -1.338  1.00  0.00     0.187 HD
ATOM     24  C   UNL d   1       0.640  -0.482   0.377  0.00  0.00     0.067 A 
ATOM     25  C   UNL d   1       1.197   2.043  -0.064  0.00  0.00     0.071 C 
ATOM     26 BR   UNL d   1       2.144  -0.948   1.401  0.00  0.00    -0.046 Br
BRANCH  20  27
ATOM     27  C   UNL d   1      -2.561  -0.712  -1.262  0.00  0.00     0.145 C 
ATOM     28  C   UNL d   1      -2.552  -1.069  -2.738  0.00  0.00     0.028 C 
ENDBRANCH  20  27
ENDBRANCH   1  19
TORSDOF 5
