REMARK  4 active torsions:
REMARK  status: ('A' for Active; 'I' for Inactive)
REMARK    1  A    between atoms: N_12  and  C_1 
REMARK    2  A    between atoms: C_8  and  N_2 
REMARK    3  A    between atoms: C_10  and  C_13 
REMARK    4  A    between atoms: C_11  and  C_14 
ROOT
ATOM      1  C   UNL d   1      -0.606   0.216   0.806  0.00  0.00     0.134 C 
ATOM      2  N   UNL d   1       0.108   1.548   0.976  0.00  0.00    -0.151 NA
ATOM      3  N   UNL d   1       1.255   1.541   0.199  0.00  0.00    -0.259 N 
ATOM      4  HN  UNL d   1       1.696   2.360  -0.219  1.00  0.00     0.202 HD
ATOM      5  C   UNL d   1       0.717  -0.617   0.714  0.00  0.00     0.173 C 
ATOM      6  N   UNL d   1       1.660   0.357   0.095  0.00  0.00    -0.315 N 
ATOM      7  HN  UNL d   1       2.534   0.093  -0.360  1.00  0.00     0.181 HD
ATOM      8  C   UNL d   1      -1.237   0.086  -0.634  0.00  0.00     0.082 C 
ATOM      9  C   UNL d   1       0.721  -1.847  -0.188  0.00  0.00     0.302 C 
ATOM     10  N   UNL d   1      -0.632  -2.344  -0.324  0.00  0.00     0.086 N 
ATOM     11  C   UNL d   1      -1.444  -1.388  -1.089  0.00  0.00     0.276 C 
ATOM     12  C   UNL d   1      -0.664  -3.705  -0.834  0.00  0.00     0.310 C 
ENDROOT
BRANCH   2  13
ATOM     13  C   UNL d   1       0.485   1.935   2.316  0.00  0.00     0.036 A 
ATOM     14  C   UNL d   1       0.491   1.052   3.415  0.00  0.00     0.041 A 
ATOM     15  C   UNL d   1       1.060   1.366   4.656  0.00  0.00     0.050 A 
ATOM     16  C   UNL d   1       1.610   2.635   4.826  0.00  0.00     0.032 A 
ATOM     17  C   UNL d   1       1.601   3.566   3.776  0.00  0.00     0.050 A 
ATOM     18  C   UNL d   1       1.036   3.207   2.533  0.00  0.00     0.041 A 
BRANCH  15  19
ATOM     19  C   UNL d   1       1.148   0.304   5.728  0.00  0.00     0.417 C 
ATOM     20  F   UNL d   1       0.408  -0.809   5.465  0.00  0.00    -0.166 F 
ATOM     21  F   UNL d   1       2.424  -0.134   5.911  0.00  0.00    -0.166 F 
ATOM     22  F   UNL d   1       0.726   0.751   6.945  0.00  0.00    -0.166 F 
ENDBRANCH  15  19
BRANCH  17  23
ATOM     23  C   UNL d   1       2.260   4.908   3.976  0.00  0.00     0.417 C 
ATOM     24  F   UNL d   1       2.002   5.811   2.985  0.00  0.00    -0.166 F 
ATOM     25  F   UNL d   1       1.876   5.509   5.137  0.00  0.00    -0.166 F 
ATOM     26  F   UNL d   1       3.617   4.804   4.044  0.00  0.00    -0.166 F 
ENDBRANCH  17  23
ENDBRANCH   2  13
BRANCH   1  27
ATOM     27  N   UNL d   1      -1.657  -0.063   1.830  0.00  0.00    -0.384 N 
ATOM     28  C   UNL d   1      -2.726   0.959   1.876  0.00  0.00     0.145 C 
ATOM     29  C   UNL d   1      -3.506   0.854   3.193  0.00  0.00     0.187 C 
ATOM     30  O   UNL d   1      -4.096  -0.446   3.321  0.00  0.00    -0.388 OA
ATOM     31  C   UNL d   1      -3.077  -1.455   3.296  0.00  0.00     0.187 C 
ATOM     32  C   UNL d   1      -2.231  -1.393   2.005  0.00  0.00     0.145 C 
ENDBRANCH   1  27
TORSDOF 4
