REMARK  1 active torsions:
REMARK  status: ('A' for Active; 'I' for Inactive)
REMARK    1  A    between atoms: C_4  and  N_1 
ROOT
ATOM      1  N   UNL d   1       1.976  -0.247  -0.064  0.00  0.00    -0.278 N 
ATOM      2  C   UNL d   1       1.278   0.960   0.113  0.00  0.00     0.264 A 
ATOM      3  C   UNL d   1       1.090  -1.321  -0.117  0.00  0.00     0.044 A 
ATOM      4  C   UNL d   1      -0.150   0.608   0.103  0.00  0.00     0.045 A 
ATOM      5  C   UNL d   1      -0.263  -0.775  -0.031  0.00  0.00     0.006 A 
ATOM      6  O   UNL d   1       1.687   2.104   0.213  0.00  0.00    -0.267 OA
ATOM      7  C   UNL d   1       1.392  -2.624  -0.136  0.00  0.00     0.044 C 
ATOM      8  C   UNL d   1      -1.248   1.448   0.174  0.00  0.00     0.018 A 
ATOM      9  C   UNL d   1      -1.518  -1.366  -0.066  0.00  0.00     0.014 A 
ATOM     10  C   UNL d   1      -2.645  -0.538   0.017  0.00  0.00     0.001 A 
ATOM     11  C   UNL d   1      -2.512   0.858   0.128  0.00  0.00     0.001 A 
ENDROOT
BRANCH   1  12
ATOM     12  C   UNL d   1       3.384  -0.269  -0.233  0.00  0.00     0.046 A 
ATOM     13  C   UNL d   1       4.214   0.484   0.606  0.00  0.00     0.054 A 
ATOM     14  C   UNL d   1       5.600   0.427   0.451  0.00  0.00     0.037 A 
ATOM     15 CL   UNL d   1       6.617   1.287   1.542  0.00  0.00    -0.084 Cl
ATOM     16  C   UNL d   1       6.174  -0.334  -0.564  0.00  0.00     0.048 A 
ATOM     17  C   UNL d   1       5.347  -1.048  -1.424  0.00  0.00     0.037 A 
ATOM     18  C   UNL d   1       3.962  -1.031  -1.256  0.00  0.00     0.054 A 
ATOM     19 CL   UNL d   1       6.035  -1.957  -2.713  0.00  0.00    -0.084 Cl
ENDBRANCH   1  12
TORSDOF 1
