REMARK  6 active torsions:
REMARK  status: ('A' for Active; 'I' for Inactive)
REMARK    1  A    between atoms: C_4  and  C_1 
REMARK    2  A    between atoms: C_5  and  C_2 
REMARK    3  A    between atoms: C_6  and  C_3 
REMARK    4  A    between atoms: O_10  and  C_4 
REMARK    5  A    between atoms: O_12  and  C_5 
REMARK    6  A    between atoms: O_11  and  C_6 
ROOT
ATOM      1  C   UNL d   1      -0.098   0.903  -0.055  0.00  0.00     0.114 A 
ATOM      2  C   UNL d   1       0.751  -0.355  -0.003  0.00  0.00     0.114 A 
ATOM      3  C   UNL d   1      -0.765  -0.458  -0.049  0.00  0.00     0.114 A 
ENDROOT
BRANCH   1   4
ATOM      4  C   UNL d   1      -0.019   1.766  -1.254  0.00  0.00     0.145 C 
ATOM      5  O   UNL d   1       0.611   1.458  -2.249  0.00  0.00    -0.650 OA
BRANCH   4   6
ATOM      6  O   UNL d   1      -0.659   2.947  -1.113  0.00  0.00    -0.776 OA
ATOM      7  H   UNL d   1      -1.073   3.091  -0.243  0.00  0.00     0.167 HD
ENDBRANCH   4   6
ENDBRANCH   1   4
BRANCH   2   8
ATOM      8  C   UNL d   1       1.465  -0.678   1.247  0.00  0.00     0.145 C 
ATOM      9  O   UNL d   1       0.897  -0.695   2.327  0.00  0.00    -0.650 OA
BRANCH   8  10
ATOM     10  O   UNL d   1       2.786  -0.893   1.089  0.00  0.00    -0.776 OA
ATOM     11  H   UNL d   1       3.097  -0.821   0.164  0.00  0.00     0.167 HD
ENDBRANCH   8  10
ENDBRANCH   2   8
BRANCH   3  12
ATOM     12  C   UNL d   1      -1.397  -1.059  -1.244  0.00  0.00     0.145 C 
ATOM     13  O   UNL d   1      -0.795  -1.256  -2.286  0.00  0.00    -0.650 OA
BRANCH  12  14
ATOM     14  O   UNL d   1      -2.691  -1.402  -1.060  0.00  0.00    -0.776 OA
ATOM     15  H   UNL d   1      -3.034  -1.248  -0.161  0.00  0.00     0.167 HD
ENDBRANCH  12  14
ENDBRANCH   3  12
TORSDOF 6
