REMARK  3 active torsions:
REMARK  status: ('A' for Active; 'I' for Inactive)
REMARK    1  A    between atoms: N_5  and  C_2 
REMARK    2  A    between atoms: O_14  and  C_9 
REMARK    3  A    between atoms: O_15  and  C_10 
ROOT
ATOM      1  C   UNL d   1       0.145   0.820   0.030  0.00  0.00     0.032 A 
ATOM      2  C   UNL d   1      -1.074   1.526   0.044  0.00  0.00     0.096 A 
ATOM      3  C   UNL d   1       0.057  -0.565   0.027  0.00  0.00     0.049 A 
ATOM      4  C   UNL d   1       1.427   1.415  -0.032  0.00  0.00     0.056 A 
ATOM      5  N   UNL d   1      -2.259   0.890   0.013  0.00  0.00    -0.342 N 
ATOM      6  HN  UNL d   1      -3.143   1.399  -0.004  1.00  0.00     0.167 HD
ATOM      7  C   UNL d   1       1.255  -1.275   0.004  0.00  0.00     0.070 A 
ATOM      8  C   UNL d   1       2.641   0.696  -0.067  0.00  0.00     0.102 A 
ATOM      9  C   UNL d   1       2.552  -0.693  -0.040  0.00  0.00     0.103 A 
ATOM     10  N   UNL d   1      -1.113  -1.209   0.027  0.00  0.00    -0.351 N 
ATOM     11  HN  UNL d   1      -1.166  -2.228   0.042  1.00  0.00     0.166 HD
ATOM     12  C   UNL d   1      -2.215  -0.447   0.005  0.00  0.00     0.182 A 
ENDROOT
BRANCH   2  13
ATOM     13  N   UNL d   1      -1.055   2.925   0.066  0.00  0.00    -0.269 NA
ATOM     14  C   UNL d   1      -2.221   3.618  -0.469  0.00  0.00     0.097 C 
ATOM     15  C   UNL d   1      -1.873   5.063  -0.133  0.00  0.00     0.016 C 
ATOM     16  C   UNL d   1      -1.244   4.963   1.255  0.00  0.00     0.016 C 
ATOM     17  C   UNL d   1      -0.763   3.512   1.379  0.00  0.00     0.097 C 
ENDBRANCH   2  13
BRANCH   8  18
ATOM     18  O   UNL d   1       3.635   1.610  -0.191  0.00  0.00    -0.353 OA
ATOM     19  C   UNL d   1       5.001   1.403   0.051  0.00  0.00     0.210 C 
ENDBRANCH   8  18
BRANCH   9  20
ATOM     20  O   UNL d   1       3.449  -1.713  -0.111  0.00  0.00    -0.353 OA
ATOM     21  C   UNL d   1       4.841  -1.568  -0.019  0.00  0.00     0.210 C 
ENDBRANCH   9  20
TORSDOF 3
