REMARK  8 active torsions:
REMARK  status: ('A' for Active; 'I' for Inactive)
REMARK    1  A    between atoms: N_8  and  C_1 
REMARK    2  A    between atoms: N_12  and  C_1 
REMARK    3  A    between atoms: C_2  and  C_6 
REMARK    4  A    between atoms: N_3  and  N_8 
REMARK    5  A    between atoms: C_15  and  N_12 
REMARK    6  A    between atoms: C_13  and  C_15 
REMARK    7  A    between atoms: C_16  and  C_13 
REMARK    8  A    between atoms: O_14  and  C_16 
ROOT
ATOM      1  N   UNL d   1       0.272  -0.330  -1.127  0.00  0.00    -0.277 N 
ATOM      2  H   UNL d   1      -0.742  -0.292  -1.182  0.00  0.00     0.189 HD
ENDROOT
BRANCH   1   3
ATOM      3  N   UNL d   1       0.993  -1.046  -2.044  0.00  0.00    -0.308 N 
ATOM      4  C   UNL d   1       0.333  -1.486  -3.069  0.00  0.00     0.126 C 
ATOM      5  HN  UNL d   1       1.990  -1.224  -1.928  1.00  0.00     0.186 HD
BRANCH   4   6
ATOM      6  C   UNL d   1       0.997  -2.342  -4.019  0.00  0.00     0.021 A 
ATOM      7  S   UNL d   1       0.201  -2.787  -5.463  0.00  0.00    -0.101 SA
ATOM      8  C   UNL d   1       1.535  -3.730  -5.974  0.00  0.00     0.050 A 
ATOM      9  C   UNL d   1       2.561  -3.720  -5.059  0.00  0.00     0.008 A 
ATOM     10  C   UNL d   1       2.250  -2.916  -3.926  0.00  0.00     0.021 A 
ENDBRANCH   4   6
ENDBRANCH   1   3
BRANCH   1  11
ATOM     11  C   UNL d   1       0.852  -0.020   0.088  0.00  0.00     0.186 C 
ATOM     12  S   UNL d   1      -0.106   0.440   1.368  0.00  0.00    -0.040 SA
BRANCH  11  13
ATOM     13  N   UNL d   1       2.216  -0.155   0.070  0.00  0.00    -0.366 N 
ATOM     14  H   UNL d   1       2.537  -0.461  -0.844  0.00  0.00     0.161 HD
BRANCH  13  15
ATOM     15  C   UNL d   1       3.107  -0.348   1.202  0.00  0.00     0.124 C 
BRANCH  15  16
ATOM     16  C   UNL d   1       3.407  -1.837   1.379  0.00  0.00     0.046 C 
BRANCH  16  17
ATOM     17  C   UNL d   1       4.330  -2.096   2.560  0.00  0.00     0.168 C 
BRANCH  17  18
ATOM     18  O   UNL d   1       3.688  -1.662   3.755  0.00  0.00    -0.396 OA
ATOM     19  C   UNL d   1       4.512  -1.834   4.897  0.00  0.00     0.201 C 
ENDBRANCH  17  18
ENDBRANCH  16  17
ENDBRANCH  15  16
ENDBRANCH  13  15
ENDBRANCH  11  13
ENDBRANCH   1  11
TORSDOF 8
