REMARK  2 active torsions:
REMARK  status: ('A' for Active; 'I' for Inactive)
REMARK    1  A    between atoms: S_5  and  N_1 
REMARK    2  A    between atoms: N_7  and  C_2 
ROOT
ATOM      1  N   UNL d   1       1.571  -1.037   0.015  0.00  0.00    -0.179 N 
ATOM      2  C   UNL d   1       1.529   1.083  -0.018  0.00  0.00     0.143 A 
ATOM      3  N   UNL d   1       2.384   0.049  -0.011  0.00  0.00    -0.268 N 
ATOM      4  HN  UNL d   1       3.403   0.073  -0.023  1.00  0.00     0.190 HD
ATOM      5  C   UNL d   1       0.171   0.664  -0.063  0.00  0.00     0.078 A 
ATOM      6  C   UNL d   1       0.227  -0.736   0.009  0.00  0.00     0.085 A 
ATOM      7  C   UNL d   1      -1.098   1.258  -0.194  0.00  0.00     0.132 A 
ATOM      8  C   UNL d   1      -0.930  -1.533   0.045  0.00  0.00     0.033 A 
ATOM      9  F   UNL d   1      -1.227   2.575  -0.397  0.00  0.00    -0.205 F 
ATOM     10  C   UNL d   1      -2.173  -0.897  -0.003  0.00  0.00     0.005 A 
ATOM     11  C   UNL d   1      -2.258   0.484  -0.133  0.00  0.00     0.043 A 
ENDROOT
BRANCH   2  12
ATOM     12  N   UNL d   1       2.073   2.417   0.046  0.00  0.00    -0.304 N 
ATOM     13  C   UNL d   1       1.548   3.510   0.747  0.00  0.00     0.014 A 
ATOM     14  C   UNL d   1       2.351   4.611   0.516  0.00  0.00     0.027 A 
ATOM     15  C   UNL d   1       0.387   3.483   1.682  0.00  0.00     0.068 C 
ATOM     16  C   UNL d   1       3.434   4.196  -0.269  0.00  0.00     0.027 A 
ATOM     17  C   UNL d   1       3.270   2.851  -0.542  0.00  0.00     0.014 A 
ATOM     18  C   UNL d   1       4.176   2.027  -1.394  0.00  0.00     0.068 C 
ENDBRANCH   2  12
BRANCH   1  19
ATOM     19  S   UNL d   1       2.145  -2.662   0.006  0.00  0.00     0.246 S 
ATOM     20  O   UNL d   1       1.684  -3.225   1.265  0.00  0.00    -0.204 OA
ATOM     21  O   UNL d   1       1.708  -3.203  -1.268  0.00  0.00    -0.204 OA
ATOM     22  C   UNL d   1       3.914  -2.608   0.024  0.00  0.00     0.188 C 
ENDBRANCH   1  19
TORSDOF 2
