REMARK  1 active torsions:
REMARK  status: ('A' for Active; 'I' for Inactive)
REMARK    1  A    between atoms: C_4  and  N_1 
ROOT
ATOM      1  N   UNL d   1       0.018   0.862  -0.048  0.00  0.00    -0.252 N 
ATOM      2  C   UNL d   1       0.959   0.044  -0.634  0.00  0.00     0.231 A 
ATOM      3  C   UNL d   1      -0.918   0.131   0.648  0.00  0.00     0.231 A 
ATOM      4  C   UNL d   1       0.688  -1.378  -0.249  0.00  0.00     0.113 A 
ATOM      5  C   UNL d   1      -0.602  -1.327   0.527  0.00  0.00     0.113 A 
ATOM      6  O   UNL d   1       1.929   0.336  -1.324  0.00  0.00    -0.273 OA
ATOM      7  O   UNL d   1      -1.915   0.512   1.250  0.00  0.00    -0.273 OA
ENDROOT
BRANCH   1   8
ATOM      8  C   UNL d   1       0.008   2.287  -0.157  0.00  0.00     0.045 A 
ATOM      9  C   UNL d   1       0.709   2.951  -1.175  0.00  0.00     0.031 A 
ATOM     10  C   UNL d   1       0.692   4.347  -1.283  0.00  0.00     0.009 A 
ATOM     11  C   UNL d   1      -0.012   5.123  -0.362  0.00  0.00    -0.062 A 
ATOM     12  C   UNL d   1      -0.710   4.480   0.659  0.00  0.00     0.009 A 
ATOM     13  C   UNL d   1      -0.033   6.615  -0.495  0.00  0.00     0.048 C 
ATOM     14  C   UNL d   1      -0.702   3.083   0.755  0.00  0.00     0.031 A 
ENDBRANCH   1   8
TORSDOF 1
