REMARK  2 active torsions:
REMARK  status: ('A' for Active; 'I' for Inactive)
REMARK    1  A    between atoms: C_7  and  N_1 
REMARK    2  A    between atoms: S_10  and  C_2 
ROOT
ATOM      1  N   UNL d   1       0.981  -0.667  -0.021  0.00  0.00    -0.241 N 
ATOM      2  C   UNL d   1       0.917   0.668   0.262  0.00  0.00     0.170 A 
ATOM      3  C   UNL d   1      -0.310  -1.002  -0.386  0.00  0.00     0.347 A 
ATOM      4  N   UNL d   1      -0.269   1.197   0.150  0.00  0.00    -0.275 N 
ATOM      5  HN  UNL d   1      -0.544   2.164   0.324  1.00  0.00     0.189 HD
ATOM      6  N   UNL d   1      -1.055   0.163  -0.254  0.00  0.00    -0.249 N 
ATOM      7  O   UNL d   1      -0.775  -2.082  -0.718  0.00  0.00    -0.245 OA
ATOM      8  H   UNL d   1      -2.051   0.249  -0.406  0.00  0.00     0.192 HD
ENDROOT
BRANCH   1   9
ATOM      9  C   UNL d   1       2.040  -1.597   0.082  0.00  0.00     0.048 A 
ATOM     10  C   UNL d   1       2.968  -1.542   1.130  0.00  0.00     0.054 A 
ATOM     11  C   UNL d   1       3.975  -2.505   1.235  0.00  0.00     0.036 A 
ATOM     12 CL   UNL d   1       5.073  -2.448   2.560  0.00  0.00    -0.084 Cl
ATOM     13  C   UNL d   1       4.085  -3.525   0.295  0.00  0.00     0.024 A 
ATOM     14  C   UNL d   1       3.171  -3.594  -0.751  0.00  0.00     0.004 A 
ATOM     15  C   UNL d   1       2.148  -2.645  -0.847  0.00  0.00     0.030 A 
ENDBRANCH   1   9
BRANCH   2  16
ATOM     16  S   UNL d   1       2.323   1.616   0.628  0.00  0.00    -0.096 SA
ATOM     17  C   UNL d   1       1.672   3.284   0.400  0.00  0.00     0.099 C 
ENDBRANCH   2  16
TORSDOF 2
