REMARK  5 active torsions:
REMARK  status: ('A' for Active; 'I' for Inactive)
REMARK    1  A    between atoms: C_5  and  C_1 
REMARK    2  A    between atoms: C_7  and  C_2 
REMARK    3  A    between atoms: O_12  and  C_7 
REMARK    4  A    between atoms: C_10  and  C_15 
REMARK    5  A    between atoms: C_15  and  O_12 
ROOT
ATOM      1  C   UNL d   1      -1.309  -0.656   0.056  0.00  0.00     0.088 A 
ATOM      2  C   UNL d   1      -0.003  -1.245  -0.021  0.00  0.00     0.100 A 
ATOM      3  N   UNL d   1      -1.198   0.669   0.253  0.00  0.00    -0.259 N 
ATOM      4  HN  UNL d   1      -1.965   1.330   0.380  1.00  0.00     0.195 HD
ATOM      5  O   UNL d   1       0.139   0.966   0.252  0.00  0.00    -0.241 OA
ATOM      6  C   UNL d   1       0.857  -0.170   0.095  0.00  0.00     0.091 A 
ATOM      7  C   UNL d   1       2.322   0.010   0.064  0.00  0.00     0.080 C 
ENDROOT
BRANCH   2   8
ATOM      8  C   UNL d   1       0.438  -2.613  -0.166  0.00  0.00     0.298 C 
ATOM      9  O   UNL d   1       1.499  -3.019   0.298  0.00  0.00    -0.259 OA
BRANCH   8  10
ATOM     10  O   UNL d   1      -0.405  -3.378  -0.918  0.00  0.00    -0.313 OA
BRANCH  10  11
ATOM     11  C   UNL d   1       0.003  -4.753  -1.053  0.00  0.00     0.219 C 
BRANCH  11  12
ATOM     12  C   UNL d   1       0.982  -4.994  -2.186  0.00  0.00    -0.012 A 
ATOM     13  C   UNL d   1       1.707  -6.198  -2.274  0.00  0.00     0.044 A 
ATOM     14  C   UNL d   1       2.593  -6.433  -3.330  0.00  0.00     0.048 A 
ATOM     15 CL   UNL d   1       1.527  -7.455  -1.100  0.00  0.00    -0.084 Cl
ATOM     16  C   UNL d   1       2.757  -5.470  -4.319  0.00  0.00     0.035 A 
ATOM     17  C   UNL d   1       2.042  -4.278  -4.264  0.00  0.00     0.024 A 
ATOM     18 CL   UNL d   1       3.842  -5.757  -5.623  0.00  0.00    -0.084 Cl
ATOM     19  C   UNL d   1       1.155  -4.044  -3.209  0.00  0.00     0.013 A 
ENDBRANCH  11  12
ENDBRANCH  10  11
ENDBRANCH   8  10
ENDBRANCH   2   8
BRANCH   1  20
ATOM     20  C   UNL d   1      -2.645  -1.263   0.046  0.00  0.00     0.054 A 
ATOM     21  C   UNL d   1      -3.741  -0.688  -0.628  0.00  0.00     0.049 A 
ATOM     22 CL   UNL d   1      -3.608   0.698  -1.660  0.00  0.00    -0.083 Cl
ATOM     23  C   UNL d   1      -5.025  -1.248  -0.520  0.00  0.00     0.025 A 
ATOM     24  C   UNL d   1      -5.236  -2.399   0.235  0.00  0.00     0.005 A 
ATOM     25  C   UNL d   1      -4.161  -2.992   0.887  0.00  0.00     0.043 A 
ATOM     26  C   UNL d   1      -2.890  -2.420   0.799  0.00  0.00     0.130 A 
ATOM     27  F   UNL d   1      -1.898  -3.009   1.485  0.00  0.00    -0.205 F 
ENDBRANCH   1  20
TORSDOF 5
