REMARK  6 active torsions:
REMARK  status: ('A' for Active; 'I' for Inactive)
REMARK    1  A    between atoms: C_7  and  C_1 
REMARK    2  A    between atoms: C_3  and  C_2 
REMARK    3  A    between atoms: N_11  and  C_6 
REMARK    4  A    between atoms: O_17  and  C_7 
REMARK    5  A    between atoms: C_16  and  N_11 
REMARK    6  A    between atoms: C_23  and  O_17 
ROOT
ATOM      1  C   UNL d   1       0.018  -1.581   0.109  0.00  0.00     0.087 A 
ATOM      2  C   UNL d   1       1.187  -0.851   0.085  0.00  0.00     0.150 A 
ATOM      3  N   UNL d   1       1.163   0.524   0.026  0.00  0.00    -0.185 N 
ATOM      4  HN  UNL d   1       2.033   1.056   0.010  1.00  0.00     0.184 HD
ATOM      5  C   UNL d   1      -0.020   1.154  -0.010  0.00  0.00     0.683 A 
ATOM      6  N   UNL d   1      -1.182   0.495   0.059  0.00  0.00    -0.201 N 
ATOM      7  HN  UNL d   1      -2.070   0.998   0.061  1.00  0.00     0.183 HD
ATOM      8  C   UNL d   1      -1.147  -0.848   0.124  0.00  0.00     0.126 A 
ENDROOT
BRANCH   5   9
ATOM      9  N   UNL d   1       0.011   2.542  -0.103  0.00  0.00    -0.192 N 
ATOM     10  H   UNL d   1       0.960   2.882  -0.067  0.00  0.00     0.184 HD
BRANCH   9  11
ATOM     11  C   UNL d   1      -0.954   3.446  -0.573  0.00  0.00     0.049 A 
ATOM     12  C   UNL d   1      -2.142   3.042  -1.191  0.00  0.00     0.030 A 
ATOM     13  C   UNL d   1      -3.107   3.967  -1.599  0.00  0.00     0.009 A 
ATOM     14  C   UNL d   1      -2.913   5.332  -1.381  0.00  0.00    -0.062 A 
ATOM     15  C   UNL d   1      -1.741   5.753  -0.748  0.00  0.00     0.009 A 
ATOM     16  C   UNL d   1      -3.971   6.304  -1.806  0.00  0.00     0.048 C 
ATOM     17  C   UNL d   1      -0.776   4.817  -0.346  0.00  0.00     0.030 A 
ENDBRANCH   9  11
ENDBRANCH   5   9
BRANCH   2  18
ATOM     18  C   UNL d   1       2.557  -1.496   0.127  0.00  0.00     0.434 C 
ATOM     19  F   UNL d   1       2.582  -2.777   0.588  0.00  0.00    -0.165 F 
ATOM     20  F   UNL d   1       3.159  -1.522  -1.097  0.00  0.00    -0.165 F 
ATOM     21  F   UNL d   1       3.421  -0.824   0.945  0.00  0.00    -0.165 F 
ENDBRANCH   2  18
BRANCH   1  22
ATOM     22  C   UNL d   1      -0.130  -3.037   0.155  0.00  0.00     0.296 C 
ATOM     23  O   UNL d   1      -0.959  -3.585   0.861  0.00  0.00    -0.259 OA
BRANCH  22  24
ATOM     24  O   UNL d   1       0.669  -3.619  -0.766  0.00  0.00    -0.318 OA
BRANCH  24  25
ATOM     25  C   UNL d   1       0.572  -5.053  -0.830  0.00  0.00     0.174 C 
ATOM     26  C   UNL d   1      -0.412  -5.452  -1.913  0.00  0.00     0.034 C 
ENDBRANCH  24  25
ENDBRANCH  22  24
ENDBRANCH   1  22
TORSDOF 6
