REMARK  3 active torsions:
REMARK  status: ('A' for Active; 'I' for Inactive)
REMARK    1  A    between atoms: C_2  and  C_1 
REMARK    2  A    between atoms: C_3  and  C_1 
REMARK    3  A    between atoms: C_4  and  C_1 
REMARK       I    between atoms: N_12  and  C_4 
ROOT
ATOM      1  C   UNL d   1       1.236  -0.057   0.058  0.00  0.00     0.291 C 
ENDROOT
BRANCH   1   2
ATOM      2  C   UNL d   1       0.649   0.529   1.287  0.00  0.00     0.408 C 
ATOM      3  F   UNL d   1       0.834   1.865   1.372  0.00  0.00    -0.170 F 
ATOM      4  F   UNL d   1      -0.680   0.301   1.362  0.00  0.00    -0.170 F 
ATOM      5  F   UNL d   1       1.198  -0.018   2.396  0.00  0.00    -0.170 F 
ENDBRANCH   1   2
BRANCH   1   6
ATOM      6  C   UNL d   1       0.554   0.525  -1.124  0.00  0.00     0.408 C 
ATOM      7  F   UNL d   1       0.514   1.874  -1.100  0.00  0.00    -0.170 F 
ATOM      8  F   UNL d   1       1.160   0.162  -2.277  0.00  0.00    -0.170 F 
ATOM      9  F   UNL d   1      -0.723   0.085  -1.210  0.00  0.00    -0.170 F 
ENDBRANCH   1   6
BRANCH   1  10
ATOM     10  C   UNL d   1       2.700   0.197  -0.004  0.00  0.00     0.237 C 
ATOM     11  O   UNL d   1       3.512  -0.727  -0.052  0.00  0.00    -0.273 OA
ATOM     12  N   UNL d   1       3.160   1.478  -0.012  0.00  0.00    -0.369 N 
ATOM     13  H   UNL d   1       2.593   2.305   0.148  0.00  0.00     0.159 HD
ATOM     14  H   UNL d   1       4.170   1.611  -0.027  0.00  0.00     0.159 HD
ENDBRANCH   1  10
TORSDOF 3
