REMARK  1 active torsions:
REMARK  status: ('A' for Active; 'I' for Inactive)
REMARK    1  A    between atoms: S_11  and  C_3 
ROOT
ATOM      1  N   UNL d   1      -1.618  -1.145  -0.000  0.00  0.00    -0.335 N 
ATOM      2  HN  UNL d   1      -1.938  -2.114   0.000  1.00  0.00     0.168 HD
ATOM      3  C   UNL d   1      -2.352  -0.061  -0.001  0.00  0.00     0.142 A 
ATOM      4  N   UNL d   1      -1.605   1.077  -0.001  0.00  0.00    -0.335 N 
ATOM      5  C   UNL d   1      -0.321  -0.689  -0.000  0.00  0.00     0.062 A 
ATOM      6  C   UNL d   1      -0.284   0.706  -0.001  0.00  0.00     0.064 A 
ATOM      7  C   UNL d   1       0.882  -1.410  -0.001  0.00  0.00     0.058 A 
ATOM      8  C   UNL d   1       0.901   1.442  -0.001  0.00  0.00     0.075 A 
ATOM      9  C   UNL d   1       2.087   0.704  -0.002  0.00  0.00     0.140 A 
ATOM     10  C   UNL d   1       2.085  -0.693  -0.002  0.00  0.00     0.074 A 
ATOM     11  F   UNL d   1       3.247   1.379  -0.002  0.00  0.00    -0.204 F 
ATOM     12 CL   UNL d   1       3.575  -1.562  -0.003  0.00  0.00    -0.081 Cl
ATOM     13  H   UNL d   1      -1.974   2.017  -0.001  0.00  0.00     0.168 HD
ENDROOT
BRANCH   3  14
ATOM     14  S   UNL d   1      -4.069   0.027  -0.000  0.00  0.00    -0.107 SA
ATOM     15  H   UNL d   1      -4.296  -1.294   0.003  0.00  0.00     0.110 HD
ENDBRANCH   3  14
TORSDOF 1
