REMARK  3 active torsions:
REMARK  status: ('A' for Active; 'I' for Inactive)
REMARK    1  A    between atoms: C_7  and  C_3 
REMARK    2  A    between atoms: C_6  and  C_7 
REMARK       I    between atoms: N_10  and  C_6 
REMARK    3  A    between atoms: C_12  and  N_10 
ROOT
ATOM      1  C   UNL d   1       2.003   2.642   0.054  0.00  0.00     0.229 C 
ATOM      2  N   UNL d   1       2.895   1.592  -0.020  0.00  0.00    -0.327 N 
ATOM      3  O   UNL d   1       0.780   2.522  -0.057  0.00  0.00    -0.273 OA
ATOM      4  H   UNL d   1       3.851   1.781   0.280  0.00  0.00     0.169 HD
ENDROOT
BRANCH   1   5
ATOM      5  C   UNL d   1       2.539   4.032   0.328  0.00  0.00     0.181 C 
BRANCH   5   6
ATOM      6  C   UNL d   1       4.001   4.250   0.315  0.00  0.00     0.112 A 
ATOM      7  N   UNL d   1       4.921   3.360   0.823  0.00  0.00    -0.333 N 
ATOM      8  C   UNL d   1       6.035   4.051   0.736  0.00  0.00     0.260 A 
ATOM      9  HN  UNL d   1       4.776   2.413   1.173  1.00  0.00     0.168 HD
ATOM     10  O   UNL d   1       5.880   5.285   0.199  0.00  0.00    -0.232 OA
ATOM     11  N   UNL d   1       4.522   5.420  -0.082  0.00  0.00    -0.247 N 
ATOM     12  HN  UNL d   1       4.039   6.220  -0.493  1.00  0.00     0.196 HD
ENDBRANCH   5   6
ENDBRANCH   1   5
BRANCH   2  13
ATOM     13  C   UNL d   1       2.593   0.254  -0.375  0.00  0.00     0.034 A 
ATOM     14  C   UNL d   1       1.354  -0.149  -0.891  0.00  0.00     0.032 A 
ATOM     15  C   UNL d   1       1.117  -1.481  -1.238  0.00  0.00     0.044 A 
ATOM     16  C   UNL d   1       2.124  -2.421  -1.073  0.00  0.00     0.116 A 
ATOM     17  C   UNL d   1       3.364  -2.048  -0.570  0.00  0.00     0.044 A 
ATOM     18  F   UNL d   1       1.902  -3.699  -1.405  0.00  0.00    -0.206 F 
ATOM     19  C   UNL d   1       3.600  -0.710  -0.225  0.00  0.00     0.032 A 
ENDBRANCH   2  13
TORSDOF 3
