REMARK  4 active torsions:
REMARK  status: ('A' for Active; 'I' for Inactive)
REMARK    1  A    between atoms: S_2  and  C_1 
REMARK    2  A    between atoms: C_8  and  S_2 
REMARK    3  A    between atoms: C_7  and  C_4 
REMARK    4  A    between atoms: O_15  and  C_7 
ROOT
ATOM      1  C   UNL d   1       0.714   1.297   0.042  0.00  0.00     0.078 A 
ATOM      2  C   UNL d   1       1.193   0.054  -0.537  0.00  0.00    -0.016 A 
ATOM      3  C   UNL d   1       0.265  -0.975  -0.340  0.00  0.00     0.085 A 
ATOM      4  S   UNL d   1      -1.137  -0.425   0.481  0.00  0.00    -0.093 SA
ATOM      5  C   UNL d   1      -0.533   1.153   0.614  0.00  0.00     0.075 A 
ATOM      6  C   UNL d   1       2.501  -0.166  -1.244  0.00  0.00     0.051 C 
ENDROOT
BRANCH   1   7
ATOM      7  S   UNL d   1       1.515   2.852   0.072  0.00  0.00     0.207 S 
ATOM      8  O   UNL d   1       0.900   3.559   1.177  0.00  0.00    -0.217 OA
ATOM      9  O   UNL d   1       2.936   2.578   0.041  0.00  0.00    -0.217 OA
BRANCH   7  10
ATOM     10  C   UNL d   1       1.035   3.652  -1.438  0.00  0.00     0.064 A 
ATOM     11  C   UNL d   1      -0.083   4.496  -1.444  0.00  0.00     0.025 A 
ATOM     12  C   UNL d   1      -0.456   5.140  -2.627  0.00  0.00     0.025 A 
ATOM     13  C   UNL d   1       0.294   4.947  -3.788  0.00  0.00     0.034 A 
ATOM     14  C   UNL d   1       1.425   4.131  -3.773  0.00  0.00     0.025 A 
ATOM     15 CL   UNL d   1      -0.180   5.725  -5.247  0.00  0.00    -0.084 Cl
ATOM     16  C   UNL d   1       1.805   3.485  -2.593  0.00  0.00     0.025 A 
ENDBRANCH   7  10
ENDBRANCH   1   7
BRANCH   3  17
ATOM     17  C   UNL d   1       0.375  -2.378  -0.743  0.00  0.00     0.183 C 
ATOM     18  O   UNL d   1       1.322  -2.875  -1.338  0.00  0.00    -0.646 OA
BRANCH  17  19
ATOM     19  O   UNL d   1      -0.706  -3.126  -0.396  0.00  0.00    -0.772 OA
ATOM     20  H   UNL d   1      -1.376  -2.596   0.079  0.00  0.00     0.167 HD
ENDBRANCH  17  19
ENDBRANCH   3  17
TORSDOF 4
