REMARK  5 active torsions:
REMARK  status: ('A' for Active; 'I' for Inactive)
REMARK    1  A    between atoms: C_9  and  C_1 
REMARK    2  A    between atoms: N_2  and  C_6 
REMARK    3  A    between atoms: S_16  and  C_6 
REMARK    4  A    between atoms: N_10  and  N_7 
REMARK    5  A    between atoms: N_15  and  C_12 
ROOT
ATOM      1  N   UNL d   1      -2.409  -2.488  -0.034  0.00  0.00    -0.301 N 
ATOM      2  HN  UNL d   1      -1.922  -3.383  -0.016  1.00  0.00     0.186 HD
ATOM      3  C   UNL d   1      -1.758  -1.362  -0.011  0.00  0.00     0.056 C 
ATOM      4  C   UNL d   1      -2.392   0.007  -0.029  0.00  0.00     0.072 C 
ENDROOT
BRANCH   1   5
ATOM      5  N   UNL d   1      -3.804  -2.419  -0.083  0.00  0.00    -0.280 N 
ATOM      6  C   UNL d   1      -4.410  -3.575  -0.104  0.00  0.00     0.159 C 
ATOM      7  HN  UNL d   1      -4.310  -1.534  -0.101  1.00  0.00     0.189 HD
BRANCH   6   8
ATOM      8  N   UNL d   1      -5.782  -3.667  -0.160  0.00  0.00    -0.332 N 
ATOM      9  C   UNL d   1      -6.483  -2.587  -0.192  0.00  0.00     0.179 C 
ATOM     10  HN  UNL d   1      -6.238  -4.579  -0.177  1.00  0.00     0.168 HD
BRANCH   9  11
ATOM     11  N   UNL d   1      -7.861  -2.519  -0.251  0.00  0.00    -0.386 N 
ATOM     12  C   UNL d   1      -8.693  -3.713  -0.290  0.00  0.00     0.149 C 
ATOM     13  C   UNL d   1      -8.577  -1.255  -0.279  0.00  0.00     0.149 C 
ENDBRANCH   9  11
ENDBRANCH   6   8
BRANCH   6  14
ATOM     14  S   UNL d   1      -3.512  -5.112  -0.065  0.00  0.00    -0.097 SA
ATOM     15  C   UNL d   1      -4.834  -6.327  -0.106  0.00  0.00     0.099 C 
ENDBRANCH   6  14
ENDBRANCH   1   5
BRANCH   3  16
ATOM     16  C   UNL d   1      -0.312  -1.446   0.029  0.00  0.00     0.100 A 
ATOM     17  O   UNL d   1       0.445  -0.303   0.053  0.00  0.00    -0.308 OA
ATOM     18  C   UNL d   1       1.755  -0.686   0.073  0.00  0.00     0.086 A 
ATOM     19  C   UNL d   1       2.856   0.168   0.093  0.00  0.00     0.038 A 
ATOM     20  C   UNL d   1       1.854  -2.072   0.065  0.00  0.00     0.001 A 
ATOM     21  C   UNL d   1       4.120  -0.437   0.101  0.00  0.00     0.003 A 
ATOM     22  C   UNL d   1       4.257  -1.827   0.092  0.00  0.00     0.001 A 
ATOM     23  C   UNL d   1       3.131  -2.661   0.076  0.00  0.00     0.014 A 
ATOM     24  C   UNL d   1       0.522  -2.551   0.043  0.00  0.00     0.053 A 
ENDBRANCH   3  16
TORSDOF 5
