REMARK  6 active torsions:
REMARK  status: ('A' for Active; 'I' for Inactive)
REMARK    1  A    between atoms: O_6  and  C_1 
REMARK    2  A    between atoms: C_10  and  C_1 
REMARK    3  A    between atoms: N_2  and  O_6 
REMARK    4  A    between atoms: C_4  and  C_8 
REMARK    5  A    between atoms: C_8  and  C_5 
REMARK    6  A    between atoms: N_12  and  C_5 
ROOT
ATOM      1  N   UNL d   1       0.980  -3.380   1.244  0.00  0.00    -0.245 N 
ATOM      2  HN  UNL d   1       0.526  -3.304   2.154  1.00  0.00     0.196 HD
ATOM      3  C   UNL d   1       0.352  -3.480   0.110  0.00  0.00     0.100 C 
ENDROOT
BRANCH   3   4
ATOM      4  C   UNL d   1      -1.171  -3.579   0.146  0.00  0.00     0.117 C 
BRANCH   4   5
ATOM      5  C   UNL d   1      -1.862  -2.271  -0.184  0.00  0.00    -0.040 A 
ATOM      6  C   UNL d   1      -1.979  -1.210   0.760  0.00  0.00    -0.019 A 
ATOM      7  C   UNL d   1      -2.605  -0.003   0.355  0.00  0.00    -0.025 A 
ATOM      8  C   UNL d   1      -1.512  -1.283   2.093  0.00  0.00     0.013 A 
ATOM      9  C   UNL d   1      -2.729   1.065   1.260  0.00  0.00     0.012 A 
ATOM     10  C   UNL d   1      -3.105   0.124  -0.949  0.00  0.00     0.012 A 
ATOM     11  C   UNL d   1      -2.255   0.959   2.566  0.00  0.00     0.001 A 
ATOM     12  C   UNL d   1      -1.647  -0.216   2.983  0.00  0.00     0.001 A 
ATOM     13  C   UNL d   1      -3.009  -0.926  -1.856  0.00  0.00     0.001 A 
ATOM     14  C   UNL d   1      -2.393  -2.113  -1.478  0.00  0.00     0.008 A 
ENDBRANCH   4   5
ENDBRANCH   3   4
BRANCH   3  15
ATOM     15  N   UNL d   1       0.976  -3.529  -1.114  0.00  0.00    -0.387 N 
ATOM     16  H   UNL d   1       1.978  -3.684  -1.080  0.00  0.00     0.157 HD
ATOM     17  H   UNL d   1       0.494  -3.950  -1.896  0.00  0.00     0.157 HD
ENDBRANCH   3  15
BRANCH   1  18
ATOM     18  O   UNL d   1       2.368  -3.394   1.044  0.00  0.00    -0.193 OA
BRANCH  18  19
ATOM     19  C   UNL d   1       3.137  -3.188   2.159  0.00  0.00     0.315 C 
ATOM     20  O   UNL d   1       4.357  -3.073   2.036  0.00  0.00    -0.257 OA
BRANCH  19  21
ATOM     21  C   UNL d   1       2.558  -3.077   3.534  0.00  0.00     0.041 A 
ATOM     22  C   UNL d   1       3.257  -2.282   4.461  0.00  0.00     0.017 A 
ATOM     23  C   UNL d   1       2.820  -2.171   5.784  0.00  0.00     0.001 A 
ATOM     24  C   UNL d   1       1.676  -2.849   6.196  0.00  0.00     0.000 A 
ATOM     25  C   UNL d   1       0.986  -3.657   5.295  0.00  0.00     0.001 A 
ATOM     26  C   UNL d   1       1.438  -3.790   3.978  0.00  0.00     0.017 A 
ENDBRANCH  19  21
ENDBRANCH  18  19
ENDBRANCH   1  18
TORSDOF 6
