REMARK  8 active torsions:
REMARK  status: ('A' for Active; 'I' for Inactive)
REMARK    1  A    between atoms: N_13  and  C_3 
REMARK    2  A    between atoms: C_7  and  C_6 
REMARK    3  A    between atoms: C_8  and  C_7 
REMARK       I    between atoms: N_9  and  C_8 
REMARK    4  A    between atoms: C_10  and  N_9 
REMARK    5  A    between atoms: C_18  and  N_13 
REMARK    6  A    between atoms: C_16  and  C_18 
REMARK    7  A    between atoms: C_20  and  C_16 
REMARK    8  A    between atoms: O_17  and  C_20 
ROOT
ATOM      1  N   UNL d   1      -0.907  -1.525  -0.102  0.00  0.00    -0.307 N 
ATOM      2  HN  UNL d   1      -1.511  -2.240   0.303  1.00  0.00     0.171 HD
ATOM      3  C   UNL d   1       0.318  -1.725  -0.458  0.00  0.00     0.143 C 
ATOM      4  C   UNL d   1      -1.294  -0.226  -0.336  0.00  0.00     0.238 C 
ATOM      5  S   UNL d   1       1.164  -0.346  -1.143  0.00  0.00    -0.079 SA
ATOM      6  C   UNL d   1      -0.124   0.729  -0.446  0.00  0.00     0.156 C 
ATOM      7  O   UNL d   1      -2.460   0.143  -0.446  0.00  0.00    -0.272 OA
ENDROOT
BRANCH   6   8
ATOM      8  C   UNL d   1      -0.429   2.053  -1.122  0.00  0.00     0.128 C 
BRANCH   8   9
ATOM      9  C   UNL d   1      -0.749   2.030  -2.600  0.00  0.00     0.223 C 
ATOM     10  N   UNL d   1      -2.005   1.551  -2.934  0.00  0.00    -0.326 N 
ATOM     11  H   UNL d   1      -2.453   0.900  -2.288  0.00  0.00     0.169 HD
ATOM     12  O   UNL d   1       0.081   2.445  -3.406  0.00  0.00    -0.273 OA
BRANCH  10  13
ATOM     13  C   UNL d   1      -2.386   1.430  -4.295  0.00  0.00     0.056 A 
ATOM     14  C   UNL d   1      -2.919   0.227  -4.776  0.00  0.00     0.060 A 
ATOM     15 CL   UNL d   1      -3.238  -1.099  -3.715  0.00  0.00    -0.082 Cl
ATOM     16  C   UNL d   1      -3.113   0.045  -6.148  0.00  0.00     0.026 A 
ATOM     17  C   UNL d   1      -2.845   1.087  -7.038  0.00  0.00     0.002 A 
ATOM     18  C   UNL d   1      -2.414   2.320  -6.556  0.00  0.00     0.002 A 
ATOM     19  C   UNL d   1      -2.181   2.489  -5.190  0.00  0.00     0.031 A 
ENDBRANCH  10  13
ENDBRANCH   8   9
ENDBRANCH   6   8
BRANCH   3  20
ATOM     20  N   UNL d   1       1.046  -2.863  -0.342  0.00  0.00    -0.371 N 
ATOM     21  H   UNL d   1       1.944  -2.881  -0.812  0.00  0.00     0.161 HD
BRANCH  20  22
ATOM     22  C   UNL d   1       0.536  -4.119   0.167  0.00  0.00     0.123 C 
BRANCH  22  23
ATOM     23  C   UNL d   1      -0.294  -4.833  -0.894  0.00  0.00     0.046 C 
BRANCH  23  24
ATOM     24  C   UNL d   1      -0.728  -6.226  -0.453  0.00  0.00     0.168 C 
BRANCH  24  25
ATOM     25  O   UNL d   1      -1.481  -6.131   0.753  0.00  0.00    -0.396 OA
ATOM     26  C   UNL d   1      -1.976  -7.397   1.169  0.00  0.00     0.201 C 
ENDBRANCH  24  25
ENDBRANCH  23  24
ENDBRANCH  22  23
ENDBRANCH  20  22
ENDBRANCH   3  20
TORSDOF 8
