REMARK  8 active torsions:
REMARK  status: ('A' for Active; 'I' for Inactive)
REMARK    1  A    between atoms: N_2  and  C_1 
REMARK    2  A    between atoms: C_3  and  C_1 
REMARK    3  A    between atoms: C_4  and  C_1 
REMARK    4  A    between atoms: N_6  and  C_1 
REMARK       I    between atoms: C_5  and  N_2 
REMARK    5  A    between atoms: C_7  and  C_5 
REMARK    6  A    between atoms: C_8  and  N_6 
REMARK    7  A    between atoms: O_23  and  C_12 
REMARK    8  A    between atoms: C_26  and  O_23 
ROOT
ATOM      1  C   UNL d   1       1.276   0.400   0.195  0.00  0.00     0.307 C 
ENDROOT
BRANCH   1   2
ATOM      2  N   UNL d   1       0.700  -0.267  -1.002  0.00  0.00    -0.315 N 
ATOM      3  C   UNL d   1      -0.658  -0.205  -1.242  0.00  0.00     0.256 C 
ATOM      4  O   UNL d   1      -1.349   0.408  -0.425  0.00  0.00    -0.267 OA
ATOM      5  H   UNL d   1       1.369  -0.516  -1.712  0.00  0.00     0.165 HD
BRANCH   3   6
ATOM      6  C   UNL d   1      -1.241  -0.840  -2.479  0.00  0.00     0.065 A 
ATOM      7  C   UNL d   1      -2.645  -0.829  -2.686  0.00  0.00     0.084 A 
ATOM      8  C   UNL d   1      -3.183  -1.454  -3.819  0.00  0.00     0.038 A 
ATOM      9  C   UNL d   1      -2.345  -2.064  -4.756  0.00  0.00     0.003 A 
ATOM     10  C   UNL d   1      -0.966  -2.066  -4.565  0.00  0.00     0.001 A 
ATOM     11  C   UNL d   1      -0.415  -1.466  -3.428  0.00  0.00     0.020 A 
BRANCH   7  12
ATOM     12  O   UNL d   1      -3.407  -0.172  -1.762  0.00  0.00    -0.350 OA
BRANCH  12  13
ATOM     13  C   UNL d   1      -4.824  -0.198  -1.766  0.00  0.00     0.171 C 
ATOM     14  C   UNL d   1      -5.347  -1.403  -1.004  0.00  0.00     0.034 C 
ENDBRANCH  12  13
ENDBRANCH   7  12
ENDBRANCH   3   6
ENDBRANCH   1   2
BRANCH   1  15
ATOM     15  C   UNL d   1       0.755  -0.152   1.587  0.00  0.00     0.441 C 
ATOM     16  F   UNL d   1      -0.571  -0.259   1.757  0.00  0.00    -0.166 F 
ATOM     17  F   UNL d   1       1.256  -1.419   1.767  0.00  0.00    -0.166 F 
ATOM     18  F   UNL d   1       1.247   0.563   2.629  0.00  0.00    -0.166 F 
ENDBRANCH   1  15
BRANCH   1  19
ATOM     19  C   UNL d   1       0.994   1.943   0.262  0.00  0.00     0.441 C 
ATOM     20  F   UNL d   1       0.332   2.390  -0.840  0.00  0.00    -0.166 F 
ATOM     21  F   UNL d   1       0.274   2.338   1.335  0.00  0.00    -0.166 F 
ATOM     22  F   UNL d   1       2.139   2.674   0.289  0.00  0.00    -0.166 F 
ENDBRANCH   1  19
BRANCH   1  23
ATOM     23  N   UNL d   1       2.691  -0.076   0.065  0.00  0.00    -0.335 N 
ATOM     24  H   UNL d   1       2.930  -0.694   0.849  0.00  0.00     0.164 HD
BRANCH  23  25
ATOM     25  C   UNL d   1       3.875   0.505  -0.253  0.00  0.00     0.103 A 
ATOM     26  N   UNL d   1       4.882  -0.013   0.477  0.00  0.00    -0.352 N 
ATOM     27  C   UNL d   1       6.155   0.284   0.135  0.00  0.00     0.096 A 
ATOM     28  HN  UNL d   1       4.687  -0.620   1.273  1.00  0.00     0.166 HD
ATOM     29  C   UNL d   1       6.493   1.074  -0.949  0.00  0.00    -0.046 A 
ATOM     30  C   UNL d   1       5.440   1.665  -1.645  0.00  0.00     0.012 A 
ATOM     31  C   UNL d   1       7.925   1.280  -1.328  0.00  0.00     0.049 C 
ATOM     32  C   UNL d   1       4.112   1.375  -1.293  0.00  0.00     0.049 A 
ENDBRANCH  23  25
ENDBRANCH   1  23
TORSDOF 8
