REMARK  8 active torsions:
REMARK  status: ('A' for Active; 'I' for Inactive)
REMARK    1  A    between atoms: C_11  and  C_1 
REMARK    2  A    between atoms: C_3  and  C_2 
REMARK    3  A    between atoms: C_6  and  C_9 
REMARK    4  A    between atoms: C_7  and  C_10 
REMARK    5  A    between atoms: N_17  and  C_8 
REMARK    6  A    between atoms: O_30  and  C_11 
REMARK    7  A    between atoms: C_16  and  N_17 
REMARK    8  A    between atoms: C_31  and  O_30 
ROOT
ATOM      1  C   UNL d   1       0.008  -1.548   0.052  0.00  0.00     0.087 A 
ATOM      2  C   UNL d   1       1.192  -0.834   0.077  0.00  0.00     0.150 A 
ATOM      3  N   UNL d   1       1.187   0.540   0.092  0.00  0.00    -0.185 N 
ATOM      4  HN  UNL d   1       2.064   1.061   0.113  1.00  0.00     0.184 HD
ATOM      5  C   UNL d   1       0.015   1.188   0.080  0.00  0.00     0.683 A 
ATOM      6  N   UNL d   1      -1.163   0.556   0.045  0.00  0.00    -0.201 N 
ATOM      7  HN  UNL d   1      -2.041   1.074   0.014  1.00  0.00     0.183 HD
ATOM      8  C   UNL d   1      -1.145  -0.790   0.052  0.00  0.00     0.126 A 
ENDROOT
BRANCH   5   9
ATOM      9  N   UNL d   1       0.064   2.582   0.134  0.00  0.00    -0.192 N 
ATOM     10  H   UNL d   1       1.039   2.855   0.084  0.00  0.00     0.184 HD
BRANCH   9  11
ATOM     11  C   UNL d   1      -0.790   3.479  -0.532  0.00  0.00     0.050 A 
ATOM     12  C   UNL d   1      -0.944   4.775  -0.025  0.00  0.00     0.046 A 
ATOM     13  C   UNL d   1      -1.748   5.725  -0.679  0.00  0.00     0.050 A 
ATOM     14  C   UNL d   1      -2.387   5.366  -1.876  0.00  0.00     0.032 A 
ATOM     15  C   UNL d   1      -2.223   4.085  -2.420  0.00  0.00     0.050 A 
ATOM     16  C   UNL d   1      -1.428   3.153  -1.735  0.00  0.00     0.046 A 
BRANCH  13  17
ATOM     17  C   UNL d   1      -1.905   7.107  -0.091  0.00  0.00     0.417 C 
ATOM     18  F   UNL d   1      -2.646   7.945  -0.868  0.00  0.00    -0.166 F 
ATOM     19  F   UNL d   1      -2.512   7.092   1.127  0.00  0.00    -0.166 F 
ATOM     20  F   UNL d   1      -0.709   7.730   0.092  0.00  0.00    -0.166 F 
ENDBRANCH  13  17
BRANCH  15  21
ATOM     21  C   UNL d   1      -2.857   3.694  -3.733  0.00  0.00     0.417 C 
ATOM     22  F   UNL d   1      -3.593   4.691  -4.298  0.00  0.00    -0.166 F 
ATOM     23  F   UNL d   1      -1.929   3.342  -4.666  0.00  0.00    -0.166 F 
ATOM     24  F   UNL d   1      -3.694   2.628  -3.617  0.00  0.00    -0.166 F 
ENDBRANCH  15  21
ENDBRANCH   9  11
ENDBRANCH   5   9
BRANCH   2  25
ATOM     25  C   UNL d   1       2.559  -1.486   0.091  0.00  0.00     0.434 C 
ATOM     26  F   UNL d   1       2.589  -2.792   0.471  0.00  0.00    -0.165 F 
ATOM     27  F   UNL d   1       3.170  -1.432  -1.128  0.00  0.00    -0.165 F 
ATOM     28  F   UNL d   1       3.416  -0.862   0.953  0.00  0.00    -0.165 F 
ENDBRANCH   2  25
BRANCH   1  29
ATOM     29  C   UNL d   1      -0.170  -2.999   0.084  0.00  0.00     0.296 C 
ATOM     30  O   UNL d   1      -1.031  -3.532   0.758  0.00  0.00    -0.259 OA
BRANCH  29  31
ATOM     31  O   UNL d   1       0.657  -3.604  -0.800  0.00  0.00    -0.318 OA
BRANCH  31  32
ATOM     32  C   UNL d   1       0.548  -5.039  -0.842  0.00  0.00     0.174 C 
ATOM     33  C   UNL d   1      -0.423  -5.441  -1.935  0.00  0.00     0.034 C 
ENDBRANCH  31  32
ENDBRANCH  29  31
ENDBRANCH   1  29
TORSDOF 8
