REMARK  6 active torsions:
REMARK  status: ('A' for Active; 'I' for Inactive)
REMARK    1  A    between atoms: C_5  and  C_1 
REMARK    2  A    between atoms: C_9  and  C_2 
REMARK    3  A    between atoms: C_10  and  C_2 
REMARK    4  A    between atoms: C_3  and  N_7 
REMARK    5  A    between atoms: N_7  and  C_4 
REMARK    6  A    between atoms: O_15  and  C_5 
ROOT
ATOM      1  N   UNL d   1       2.497   1.564  -0.190  0.00  0.00    -0.364 N 
ATOM      2  H   UNL d   1       3.317   0.976  -0.318  0.00  0.00     0.165 HD
ENDROOT
BRANCH   1   3
ATOM      3  C   UNL d   1       2.783   2.899   0.024  0.00  0.00     0.107 C 
ATOM      4  C   UNL d   1       3.946   3.580   0.044  0.00  0.00     0.070 C 
BRANCH   4   5
ATOM      5  C   UNL d   1       5.282   2.948  -0.120  0.00  0.00     0.160 C 
ATOM      6  O   UNL d   1       6.151   3.517  -0.782  0.00  0.00    -0.293 OA
ATOM      7  C   UNL d   1       5.593   1.649   0.579  0.00  0.00     0.097 C 
ENDBRANCH   4   5
BRANCH   4   8
ATOM      8  C   UNL d   1       3.833   5.070   0.207  0.00  0.00     0.160 C 
ATOM      9  O   UNL d   1       2.769   5.656  -0.009  0.00  0.00    -0.293 OA
ATOM     10  C   UNL d   1       5.046   5.847   0.654  0.00  0.00     0.097 C 
ENDBRANCH   4   8
ENDBRANCH   1   3
BRANCH   1  11
ATOM     11  C   UNL d   1       1.298   0.922  -0.070  0.00  0.00     0.055 A 
ATOM     12  C   UNL d   1       0.013   1.396  -0.304  0.00  0.00     0.106 A 
ATOM     13  S   UNL d   1      -1.169   0.213   0.136  0.00  0.00    -0.094 SA
ATOM     14  C   UNL d   1       0.017  -0.947   0.514  0.00  0.00     0.053 A 
ATOM     15  C   UNL d   1       1.287  -0.448   0.350  0.00  0.00     0.038 A 
BRANCH  12  16
ATOM     16  C   UNL d   1      -0.504   2.636  -0.858  0.00  0.00     0.302 C 
ATOM     17  O   UNL d   1      -1.603   3.127  -0.614  0.00  0.00    -0.259 OA
BRANCH  16  18
ATOM     18  O   UNL d   1       0.378   3.162  -1.756  0.00  0.00    -0.322 OA
ATOM     19  C   UNL d   1      -0.045   4.388  -2.355  0.00  0.00     0.213 C 
ENDBRANCH  16  18
ENDBRANCH  12  16
ENDBRANCH   1  11
TORSDOF 6
