REMARK  2 active torsions:
REMARK  status: ('A' for Active; 'I' for Inactive)
REMARK    1  A    between atoms: C_2  and  C_1 
REMARK       I    between atoms: N_5  and  C_2 
REMARK    2  A    between atoms: C_10  and  N_5 
ROOT
ATOM      1  C   UNL d   1       0.228  -4.706  -0.016  0.00  0.00     0.266 C 
ATOM      2  N   UNL d   1       0.726  -3.414   0.000  0.00  0.00    -0.321 N 
ATOM      3  O   UNL d   1       0.943  -5.692   0.164  0.00  0.00    -0.267 OA
ATOM      4  H   UNL d   1       0.067  -2.695   0.259  0.00  0.00     0.169 HD
ENDROOT
BRANCH   1   5
ATOM      5  C   UNL d   1      -1.204  -4.829  -0.218  0.00  0.00     0.114 A 
ATOM      6  C   UNL d   1      -2.009  -5.962  -0.264  0.00  0.00     0.046 A 
ATOM      7  N   UNL d   1      -3.357  -5.701  -0.511  0.00  0.00    -0.298 N 
ATOM      8  C   UNL d   1      -1.625  -7.385  -0.093  0.00  0.00     0.071 C 
ATOM      9  N   UNL d   1      -3.595  -4.413  -0.666  0.00  0.00    -0.269 N 
ATOM     10  HN  UNL d   1      -4.076  -6.422  -0.566  1.00  0.00     0.187 HD
ATOM     11  S   UNL d   1      -2.224  -3.481  -0.521  0.00  0.00     0.009 SA
ATOM     12  HN  UNL d   1      -4.521  -4.029  -0.854  1.00  0.00     0.195 HD
ENDBRANCH   1   5
BRANCH   2  13
ATOM     13  C   UNL d   1       2.096  -3.074   0.068  0.00  0.00     0.046 A 
ATOM     14  C   UNL d   1       3.053  -3.618  -0.819  0.00  0.00    -0.035 A 
ATOM     15  C   UNL d   1       4.382  -3.152  -0.759  0.00  0.00     0.009 A 
ATOM     16  C   UNL d   1       2.772  -4.627  -1.901  0.00  0.00     0.050 C 
ATOM     17  C   UNL d   1       4.758  -2.154   0.134  0.00  0.00     0.001 A 
ATOM     18  C   UNL d   1       3.816  -1.623   1.004  0.00  0.00     0.009 A 
ATOM     19  C   UNL d   1       2.486  -2.078   0.995  0.00  0.00    -0.035 A 
ATOM     20  C   UNL d   1       1.574  -1.514   2.054  0.00  0.00     0.050 C 
ENDBRANCH   2  13
TORSDOF 2
