REMARK  8 active torsions:
REMARK  status: ('A' for Active; 'I' for Inactive)
REMARK    1  A    between atoms: C_3  and  C_1 
REMARK    2  A    between atoms: C_2  and  C_4 
REMARK       I    between atoms: C_5  and  N_8 
REMARK    3  A    between atoms: C_14  and  C_5 
REMARK    4  A    between atoms: N_8  and  C_7 
REMARK    5  A    between atoms: C_11  and  C_22 
REMARK    6  A    between atoms: O_23  and  C_11 
REMARK    7  A    between atoms: C_12  and  C_14 
REMARK    8  A    between atoms: C_22  and  C_12 
ROOT
ATOM      1  C   UNL d   1      -1.259  -0.396   3.101  0.00  0.00     0.050 A 
ATOM      2  C   UNL d   1      -0.139   0.476   1.120  0.00  0.00     0.050 A 
ATOM      3  C   UNL d   1      -0.909  -0.515   1.750  0.00  0.00     0.032 A 
ATOM      4  C   UNL d   1      -0.044   1.722   3.224  0.00  0.00     0.036 A 
ATOM      5  C   UNL d   1       0.289   1.591   1.869  0.00  0.00     0.045 A 
ATOM      6  C   UNL d   1      -0.813   0.722   3.823  0.00  0.00     0.045 A 
ENDROOT
BRANCH   4   7
ATOM      7  N   UNL d   1       0.392   2.880   3.911  0.00  0.00    -0.327 N 
ATOM      8  C   UNL d   1       0.275   3.115   5.269  0.00  0.00     0.222 C 
ATOM      9  O   UNL d   1      -0.147   2.324   6.110  0.00  0.00    -0.273 OA
ATOM     10  H   UNL d   1       0.838   3.601   3.345  0.00  0.00     0.169 HD
BRANCH   8  11
ATOM     11  C   UNL d   1       0.771   4.480   5.718  0.00  0.00     0.112 C 
BRANCH  11  12
ATOM     12  C   UNL d   1       2.275   4.538   6.096  0.00  0.00    -0.030 C 
ATOM     13  C   UNL d   1       2.557   5.925   6.712  0.00  0.00     0.016 C 
ATOM     14  C   UNL d   1       2.604   3.482   7.173  0.00  0.00     0.016 C 
BRANCH  12  15
ATOM     15  C   UNL d   1       3.213   4.292   4.894  0.00  0.00     0.119 C 
BRANCH  15  16
ATOM     16  C   UNL d   1       2.958   5.212   3.729  0.00  0.00     0.140 C 
ATOM     17  O   UNL d   1       2.090   4.992   2.894  0.00  0.00    -0.650 OA
BRANCH  16  18
ATOM     18  O   UNL d   1       3.731   6.316   3.717  0.00  0.00    -0.776 OA
ATOM     19  H   UNL d   1       4.366   6.377   4.457  0.00  0.00     0.167 HD
ENDBRANCH  16  18
ENDBRANCH  15  16
ENDBRANCH  12  15
ENDBRANCH  11  12
ENDBRANCH   8  11
ENDBRANCH   4   7
BRANCH   1  20
ATOM     20  C   UNL d   1      -2.116  -1.425   3.797  0.00  0.00     0.417 C 
ATOM     21  F   UNL d   1      -2.542  -2.421   2.970  0.00  0.00    -0.166 F 
ATOM     22  F   UNL d   1      -3.244  -0.885   4.336  0.00  0.00    -0.166 F 
ATOM     23  F   UNL d   1      -1.467  -2.044   4.820  0.00  0.00    -0.166 F 
ENDBRANCH   1  20
BRANCH   2  24
ATOM     24  C   UNL d   1       0.224   0.358  -0.342  0.00  0.00     0.417 C 
ATOM     25  F   UNL d   1      -0.347  -0.717  -0.956  0.00  0.00    -0.166 F 
ATOM     26  F   UNL d   1      -0.161   1.445  -1.064  0.00  0.00    -0.166 F 
ATOM     27  F   UNL d   1       1.565   0.230  -0.538  0.00  0.00    -0.166 F 
ENDBRANCH   2  24
TORSDOF 8
