REMARK  4 active torsions:
REMARK  status: ('A' for Active; 'I' for Inactive)
REMARK    1  A    between atoms: C_6  and  C_1 
REMARK    2  A    between atoms: C_2  and  C_6 
REMARK       I    between atoms: N_7  and  C_2 
REMARK    3  A    between atoms: C_4  and  C_12 
REMARK    4  A    between atoms: C_12  and  N_7 
ROOT
ATOM      1  C   UNL d   1       1.503  -2.879   0.119  0.00  0.00     0.142 C 
ENDROOT
BRANCH   1   2
ATOM      2  C   UNL d   1       2.959  -3.182   0.398  0.00  0.00     0.222 C 
ATOM      3  N   UNL d   1       3.780  -3.374  -0.695  0.00  0.00    -0.356 N 
ATOM      4  H   UNL d   1       3.489  -3.024  -1.599  0.00  0.00     0.162 HD
ATOM      5  O   UNL d   1       3.371  -3.333   1.552  0.00  0.00    -0.273 OA
BRANCH   3   6
ATOM      6  C   UNL d   1       5.190  -3.587  -0.456  0.00  0.00     0.168 C 
BRANCH   6   7
ATOM      7  C   UNL d   1       5.938  -4.098  -1.649  0.00  0.00     0.000 A 
ATOM      8  S   UNL d   1       5.681  -3.486  -3.229  0.00  0.00    -0.105 SA
ATOM      9  C   UNL d   1       6.952  -4.432  -3.878  0.00  0.00     0.050 A 
ATOM     10  C   UNL d   1       7.563  -5.206  -2.918  0.00  0.00     0.008 A 
ATOM     11  C   UNL d   1       6.970  -5.022  -1.637  0.00  0.00     0.017 A 
ENDBRANCH   6   7
ENDBRANCH   3   6
ENDBRANCH   1   2
BRANCH   1  12
ATOM     12  C   UNL d   1       1.057  -1.459  -0.204  0.00  0.00    -0.038 A 
ATOM     13  C   UNL d   1       1.548  -0.252   0.388  0.00  0.00    -0.019 A 
ATOM     14  C   UNL d   1       0.949   0.987   0.011  0.00  0.00    -0.025 A 
ATOM     15  C   UNL d   1       2.578  -0.168   1.356  0.00  0.00     0.013 A 
ATOM     16  C   UNL d   1       1.409   2.205   0.539  0.00  0.00     0.012 A 
ATOM     17  C   UNL d   1      -0.134   1.011  -0.876  0.00  0.00     0.012 A 
ATOM     18  C   UNL d   1       2.447   2.242   1.462  0.00  0.00     0.001 A 
ATOM     19  C   UNL d   1       3.024   1.053   1.879  0.00  0.00     0.001 A 
ATOM     20  C   UNL d   1      -0.645  -0.165  -1.405  0.00  0.00     0.001 A 
ATOM     21  C   UNL d   1      -0.054  -1.379  -1.076  0.00  0.00     0.008 A 
ENDBRANCH   1  12
TORSDOF 4
