REMARK  4 active torsions:
REMARK  status: ('A' for Active; 'I' for Inactive)
REMARK    1  A    between atoms: C_13  and  N_3 
REMARK    2  A    between atoms: O_14  and  C_6 
REMARK    3  A    between atoms: C_18  and  C_13 
REMARK    4  A    between atoms: O_17  and  C_18 
ROOT
ATOM      1  N   UNL d   1       2.390   0.717  -0.062  0.00  0.00    -0.274 N 
ATOM      2  HN  UNL d   1       3.266   1.238  -0.097  1.00  0.00     0.189 HD
ATOM      3  N   UNL d   1       2.376  -0.663  -0.022  0.00  0.00    -0.253 N 
ATOM      4  C   UNL d   1      -0.072  -0.696   0.013  0.00  0.00     0.050 A 
ATOM      5  C   UNL d   1       1.210  -1.430   0.026  0.00  0.00     0.273 A 
ATOM      6  C   UNL d   1       1.252   1.319  -0.055  0.00  0.00     0.166 A 
ATOM      7  C   UNL d   1      -0.062   0.693  -0.013  0.00  0.00     0.034 A 
ATOM      8  C   UNL d   1      -1.289  -1.386   0.050  0.00  0.00     0.043 A 
ATOM      9  C   UNL d   1      -1.259   1.414   0.009  0.00  0.00     0.042 A 
ATOM     10  C   UNL d   1      -2.492  -0.674   0.073  0.00  0.00     0.056 A 
ATOM     11  C   UNL d   1      -2.477   0.728   0.056  0.00  0.00     0.056 A 
ATOM     12  O   UNL d   1       1.192  -2.656   0.082  0.00  0.00    -0.266 OA
ATOM     13 CL   UNL d   1      -3.961  -1.582   0.127  0.00  0.00    -0.083 Cl
ATOM     14 CL   UNL d   1      -3.926   1.668   0.098  0.00  0.00    -0.083 Cl
ENDROOT
BRANCH   3  15
ATOM     15  C   UNL d   1       3.678  -1.319   0.094  0.00  0.00     0.178 C 
BRANCH  15  16
ATOM     16  C   UNL d   1       4.038  -2.183  -1.113  0.00  0.00     0.186 C 
BRANCH  16  17
ATOM     17  O   UNL d   1       5.345  -2.728  -0.942  0.00  0.00    -0.399 OA
ATOM     18  H   UNL d   1       5.476  -3.376  -1.655  0.00  0.00     0.209 HD
ENDBRANCH  16  17
ENDBRANCH  15  16
ENDBRANCH   3  15
BRANCH   6  19
ATOM     19  O   UNL d   1       1.228   2.656  -0.083  0.00  0.00    -0.344 OA
ATOM     20  H   UNL d   1       2.149   2.971  -0.098  0.00  0.00     0.219 HD
ENDBRANCH   6  19
TORSDOF 4
