REMARK  7 active torsions:
REMARK  status: ('A' for Active; 'I' for Inactive)
REMARK    1  A    between atoms: N_3  and  S_1 
REMARK    2  A    between atoms: C_8  and  S_1 
REMARK    3  A    between atoms: S_2  and  N_6 
REMARK    4  A    between atoms: C_7  and  S_2 
REMARK    5  A    between atoms: C_4  and  N_3 
REMARK    6  A    between atoms: C_5  and  C_14 
REMARK    7  A    between atoms: N_6  and  C_25 
ROOT
ATOM      1  C   UNL d   1       0.439  -0.023   1.704  0.00  0.00     0.075 A 
ATOM      2  C   UNL d   1       0.282  -1.226   2.402  0.00  0.00     0.027 A 
ATOM      3  C   UNL d   1       0.219   1.199   2.348  0.00  0.00     0.027 A 
ATOM      4  C   UNL d   1      -0.390   0.015   4.371  0.00  0.00     0.042 A 
ATOM      5  C   UNL d   1      -0.141  -1.204   3.738  0.00  0.00     0.031 A 
ATOM      6  C   UNL d   1      -0.205   1.213   3.680  0.00  0.00     0.031 A 
ENDROOT
BRANCH   4   7
ATOM      7  N   UNL d   1      -0.926   0.043   5.680  0.00  0.00    -0.281 N 
ATOM      8  H   UNL d   1      -1.900   0.300   5.821  0.00  0.00     0.179 HD
BRANCH   7   9
ATOM      9  S   UNL d   1       0.037   0.059   7.050  0.00  0.00     0.263 S 
ATOM     10  O   UNL d   1      -0.866   0.264   8.164  0.00  0.00    -0.200 OA
ATOM     11  O   UNL d   1       0.934  -1.074   7.011  0.00  0.00    -0.200 OA
BRANCH   9  12
ATOM     12  C   UNL d   1       1.010   1.541   6.881  0.00  0.00     0.079 A 
ATOM     13  C   UNL d   1       0.543   2.752   7.404  0.00  0.00     0.026 A 
ATOM     14  C   UNL d   1       1.319   3.908   7.268  0.00  0.00     0.018 A 
ATOM     15  C   UNL d   1       2.568   3.861   6.625  0.00  0.00     0.048 A 
ATOM     16  C   UNL d   1       3.036   2.628   6.139  0.00  0.00     0.018 A 
ATOM     17  C   UNL d   1       2.267   1.470   6.274  0.00  0.00     0.026 A 
BRANCH  15  18
ATOM     18  C   UNL d   1       3.406   5.108   6.454  0.00  0.00     0.417 C 
ATOM     19  F   UNL d   1       2.821   6.229   6.961  0.00  0.00    -0.166 F 
ATOM     20  F   UNL d   1       4.620   5.011   7.061  0.00  0.00    -0.166 F 
ATOM     21  F   UNL d   1       3.661   5.383   5.145  0.00  0.00    -0.166 F 
ENDBRANCH  15  18
ENDBRANCH   9  12
ENDBRANCH   7   9
ENDBRANCH   4   7
BRANCH   1  22
ATOM     22  S   UNL d   1       1.045  -0.039   0.027  0.00  0.00     0.246 S 
ATOM     23  O   UNL d   1       1.607   1.268  -0.235  0.00  0.00    -0.206 OA
ATOM     24  O   UNL d   1       1.825  -1.245  -0.153  0.00  0.00    -0.206 OA
BRANCH  22  25
ATOM     25  N   UNL d   1      -0.374  -0.126  -0.903  0.00  0.00    -0.178 NA
ATOM     26  H   UNL d   1      -0.277   0.517  -1.693  0.00  0.00     0.146 HD
BRANCH  25  27
ATOM     27  C   UNL d   1      -0.842  -1.436  -1.245  0.00  0.00     0.064 A 
ATOM     28  C   UNL d   1      -1.740  -2.081  -0.400  0.00  0.00     0.069 A 
ATOM     29  C   UNL d   1      -2.163  -3.369  -0.713  0.00  0.00     0.118 A 
ATOM     30  F   UNL d   1      -3.027  -3.989   0.102  0.00  0.00    -0.206 F 
ATOM     31  C   UNL d   1      -1.706  -4.027  -1.852  0.00  0.00     0.045 A 
ATOM     32  C   UNL d   1      -0.795  -3.389  -2.694  0.00  0.00     0.047 A 
ATOM     33  C   UNL d   1      -0.362  -2.101  -2.381  0.00  0.00     0.138 A 
ATOM     34  F   UNL d   1       0.516  -1.494  -3.192  0.00  0.00    -0.204 F 
ENDBRANCH  25  27
ENDBRANCH  22  25
ENDBRANCH   1  22
TORSDOF 7
