REMARK  9 active torsions:
REMARK  status: ('A' for Active; 'I' for Inactive)
REMARK    1  A    between atoms: C_4  and  C_1 
REMARK       I    between atoms: N_8  and  C_1 
REMARK    2  A    between atoms: C_2  and  C_5 
REMARK    3  A    between atoms: C_3  and  C_6 
REMARK    4  A    between atoms: C_9  and  C_7 
REMARK    5  A    between atoms: C_10  and  N_8 
REMARK       I    between atoms: N_22  and  C_9 
REMARK    6  A    between atoms: C_27  and  N_22 
REMARK    7  A    between atoms: C_23  and  C_27 
REMARK    8  A    between atoms: C_28  and  C_23 
REMARK    9  A    between atoms: O_26  and  C_28 
ROOT
ATOM      1  C   UNL d   1       0.783   0.092  -0.087  0.00  0.00     0.257 C 
ATOM      2  N   UNL d   1       2.132   0.135   0.230  0.00  0.00    -0.323 N 
ATOM      3  O   UNL d   1      -0.034   0.949   0.251  0.00  0.00    -0.267 OA
ATOM      4  H   UNL d   1       2.748  -0.573  -0.149  0.00  0.00     0.169 HD
ENDROOT
BRANCH   1   5
ATOM      5  C   UNL d   1       0.270  -0.961  -1.009  0.00  0.00     0.048 A 
ATOM      6  C   UNL d   1       0.708  -2.291  -1.121  0.00  0.00     0.047 A 
ATOM      7  C   UNL d   1       0.033  -3.158  -2.009  0.00  0.00     0.018 A 
ATOM      8  C   UNL d   1      -1.042  -2.716  -2.783  0.00  0.00     0.001 A 
ATOM      9  C   UNL d   1      -1.468  -1.402  -2.684  0.00  0.00     0.001 A 
ATOM     10  C   UNL d   1      -0.816  -0.535  -1.808  0.00  0.00     0.018 A 
BRANCH   6  11
ATOM     11  C   UNL d   1       1.791  -2.854  -0.284  0.00  0.00     0.252 C 
ATOM     12  O   UNL d   1       1.969  -2.458   0.860  0.00  0.00    -0.268 OA
ATOM     13  N   UNL d   1       2.604  -3.810  -0.874  0.00  0.00    -0.357 N 
ATOM     14  H   UNL d   1       2.446  -4.098  -1.830  0.00  0.00     0.162 HD
BRANCH  13  15
ATOM     15  C   UNL d   1       3.727  -4.394  -0.164  0.00  0.00     0.125 C 
BRANCH  15  16
ATOM     16  C   UNL d   1       3.296  -5.539   0.750  0.00  0.00     0.046 C 
BRANCH  16  17
ATOM     17  C   UNL d   1       4.497  -6.197   1.422  0.00  0.00     0.168 C 
BRANCH  17  18
ATOM     18  O   UNL d   1       5.185  -5.229   2.209  0.00  0.00    -0.396 OA
ATOM     19  C   UNL d   1       6.321  -5.780   2.860  0.00  0.00     0.201 C 
ENDBRANCH  17  18
ENDBRANCH  16  17
ENDBRANCH  15  16
ENDBRANCH  13  15
ENDBRANCH   6  11
ENDBRANCH   1   5
BRANCH   2  20
ATOM     20  C   UNL d   1       2.737   1.126   1.042  0.00  0.00     0.036 A 
ATOM     21  C   UNL d   1       1.990   1.978   1.857  0.00  0.00     0.045 A 
ATOM     22  C   UNL d   1       2.572   3.058   2.528  0.00  0.00     0.050 A 
ATOM     23  C   UNL d   1       3.951   3.257   2.412  0.00  0.00     0.032 A 
ATOM     24  C   UNL d   1       4.735   2.394   1.626  0.00  0.00     0.050 A 
ATOM     25  C   UNL d   1       4.122   1.305   0.975  0.00  0.00     0.045 A 
BRANCH  22  26
ATOM     26  C   UNL d   1       1.671   4.016   3.267  0.00  0.00     0.417 C 
ATOM     27  F   UNL d   1       2.342   5.047   3.851  0.00  0.00    -0.166 F 
ATOM     28  F   UNL d   1       0.752   4.595   2.444  0.00  0.00    -0.166 F 
ATOM     29  F   UNL d   1       0.961   3.418   4.262  0.00  0.00    -0.166 F 
ENDBRANCH  22  26
BRANCH  24  30
ATOM     30  C   UNL d   1       6.197   2.689   1.387  0.00  0.00     0.417 C 
ATOM     31  F   UNL d   1       6.629   3.826   2.002  0.00  0.00    -0.166 F 
ATOM     32  F   UNL d   1       7.020   1.694   1.812  0.00  0.00    -0.166 F 
ATOM     33  F   UNL d   1       6.470   2.863   0.063  0.00  0.00    -0.166 F 
ENDBRANCH  24  30
ENDBRANCH   2  20
TORSDOF 9
