REMARK  5 active torsions:
REMARK  status: ('A' for Active; 'I' for Inactive)
REMARK    1  A    between atoms: C_6  and  C_1 
REMARK    2  A    between atoms: N_11  and  C_3 
REMARK    3  A    between atoms: C_7  and  C_4 
REMARK    4  A    between atoms: O_16  and  C_6 
REMARK    5  A    between atoms: C_8  and  C_9 
ROOT
ATOM      1  C   UNL d   1      -0.645   0.799  -0.639  0.00  0.00     0.107 A 
ATOM      2  S   UNL d   1       0.263  -0.418  -1.448  0.00  0.00    -0.081 SA
ATOM      3  C   UNL d   1      -0.547   0.639   0.731  0.00  0.00     0.050 A 
ATOM      4  C   UNL d   1       0.751  -1.170   0.016  0.00  0.00     0.018 A 
ATOM      5  C   UNL d   1       0.248  -0.477   1.101  0.00  0.00     0.050 A 
ENDROOT
BRANCH   4   6
ATOM      6  C   UNL d   1       1.595  -2.378   0.021  0.00  0.00    -0.019 A 
ATOM      7  C   UNL d   1       2.511  -2.595   1.059  0.00  0.00     0.013 A 
ATOM      8  C   UNL d   1       3.289  -3.762   1.110  0.00  0.00     0.009 A 
ATOM      9  C   UNL d   1       3.188  -4.755   0.120  0.00  0.00    -0.051 A 
ATOM     10  C   UNL d   1       2.269  -4.527  -0.915  0.00  0.00     0.009 A 
ATOM     11  C   UNL d   1       1.488  -3.364  -0.964  0.00  0.00     0.013 A 
BRANCH   9  12
ATOM     12  C   UNL d   1       4.070  -6.014   0.183  0.00  0.00    -0.024 C 
ATOM     13  C   UNL d   1       3.837  -6.984  -0.998  0.00  0.00     0.019 C 
ATOM     14  C   UNL d   1       5.558  -5.605   0.153  0.00  0.00     0.019 C 
ATOM     15  C   UNL d   1       3.794  -6.803   1.481  0.00  0.00     0.019 C 
ENDBRANCH   9  12
ENDBRANCH   4   6
BRANCH   1  16
ATOM     16  C   UNL d   1      -1.359   1.781  -1.440  0.00  0.00     0.302 C 
ATOM     17  O   UNL d   1      -1.397   1.835  -2.666  0.00  0.00    -0.259 OA
BRANCH  16  18
ATOM     18  O   UNL d   1      -2.010   2.672  -0.629  0.00  0.00    -0.322 OA
ATOM     19  C   UNL d   1      -2.745   3.680  -1.321  0.00  0.00     0.213 C 
ENDBRANCH  16  18
ENDBRANCH   1  16
BRANCH   3  20
ATOM     20  N   UNL d   1      -1.129   1.425   1.655  0.00  0.00    -0.398 N 
ATOM     21  H   UNL d   1      -1.696   2.230   1.393  0.00  0.00     0.156 HD
ATOM     22  H   UNL d   1      -1.025   1.288   2.654  0.00  0.00     0.156 HD
ENDBRANCH   3  20
TORSDOF 5
