REMARK  6 active torsions:
REMARK  status: ('A' for Active; 'I' for Inactive)
REMARK    1  A    between atoms: C_8  and  N_1 
REMARK    2  A    between atoms: S_7  and  C_2 
REMARK    3  A    between atoms: C_12  and  S_7 
REMARK    4  A    between atoms: C_9  and  C_12 
REMARK    5  A    between atoms: C_11  and  C_9 
REMARK    6  A    between atoms: N_13  and  C_10 
ROOT
ATOM      1  N   UNL d   1      -0.191  -1.331  -0.063  0.00  0.00    -0.219 N 
ATOM      2  C   UNL d   1       1.044  -0.695  -0.038  0.00  0.00     0.177 A 
ATOM      3  N   UNL d   1       0.861   0.604   0.023  0.00  0.00    -0.264 N 
ATOM      4  HN  UNL d   1       1.580   1.324   0.097  1.00  0.00     0.186 HD
ATOM      5  N   UNL d   1      -0.495   0.793  -0.033  0.00  0.00    -0.006 NA
ATOM      6  N   UNL d   1      -1.138  -0.361  -0.150  0.00  0.00     0.001 NA
ENDROOT
BRANCH   2   7
ATOM      7  S   UNL d   1       2.563  -1.482  -0.316  0.00  0.00    -0.084 SA
BRANCH   7   8
ATOM      8  C   UNL d   1       3.737  -0.103  -0.228  0.00  0.00     0.166 C 
BRANCH   8   9
ATOM      9  C   UNL d   1       5.150  -0.566  -0.565  0.00  0.00     0.169 C 
ATOM     10  O   UNL d   1       5.432  -1.722  -0.880  0.00  0.00    -0.291 OA
BRANCH   9  11
ATOM     11  C   UNL d   1       6.257   0.435  -0.520  0.00  0.00     0.011 A 
ATOM     12  C   UNL d   1       6.060   1.763  -0.114  0.00  0.00     0.018 A 
ATOM     13  C   UNL d   1       7.141   2.652  -0.082  0.00  0.00     0.043 A 
ATOM     14  C   UNL d   1       8.406   2.220  -0.454  0.00  0.00     0.116 A 
ATOM     15  C   UNL d   1       8.622   0.908  -0.860  0.00  0.00     0.043 A 
ATOM     16  F   UNL d   1       9.436   3.075  -0.419  0.00  0.00    -0.206 F 
ATOM     17  C   UNL d   1       7.549   0.017  -0.894  0.00  0.00     0.018 A 
ENDBRANCH   9  11
ENDBRANCH   8   9
ENDBRANCH   7   8
ENDBRANCH   2   7
BRANCH   1  18
ATOM     18  C   UNL d   1      -0.540  -2.703  -0.020  0.00  0.00     0.057 A 
ATOM     19  C   UNL d   1       0.279  -3.635   0.614  0.00  0.00     0.033 A 
ATOM     20  C   UNL d   1      -0.052  -4.993   0.590  0.00  0.00     0.031 A 
ATOM     21  C   UNL d   1      -1.191  -5.479  -0.069  0.00  0.00     0.029 A 
ATOM     22  C   UNL d   1      -2.030  -4.514  -0.648  0.00  0.00     0.031 A 
ATOM     23  C   UNL d   1      -1.727  -3.141  -0.613  0.00  0.00     0.033 A 
BRANCH  21  24
ATOM     24  N   UNL d   1      -1.464  -6.837  -0.094  0.00  0.00    -0.390 N 
ATOM     25  C   UNL d   1      -0.377  -7.807  -0.217  0.00  0.00     0.149 C 
ATOM     26  C   UNL d   1      -2.801  -7.361  -0.337  0.00  0.00     0.149 C 
ENDBRANCH  21  24
ENDBRANCH   1  18
TORSDOF 6
