REMARK  1 active torsions:
REMARK  status: ('A' for Active; 'I' for Inactive)
REMARK    1  A    between atoms: C_4  and  N_1 
ROOT
ATOM      1  N   UNL d   1       0.507   1.136  -0.661  0.00  0.00    -0.249 N 
ATOM      2  C   UNL d   1       1.384   0.050  -0.454  0.00  0.00     0.240 C 
ATOM      3  C   UNL d   1      -0.822   1.246  -0.209  0.00  0.00     0.240 C 
ATOM      4  S   UNL d   1      -0.501  -1.136   1.141  0.00  0.00    -0.150 SA
ATOM      5  O   UNL d   1      -1.465   2.301  -0.213  0.00  0.00    -0.272 OA
ATOM      6  O   UNL d   1       2.613   0.141  -0.558  0.00  0.00    -0.272 OA
ATOM      7  C   UNL d   1       0.780  -1.290  -0.106  0.00  0.00     0.178 C 
ATOM      8  C   UNL d   1      -1.540  -0.026   0.192  0.00  0.00     0.178 C 
ENDROOT
BRANCH   1   9
ATOM      9  C   UNL d   1       1.103   2.312  -1.242  0.00  0.00     0.067 A 
ATOM     10  C   UNL d   1       1.671   2.277  -2.531  0.00  0.00     0.061 A 
ATOM     11 CL   UNL d   1       1.556   0.880  -3.553  0.00  0.00    -0.082 Cl
ATOM     12  C   UNL d   1       2.262   3.421  -3.078  0.00  0.00     0.026 A 
ATOM     13  C   UNL d   1       2.289   4.609  -2.351  0.00  0.00     0.002 A 
ATOM     14  C   UNL d   1       1.718   4.660  -1.080  0.00  0.00     0.002 A 
ATOM     15  C   UNL d   1       1.125   3.520  -0.529  0.00  0.00     0.032 A 
ENDBRANCH   1   9
TORSDOF 1
