REMARK  5 active torsions:
REMARK  status: ('A' for Active; 'I' for Inactive)
REMARK    1  A    between atoms: N_3  and  C_1 
REMARK    2  A    between atoms: N_4  and  C_1 
REMARK    3  A    between atoms: C_6  and  N_3 
REMARK    4  A    between atoms: N_7  and  N_4 
REMARK    5  A    between atoms: C_5  and  C_6 
ROOT
ATOM      1  C   UNL d   1      -1.257  -1.188  -1.169  0.00  0.00     0.181 C 
ATOM      2  S   UNL d   1      -0.224  -0.084  -1.869  0.00  0.00    -0.040 SA
ENDROOT
BRANCH   1   3
ATOM      3  N   UNL d   1      -1.606  -1.260   0.158  0.00  0.00    -0.366 N 
ATOM      4  H   UNL d   1      -1.949  -2.170   0.427  0.00  0.00     0.161 HD
BRANCH   3   5
ATOM      5  C   UNL d   1      -1.104  -0.390   1.216  0.00  0.00     0.130 C 
BRANCH   5   6
ATOM      6  C   UNL d   1      -1.655  -0.732   2.620  0.00  0.00    -0.035 C 
ATOM      7  C   UNL d   1      -1.156  -2.115   3.075  0.00  0.00     0.016 C 
ATOM      8  C   UNL d   1      -1.140   0.324   3.616  0.00  0.00     0.016 C 
ATOM      9  C   UNL d   1      -3.193  -0.710   2.632  0.00  0.00     0.016 C 
ENDBRANCH   5   6
ENDBRANCH   3   5
ENDBRANCH   1   3
BRANCH   1  10
ATOM     10  N   UNL d   1      -1.873  -2.137  -1.964  0.00  0.00    -0.300 N 
ATOM     11  H   UNL d   1      -1.690  -2.061  -2.966  0.00  0.00     0.183 HD
BRANCH  10  12
ATOM     12  N   UNL d   1      -3.014  -2.848  -1.546  0.00  0.00    -0.248 NA
ATOM     13  H   UNL d   1      -3.562  -2.247  -0.925  0.00  0.00     0.143 HD
ATOM     14  H   UNL d   1      -2.722  -3.670  -1.016  0.00  0.00     0.143 HD
ENDBRANCH  10  12
ENDBRANCH   1  10
TORSDOF 5
