REMARK  6 active torsions:
REMARK  status: ('A' for Active; 'I' for Inactive)
REMARK    1  A    between atoms: C_4  and  C_1 
REMARK       I    between atoms: N_8  and  C_4 
REMARK    2  A    between atoms: C_6  and  C_10 
REMARK    3  A    between atoms: C_9  and  N_8 
REMARK    4  A    between atoms: O_12  and  C_11 
REMARK    5  A    between atoms: C_14  and  O_12 
REMARK    6  A    between atoms: O_24  and  C_19 
ROOT
ATOM      1  C   UNL d   1       4.041  -2.586  -0.134  0.00  0.00     0.070 A 
ATOM      2  C   UNL d   1       2.466  -3.977  -1.385  0.00  0.00     0.050 A 
ATOM      3  C   UNL d   1       4.431  -3.716   0.611  0.00  0.00     0.103 A 
ATOM      4  C   UNL d   1       3.095  -2.740  -1.158  0.00  0.00     0.048 A 
ATOM      5  C   UNL d   1       2.839  -5.082  -0.608  0.00  0.00     0.019 A 
ATOM      6  C   UNL d   1       3.843  -4.962   0.352  0.00  0.00     0.040 A 
ENDROOT
BRANCH   1   7
ATOM      7  N   UNL d   1       4.561  -1.283   0.064  0.00  0.00    -0.320 N 
ATOM      8  C   UNL d   1       4.889  -0.741   1.302  0.00  0.00     0.264 C 
ATOM      9  O   UNL d   1       4.645  -1.298   2.369  0.00  0.00    -0.267 OA
ATOM     10  H   UNL d   1       4.451  -0.620  -0.694  0.00  0.00     0.169 HD
BRANCH   8  11
ATOM     11  C   UNL d   1       5.480   0.584   1.262  0.00  0.00     0.096 A 
ATOM     12  S   UNL d   1       6.756   0.913   2.353  0.00  0.00    -0.082 SA
ATOM     13  C   UNL d   1       6.869   2.555   1.866  0.00  0.00     0.017 A 
ATOM     14  C   UNL d   1       7.743   3.527   2.392  0.00  0.00     0.020 A 
ATOM     15  C   UNL d   1       5.956   2.853   0.851  0.00  0.00     0.004 A 
ATOM     16  C   UNL d   1       7.689   4.829   1.892  0.00  0.00     0.001 A 
ATOM     17  C   UNL d   1       6.795   5.156   0.882  0.00  0.00     0.001 A 
ATOM     18  C   UNL d   1       5.936   4.184   0.360  0.00  0.00     0.014 A 
ATOM     19  C   UNL d   1       5.165   1.695   0.510  0.00  0.00     0.068 A 
ATOM     20 CL   UNL d   1       3.911   1.764  -0.667  0.00  0.00    -0.082 Cl
ENDBRANCH   8  11
ENDBRANCH   1   7
BRANCH   3  21
ATOM     21  O   UNL d   1       5.533  -3.617   1.433  0.00  0.00    -0.306 OA
BRANCH  21  22
ATOM     22  C   UNL d   1       5.553  -4.198   2.683  0.00  0.00     0.109 A 
ATOM     23  C   UNL d   1       6.795  -4.441   3.293  0.00  0.00     0.102 A 
ATOM     24  C   UNL d   1       6.826  -5.030   4.567  0.00  0.00     0.039 A 
ATOM     25  C   UNL d   1       5.651  -5.356   5.243  0.00  0.00     0.003 A 
ATOM     26  C   UNL d   1       4.423  -5.074   4.659  0.00  0.00     0.003 A 
ATOM     27  C   UNL d   1       4.375  -4.481   3.397  0.00  0.00     0.040 A 
BRANCH  23  28
ATOM     28  O   UNL d   1       8.053  -4.188   2.809  0.00  0.00    -0.353 OA
ATOM     29  C   UNL d   1       8.192  -3.372   1.657  0.00  0.00     0.210 C 
ENDBRANCH  23  28
ENDBRANCH  21  22
ENDBRANCH   3  21
BRANCH   2  30
ATOM     30  C   UNL d   1       1.387  -4.128  -2.429  0.00  0.00     0.417 C 
ATOM     31  F   UNL d   1       1.214  -3.016  -3.196  0.00  0.00    -0.166 F 
ATOM     32  F   UNL d   1       1.641  -5.145  -3.299  0.00  0.00    -0.166 F 
ATOM     33  F   UNL d   1       0.170  -4.399  -1.882  0.00  0.00    -0.166 F 
ENDBRANCH   2  30
TORSDOF 6
