REMARK  6 active torsions:
REMARK  status: ('A' for Active; 'I' for Inactive)
REMARK    1  A    between atoms: S_10  and  C_1 
REMARK    2  A    between atoms: C_2  and  C_7 
REMARK    3  A    between atoms: C_3  and  C_8 
REMARK    4  A    between atoms: C_25  and  S_10 
REMARK    5  A    between atoms: C_11  and  N_14 
REMARK    6  A    between atoms: C_13  and  C_25 
REMARK       I    between atoms: N_14  and  C_13 
ROOT
ATOM      1  C   UNL d   1      -1.873   6.109   0.685  0.00  0.00     0.050 A 
ATOM      2  C   UNL d   1      -1.540   3.728   1.063  0.00  0.00     0.050 A 
ATOM      3  C   UNL d   1      -2.380   4.846   1.026  0.00  0.00     0.032 A 
ATOM      4  C   UNL d   1       0.354   5.130   0.396  0.00  0.00     0.036 A 
ATOM      5  C   UNL d   1      -0.184   3.886   0.736  0.00  0.00     0.045 A 
ATOM      6  C   UNL d   1      -0.501   6.239   0.372  0.00  0.00     0.045 A 
ENDROOT
BRANCH   4   7
ATOM      7  N   UNL d   1       1.734   5.321   0.122  0.00  0.00    -0.326 N 
ATOM      8  C   UNL d   1       2.691   4.327   0.006  0.00  0.00     0.231 C 
ATOM      9  O   UNL d   1       2.440   3.119  -0.040  0.00  0.00    -0.272 OA
ATOM     10  H   UNL d   1       2.058   6.275   0.007  0.00  0.00     0.169 HD
BRANCH   8  11
ATOM     11  C   UNL d   1       4.128   4.769  -0.190  0.00  0.00     0.185 C 
BRANCH  11  12
ATOM     12  S   UNL d   1       4.602   6.248   0.751  0.00  0.00    -0.084 SA
BRANCH  12  13
ATOM     13  C   UNL d   1       6.293   6.280   0.344  0.00  0.00     0.146 A 
ATOM     14  N   UNL d   1       7.209   7.126   0.908  0.00  0.00    -0.341 N 
ATOM     15  C   UNL d   1       8.414   6.887   0.293  0.00  0.00     0.109 A 
ATOM     16  C   UNL d   1       7.013   8.104   1.949  0.00  0.00     0.158 C 
ATOM     17  C   UNL d   1       8.169   5.869  -0.597  0.00  0.00     0.107 A 
ATOM     18  N   UNL d   1       6.850   5.502  -0.558  0.00  0.00    -0.345 N 
ATOM     19  HN  UNL d   1       6.395   4.777  -1.114  1.00  0.00     0.167 HD
ENDBRANCH  12  13
ENDBRANCH  11  12
ENDBRANCH   8  11
ENDBRANCH   4   7
BRANCH   2  20
ATOM     20  C   UNL d   1      -2.045   2.364   1.473  0.00  0.00     0.417 C 
ATOM     21  F   UNL d   1      -3.345   2.372   1.880  0.00  0.00    -0.166 F 
ATOM     22  F   UNL d   1      -1.975   1.453   0.465  0.00  0.00    -0.166 F 
ATOM     23  F   UNL d   1      -1.336   1.839   2.510  0.00  0.00    -0.166 F 
ENDBRANCH   2  20
BRANCH   1  24
ATOM     24  C   UNL d   1      -2.783   7.319   0.672  0.00  0.00     0.417 C 
ATOM     25  F   UNL d   1      -4.052   7.046   1.084  0.00  0.00    -0.166 F 
ATOM     26  F   UNL d   1      -2.332   8.311   1.487  0.00  0.00    -0.166 F 
ATOM     27  F   UNL d   1      -2.900   7.870  -0.565  0.00  0.00    -0.166 F 
ENDBRANCH   1  24
TORSDOF 6
