REMARK  2 active torsions:
REMARK  status: ('A' for Active; 'I' for Inactive)
REMARK    1  A    between atoms: N_8  and  C_4 
REMARK    2  A    between atoms: C_12  and  N_8 
ROOT
ATOM      1  C   UNL d   1      -2.468  -0.673  -0.028  0.00  0.00     0.103 A 
ATOM      2  C   UNL d   1      -1.907   0.705  -0.028  0.00  0.00     0.200 A 
ATOM      3  C   UNL d   1      -1.339  -1.637  -0.013  0.00  0.00     0.200 A 
ATOM      4  C   UNL d   1      -3.756  -1.058  -0.021  0.00  0.00     0.132 C 
ATOM      5  C   UNL d   1      -0.449   0.532  -0.018  0.00  0.00     0.029 A 
ATOM      6  C   UNL d   1      -0.121  -0.821  -0.014  0.00  0.00     0.029 A 
ATOM      7  C   UNL d   1      -4.782  -0.057   0.052  0.00  0.00     0.118 C 
ATOM      8  N   UNL d   1      -5.624   0.742   0.108  0.00  0.00    -0.190 NA
ATOM      9  O   UNL d   1      -1.402  -2.849   0.019  0.00  0.00    -0.286 OA
ATOM     10  O   UNL d   1      -2.491   1.764  -0.041  0.00  0.00    -0.286 OA
ATOM     11  C   UNL d   1       0.526   1.512  -0.013  0.00  0.00     0.016 A 
ATOM     12  C   UNL d   1       1.190  -1.254  -0.003  0.00  0.00     0.016 A 
ATOM     13  C   UNL d   1       1.861   1.094  -0.003  0.00  0.00     0.001 A 
ATOM     14  C   UNL d   1       2.190  -0.277   0.002  0.00  0.00     0.001 A 
ENDROOT
BRANCH   4  15
ATOM     15  N   UNL d   1      -4.157  -2.395  -0.005  0.00  0.00    -0.347 N 
ATOM     16  H   UNL d   1      -3.387  -3.063   0.109  0.00  0.00     0.167 HD
BRANCH  15  17
ATOM     17  C   UNL d   1      -5.431  -2.991   0.013  0.00  0.00     0.033 A 
ATOM     18  C   UNL d   1      -6.560  -2.433  -0.595  0.00  0.00     0.029 A 
ATOM     19  C   UNL d   1      -7.827  -2.999  -0.428  0.00  0.00     0.002 A 
ATOM     20  C   UNL d   1      -7.984  -4.145   0.344  0.00  0.00     0.000 A 
ATOM     21  C   UNL d   1      -6.870  -4.739   0.928  0.00  0.00     0.002 A 
ATOM     22  C   UNL d   1      -5.605  -4.166   0.762  0.00  0.00     0.029 A 
ENDBRANCH  15  17
ENDBRANCH   4  15
TORSDOF 2
