REMARK  2 active torsions:
REMARK  status: ('A' for Active; 'I' for Inactive)
REMARK    1  A    between atoms: C_2  and  C_1 
REMARK    2  A    between atoms: N_10  and  C_1 
ROOT
ATOM      1  C   UNL d   1       0.325   1.226  -0.350  0.00  0.00     0.002 A 
ATOM      2  C   UNL d   1      -0.822   1.663   0.339  0.00  0.00     0.024 A 
ATOM      3  C   UNL d   1      -1.494   2.778  -0.136  0.00  0.00    -0.022 A 
ATOM      4  C   UNL d   1      -1.034   3.471  -1.243  0.00  0.00     0.075 A 
ATOM      5  O   UNL d   1      -1.806   4.553  -1.575  0.00  0.00    -0.350 OA
ATOM      6  C   UNL d   1       0.776   1.946  -1.480  0.00  0.00     0.017 A 
ATOM      7  C   UNL d   1       0.100   3.087  -1.924  0.00  0.00     0.038 A 
ATOM      8  C   UNL d   1      -3.011   4.359  -0.796  0.00  0.00     0.180 C 
ATOM      9  C   UNL d   1      -2.697   3.457   0.398  0.00  0.00     0.068 C 
ENDROOT
BRANCH   1  10
ATOM     10  C   UNL d   1       1.054  -0.002   0.084  0.00  0.00     0.104 C 
ATOM     11  S   UNL d   1       0.361  -1.335   0.819  0.00  0.00    -0.060 SA
BRANCH  10  12
ATOM     12  N   UNL d   1       2.407  -0.035  -0.149  0.00  0.00    -0.390 N 
ATOM     13  H   UNL d   1       2.940   0.752  -0.493  0.00  0.00     0.157 HD
ATOM     14  H   UNL d   1       2.927  -0.853   0.151  0.00  0.00     0.157 HD
ENDBRANCH  10  12
ENDBRANCH   1  10
TORSDOF 2
