REMARK  6 active torsions:
REMARK  status: ('A' for Active; 'I' for Inactive)
REMARK    1  A    between atoms: C_10  and  N_1 
REMARK    2  A    between atoms: O_8  and  C_2 
REMARK    3  A    between atoms: S_12  and  C_3 
REMARK    4  A    between atoms: C_9  and  O_8 
REMARK       I    between atoms: N_15  and  C_9 
REMARK    5  A    between atoms: C_11  and  C_13 
REMARK    6  A    between atoms: C_21  and  S_12 
ROOT
ATOM      1  N   UNL d   1      -0.607  -1.286   0.250  0.00  0.00    -0.255 N 
ATOM      2  C   UNL d   1       0.636  -0.701   0.525  0.00  0.00     0.256 A 
ATOM      3  C   UNL d   1      -1.436  -0.167   0.100  0.00  0.00     0.169 A 
ATOM      4  N   UNL d   1       0.530   0.612   0.533  0.00  0.00    -0.262 N 
ATOM      5  HN  UNL d   1       1.288   1.270   0.715  1.00  0.00     0.190 HD
ATOM      6  N   UNL d   1      -0.752   0.939   0.259  0.00  0.00    -0.276 N 
ATOM      7  HN  UNL d   1      -1.124   1.886   0.189  1.00  0.00     0.189 HD
ENDROOT
BRANCH   1   8
ATOM      8  C   UNL d   1      -0.957  -2.670   0.195  0.00  0.00     0.046 A 
ATOM      9  C   UNL d   1      -0.250  -3.615   0.950  0.00  0.00     0.046 A 
ATOM     10  C   UNL d   1      -0.512  -4.993   0.817  0.00  0.00     0.050 A 
ATOM     11  C   UNL d   1      -1.551  -5.412  -0.025  0.00  0.00     0.016 A 
ATOM     12  C   UNL d   1      -2.286  -4.481  -0.746  0.00  0.00     0.003 A 
ATOM     13  C   UNL d   1      -1.980  -3.120  -0.653  0.00  0.00     0.030 A 
BRANCH  10  14
ATOM     14  C   UNL d   1       0.341  -6.014   1.524  0.00  0.00     0.417 C 
ATOM     15  F   UNL d   1       1.324  -5.472   2.295  0.00  0.00    -0.166 F 
ATOM     16  F   UNL d   1      -0.385  -6.811   2.356  0.00  0.00    -0.166 F 
ATOM     17  F   UNL d   1       0.970  -6.860   0.659  0.00  0.00    -0.166 F 
ENDBRANCH  10  14
ENDBRANCH   1   8
BRANCH   2  18
ATOM     18  O   UNL d   1       1.794  -1.232   0.846  0.00  0.00    -0.226 OA
BRANCH  18  19
ATOM     19  C   UNL d   1       2.505  -2.142   0.162  0.00  0.00     0.369 C 
ATOM     20  N   UNL d   1       3.852  -2.105   0.542  0.00  0.00    -0.336 N 
ATOM     21  C   UNL d   1       4.750  -3.098  -0.015  0.00  0.00     0.154 C 
ATOM     22  C   UNL d   1       4.441  -0.821   0.901  0.00  0.00     0.154 C 
ATOM     23  O   UNL d   1       2.051  -2.913  -0.665  0.00  0.00    -0.238 OA
ENDBRANCH  18  19
ENDBRANCH   2  18
BRANCH   3  24
ATOM     24  S   UNL d   1      -3.173  -0.158  -0.060  0.00  0.00    -0.088 SA
BRANCH  24  25
ATOM     25  C   UNL d   1      -3.529   1.640  -0.169  0.00  0.00     0.047 C 
ATOM     26  C   UNL d   1      -3.081   2.213  -1.513  0.00  0.00     0.021 C 
ATOM     27  C   UNL d   1      -5.030   1.862   0.014  0.00  0.00     0.021 C 
ENDBRANCH  24  25
ENDBRANCH   3  24
TORSDOF 6
