REMARK  7 active torsions:
REMARK  status: ('A' for Active; 'I' for Inactive)
REMARK    1  A    between atoms: O_2  and  C_1 
REMARK    2  A    between atoms: C_8  and  C_1 
REMARK    3  A    between atoms: C_3  and  O_2 
REMARK    4  A    between atoms: O_15  and  C_4 
REMARK    5  A    between atoms: N_11  and  N_5 
REMARK    6  A    between atoms: C_16  and  N_11 
REMARK    7  A    between atoms: C_12  and  C_13 
ROOT
ATOM      1  C   UNL d   1       1.026  -2.263   0.209  0.00  0.00     0.112 A 
ATOM      2  C   UNL d   1       1.982  -2.549   1.194  0.00  0.00     0.102 A 
ATOM      3  C   UNL d   1       2.581  -3.813   1.203  0.00  0.00     0.052 A 
ATOM      4  C   UNL d   1       0.642  -3.224  -0.732  0.00  0.00     0.041 A 
ATOM      5  C   UNL d   1       2.224  -4.767   0.240  0.00  0.00    -0.017 A 
ATOM      6  C   UNL d   1       1.250  -4.478  -0.721  0.00  0.00     0.016 A 
ENDROOT
BRANCH   5   7
ATOM      7  C   UNL d   1       2.891  -6.086   0.271  0.00  0.00     0.118 C 
ATOM      8  N   UNL d   1       2.669  -6.986  -0.633  0.00  0.00    -0.311 N 
ATOM      9  HN  UNL d   1       2.032  -6.832  -1.415  1.00  0.00     0.186 HD
BRANCH   8  10
ATOM     10  N   UNL d   1       3.347  -8.151  -0.460  0.00  0.00    -0.301 N 
ATOM     11  H   UNL d   1       4.213  -8.166   0.073  0.00  0.00     0.187 HD
BRANCH  10  12
ATOM     12  C   UNL d   1       3.285  -9.129  -1.476  0.00  0.00     0.048 A 
ATOM     13  C   UNL d   1       2.437  -9.007  -2.583  0.00  0.00     0.031 A 
ATOM     14  C   UNL d   1       2.332 -10.030  -3.530  0.00  0.00     0.002 A 
ATOM     15  C   UNL d   1       3.059 -11.206  -3.366  0.00  0.00     0.000 A 
ATOM     16  C   UNL d   1       3.890 -11.357  -2.259  0.00  0.00     0.002 A 
ATOM     17  C   UNL d   1       3.997 -10.327  -1.318  0.00  0.00     0.031 A 
ENDBRANCH  10  12
ENDBRANCH   8  10
ENDBRANCH   5   7
BRANCH   2  18
ATOM     18  O   UNL d   1       2.236  -1.574   2.122  0.00  0.00    -0.353 OA
ATOM     19  C   UNL d   1       3.529  -1.616   2.719  0.00  0.00     0.210 C 
ENDBRANCH   2  18
BRANCH   1  20
ATOM     20  O   UNL d   1       0.358  -1.029   0.149  0.00  0.00    -0.272 OA
BRANCH  20  21
ATOM     21  C   UNL d   1       1.149   0.046  -0.217  0.00  0.00     0.298 C 
ATOM     22  O   UNL d   1       2.358   0.053  -0.400  0.00  0.00    -0.259 OA
BRANCH  21  23
ATOM     23  C   UNL d   1       0.296   1.253  -0.431  0.00  0.00     0.039 A 
ATOM     24  C   UNL d   1       0.936   2.487  -0.613  0.00  0.00     0.017 A 
ATOM     25  C   UNL d   1       0.189   3.637  -0.889  0.00  0.00     0.001 A 
ATOM     26  C   UNL d   1      -1.199   3.558  -0.989  0.00  0.00     0.000 A 
ATOM     27  C   UNL d   1      -1.844   2.337  -0.800  0.00  0.00     0.001 A 
ATOM     28  C   UNL d   1      -1.102   1.186  -0.519  0.00  0.00     0.017 A 
ENDBRANCH  21  23
ENDBRANCH  20  21
ENDBRANCH   1  20
TORSDOF 7
