REMARK  6 active torsions:
REMARK  status: ('A' for Active; 'I' for Inactive)
REMARK    1  A    between atoms: C_2  and  S_1 
REMARK    2  A    between atoms: N_3  and  S_1 
REMARK    3  A    between atoms: C_4  and  C_8 
REMARK    4  A    between atoms: C_5  and  C_7 
REMARK    5  A    between atoms: C_12  and  N_6 
REMARK    6  A    between atoms: O_26  and  C_19 
ROOT
ATOM      1  S   UNL d   1       1.180  -0.066   0.284  0.00  0.00     0.243 S 
ATOM      2  O   UNL d   1       0.212   0.321   1.283  0.00  0.00    -0.206 OA
ATOM      3  O   UNL d   1       2.102  -1.160   0.506  0.00  0.00    -0.206 OA
ENDROOT
BRANCH   1   4
ATOM      4  C   UNL d   1       2.196   1.355  -0.085  0.00  0.00     0.076 A 
ATOM      5  C   UNL d   1       2.066   2.525   0.670  0.00  0.00     0.041 A 
ATOM      6  C   UNL d   1       2.948   3.597   0.458  0.00  0.00     0.050 A 
ATOM      7  C   UNL d   1       3.946   3.475  -0.528  0.00  0.00     0.032 A 
ATOM      8  C   UNL d   1       4.087   2.299  -1.287  0.00  0.00     0.050 A 
ATOM      9  C   UNL d   1       3.198   1.238  -1.058  0.00  0.00     0.041 A 
BRANCH   6  10
ATOM     10  C   UNL d   1       2.865   4.857   1.290  0.00  0.00     0.417 C 
ATOM     11  F   UNL d   1       1.923   4.803   2.269  0.00  0.00    -0.166 F 
ATOM     12  F   UNL d   1       4.041   5.140   1.915  0.00  0.00    -0.166 F 
ATOM     13  F   UNL d   1       2.567   5.953   0.539  0.00  0.00    -0.166 F 
ENDBRANCH   6  10
BRANCH   8  14
ATOM     14  C   UNL d   1       5.203   2.186  -2.303  0.00  0.00     0.417 C 
ATOM     15  F   UNL d   1       5.269   0.969  -2.907  0.00  0.00    -0.166 F 
ATOM     16  F   UNL d   1       5.086   3.099  -3.305  0.00  0.00    -0.166 F 
ATOM     17  F   UNL d   1       6.428   2.396  -1.746  0.00  0.00    -0.166 F 
ENDBRANCH   8  14
ENDBRANCH   1   4
BRANCH   1  18
ATOM     18  N   UNL d   1       0.372  -0.320  -1.184  0.00  0.00    -0.203 NA
ATOM     19  C   UNL d   1      -0.910   0.440  -1.399  0.00  0.00     0.127 C 
ATOM     20  C   UNL d   1      -2.138  -0.282  -0.783  0.00  0.00     0.138 C 
ATOM     21  N   UNL d   1      -2.195  -1.673  -1.278  0.00  0.00    -0.376 N 
ATOM     22  C   UNL d   1      -0.971  -2.441  -0.979  0.00  0.00     0.138 C 
ATOM     23  C   UNL d   1       0.236  -1.743  -1.629  0.00  0.00     0.127 C 
BRANCH  21  24
ATOM     24  C   UNL d   1      -3.417  -2.325  -1.447  0.00  0.00     0.064 A 
ATOM     25  C   UNL d   1      -4.483  -1.790  -2.220  0.00  0.00     0.094 A 
ATOM     26  C   UNL d   1      -5.620  -2.571  -2.504  0.00  0.00     0.039 A 
ATOM     27  C   UNL d   1      -5.752  -3.861  -1.997  0.00  0.00     0.003 A 
ATOM     28  C   UNL d   1      -4.756  -4.377  -1.185  0.00  0.00     0.002 A 
ATOM     29  C   UNL d   1      -3.613  -3.619  -0.918  0.00  0.00     0.032 A 
BRANCH  25  30
ATOM     30  O   UNL d   1      -4.327  -0.532  -2.765  0.00  0.00    -0.354 OA
ATOM     31  C   UNL d   1      -5.536   0.166  -3.060  0.00  0.00     0.210 C 
ENDBRANCH  25  30
ENDBRANCH  21  24
ENDBRANCH   1  18
TORSDOF 6
