REMARK  5 active torsions:
REMARK  status: ('A' for Active; 'I' for Inactive)
REMARK    1  A    between atoms: C_10  and  C_3 
REMARK    2  A    between atoms: N_6  and  C_9 
REMARK    3  A    between atoms: C_11  and  C_8 
REMARK    4  A    between atoms: O_14  and  C_13 
REMARK    5  A    between atoms: C_16  and  O_14 
ROOT
ATOM      1  N   UNL d   1       1.526  -0.017   0.511  0.00  0.00    -0.331 N 
ATOM      2  HN  UNL d   1       2.470  -0.382   0.634  1.00  0.00     0.168 HD
ATOM      3  C   UNL d   1       1.151   1.208   0.324  0.00  0.00     0.162 A 
ATOM      4  C   UNL d   1       0.335  -0.702   0.503  0.00  0.00     0.111 A 
ATOM      5  O   UNL d   1      -0.175   1.457   0.252  0.00  0.00    -0.256 OA
ATOM      6  C   UNL d   1      -0.805   0.256   0.388  0.00  0.00     0.316 A 
ATOM      7  C   UNL d   1       0.257  -2.038   0.477  0.00  0.00     0.050 C 
ATOM      8  O   UNL d   1      -2.001   0.068   0.417  0.00  0.00    -0.257 OA
ENDROOT
BRANCH   7   9
ATOM      9  C   UNL d   1      -0.959  -2.807   0.196  0.00  0.00     0.000 A 
ATOM     10  C   UNL d   1      -1.824  -3.299   1.185  0.00  0.00     0.089 A 
ATOM     11  C   UNL d   1      -2.926  -4.083   0.829  0.00  0.00     0.038 A 
ATOM     12  C   UNL d   1      -3.204  -4.332  -0.515  0.00  0.00     0.003 A 
ATOM     13  C   UNL d   1      -2.369  -3.824  -1.506  0.00  0.00     0.001 A 
ATOM     14  C   UNL d   1      -1.248  -3.074  -1.152  0.00  0.00     0.014 A 
BRANCH  10  15
ATOM     15  O   UNL d   1      -1.495  -3.053   2.539  0.00  0.00    -0.278 OA
BRANCH  15  16
ATOM     16  C   UNL d   1      -2.494  -2.895   3.502  0.00  0.00     0.260 C 
ATOM     17  O   UNL d   1      -3.702  -2.869   3.321  0.00  0.00    -0.265 OA
ATOM     18  C   UNL d   1      -1.853  -2.737   4.849  0.00  0.00     0.126 C 
ENDBRANCH  15  16
ENDBRANCH  10  15
ENDBRANCH   7   9
BRANCH   3  19
ATOM     19  C   UNL d   1       2.025   2.379   0.145  0.00  0.00     0.018 A 
ATOM     20  C   UNL d   1       3.413   2.192   0.149  0.00  0.00     0.052 A 
ATOM     21  C   UNL d   1       4.256   3.292  -0.058  0.00  0.00     0.103 A 
ATOM     22  C   UNL d   1       3.725   4.572  -0.268  0.00  0.00     0.036 A 
ATOM     23  C   UNL d   1       2.342   4.751  -0.272  0.00  0.00     0.003 A 
ATOM     24  C   UNL d   1       1.493   3.659  -0.067  0.00  0.00     0.016 A 
BRANCH  21  25
ATOM     25  N   UNL d   1       5.713   3.101  -0.063  0.00  0.00    -0.116 N 
ATOM     26  O   UNL d   1       6.144   1.954   0.118  0.00  0.00    -0.532 OA
ATOM     27  O   UNL d   1       6.423   4.099  -0.250  0.00  0.00    -0.532 OA
ENDBRANCH  21  25
ENDBRANCH   3  19
TORSDOF 5
