REMARK  6 active torsions:
REMARK  status: ('A' for Active; 'I' for Inactive)
REMARK    1  A    between atoms: N_7  and  S_1 
REMARK    2  A    between atoms: C_11  and  S_1 
REMARK    3  A    between atoms: C_4  and  C_2 
REMARK    4  A    between atoms: C_3  and  N_5 
REMARK    5  A    between atoms: N_6  and  C_8 
REMARK    6  A    between atoms: C_16  and  N_7 
ROOT
ATOM      1  C   UNL d   1       1.272  -4.548  -2.517  0.00  0.00     0.103 A 
ATOM      2  N   UNL d   1      -0.002  -4.300  -2.141  0.00  0.00    -0.350 N 
ATOM      3  HN  UNL d   1      -0.781  -4.795  -2.574  1.00  0.00     0.166 HD
ATOM      4  C   UNL d   1       0.791  -2.641  -0.576  0.00  0.00     0.058 A 
ATOM      5  C   UNL d   1       2.331  -3.818  -1.976  0.00  0.00     0.051 A 
ATOM      6  C   UNL d   1      -0.216  -3.379  -1.177  0.00  0.00     0.119 A 
ATOM      7  C   UNL d   1       2.088  -2.844  -1.010  0.00  0.00     0.035 A 
ENDROOT
BRANCH   1   8
ATOM      8  N   UNL d   1       1.467  -5.599  -3.374  0.00  0.00    -0.364 N 
ATOM      9  C   UNL d   1       2.725  -6.350  -3.401  0.00  0.00     0.144 C 
ATOM     10  C   UNL d   1       2.432  -7.823  -3.777  0.00  0.00     0.144 C 
ATOM     11  N   UNL d   1       1.748  -7.821  -5.084  0.00  0.00    -0.363 N 
ATOM     12  C   UNL d   1       0.410  -7.194  -4.973  0.00  0.00     0.144 C 
ATOM     13  C   UNL d   1       0.601  -5.710  -4.565  0.00  0.00     0.144 C 
BRANCH  11  14
ATOM     14  C   UNL d   1       1.897  -8.900  -5.927  0.00  0.00     0.118 A 
ATOM     15  C   UNL d   1       3.123  -9.228  -6.513  0.00  0.00     0.091 A 
ATOM     16  C   UNL d   1       3.162 -10.290  -7.441  0.00  0.00     0.021 A 
ATOM     17  C   UNL d   1       2.010 -10.976  -7.777  0.00  0.00     0.018 A 
ATOM     18  C   UNL d   1       0.843 -10.586  -7.163  0.00  0.00     0.089 A 
ATOM     19  N   UNL d   1       0.771  -9.580  -6.264  0.00  0.00    -0.352 N 
ATOM     20  HN  UNL d   1      -0.124  -9.334  -5.840  1.00  0.00     0.166 HD
BRANCH  15  21
ATOM     21  C   UNL d   1       4.417  -8.498  -6.292  0.00  0.00     0.421 C 
ATOM     22  F   UNL d   1       4.396  -7.381  -5.519  0.00  0.00    -0.166 F 
ATOM     23  F   UNL d   1       5.352  -9.310  -5.712  0.00  0.00    -0.166 F 
ATOM     24  F   UNL d   1       4.983  -8.092  -7.468  0.00  0.00    -0.166 F 
ENDBRANCH  15  21
ENDBRANCH  11  14
ENDBRANCH   1   8
BRANCH   4  25
ATOM     25  N   UNL d   1       0.517  -1.630   0.387  0.00  0.00    -0.279 N 
ATOM     26  H   UNL d   1      -0.183  -1.852   1.096  0.00  0.00     0.179 HD
BRANCH  25  27
ATOM     27  S   UNL d   1       0.324  -0.048  -0.186  0.00  0.00     0.263 S 
ATOM     28  O   UNL d   1       1.436   0.290  -1.060  0.00  0.00    -0.200 OA
ATOM     29  O   UNL d   1       0.005   0.761   0.968  0.00  0.00    -0.200 OA
BRANCH  27  30
ATOM     30  C   UNL d   1      -1.150  -0.163  -1.175  0.00  0.00     0.079 A 
ATOM     31  C   UNL d   1      -2.395   0.012  -0.564  0.00  0.00     0.026 A 
ATOM     32  C   UNL d   1      -3.557  -0.096  -1.328  0.00  0.00     0.008 A 
ATOM     33  C   UNL d   1      -3.482  -0.371  -2.701  0.00  0.00    -0.062 A 
ATOM     34  C   UNL d   1      -2.226  -0.527  -3.303  0.00  0.00     0.008 A 
ATOM     35  C   UNL d   1      -4.744  -0.484  -3.506  0.00  0.00     0.048 C 
ATOM     36  C   UNL d   1      -1.058  -0.414  -2.546  0.00  0.00     0.026 A 
ENDBRANCH  27  30
ENDBRANCH  25  27
ENDBRANCH   4  25
TORSDOF 6
