REMARK  1 active torsions:
REMARK  status: ('A' for Active; 'I' for Inactive)
REMARK    1  A    between atoms: C_6  and  C_17 
ROOT
ATOM      1  C   UNL d   1      -0.635  -0.662   0.397  0.00  0.00     0.125 A 
ATOM      2  N   UNL d   1      -1.429   0.367   0.045  0.00  0.00    -0.280 N 
ATOM      3  C   UNL d   1       0.724  -0.330   0.104  0.00  0.00     0.024 A 
ATOM      4  N   UNL d   1      -1.197  -1.640   1.000  0.00  0.00    -0.310 N 
ATOM      5  HN  UNL d   1      -0.771  -2.515   1.304  1.00  0.00     0.170 HD
ATOM      6  C   UNL d   1      -2.798   0.139   0.458  0.00  0.00     0.122 A 
ATOM      7  C   UNL d   1      -0.706   1.447  -0.362  0.00  0.00     0.261 A 
ATOM      8  C   UNL d   1       0.708   1.007  -0.286  0.00  0.00     0.046 A 
ATOM      9  C   UNL d   1       1.879  -1.037   0.350  0.00  0.00     0.016 A 
ATOM     10  C   UNL d   1      -2.520  -1.237   1.147  0.00  0.00     0.252 A 
ATOM     11  C   UNL d   1      -3.217   1.178   1.499  0.00  0.00     0.050 C 
ATOM     12  O   UNL d   1      -1.083   2.567  -0.634  0.00  0.00    -0.267 OA
ATOM     13  C   UNL d   1       1.881   1.728  -0.378  0.00  0.00     0.018 A 
ATOM     14  C   UNL d   1       3.072  -0.323   0.255  0.00  0.00     0.001 A 
ATOM     15  O   UNL d   1      -3.361  -1.875   1.772  0.00  0.00    -0.270 OA
ATOM     16  C   UNL d   1       3.072   1.049  -0.083  0.00  0.00     0.001 A 
ENDROOT
BRANCH   6  17
ATOM     17  C   UNL d   1      -3.789   0.001  -0.727  0.00  0.00     0.015 C 
ATOM     18  C   UNL d   1      -3.300  -0.969  -1.815  0.00  0.00     0.012 C 
ATOM     19  C   UNL d   1      -5.193  -0.434  -0.278  0.00  0.00     0.012 C 
ENDBRANCH   6  17
TORSDOF 1
