REMARK  6 active torsions:
REMARK  status: ('A' for Active; 'I' for Inactive)
REMARK    1  A    between atoms: C_2  and  C_1 
REMARK    2  A    between atoms: C_3  and  O_13 
REMARK    3  A    between atoms: C_12  and  C_6 
REMARK    4  A    between atoms: N_17  and  N_9 
REMARK    5  A    between atoms: O_13  and  C_21 
REMARK    6  A    between atoms: C_23  and  N_17 
ROOT
ATOM      1  N   UNL d   1      -0.116   4.034  -4.943  0.00  0.00    -0.309 N 
ATOM      2  HN  UNL d   1       0.139   4.650  -4.171  1.00  0.00     0.186 HD
ATOM      3  C   UNL d   1      -0.243   2.759  -4.778  0.00  0.00     0.138 C 
ENDROOT
BRANCH   1   4
ATOM      4  N   UNL d   1      -0.337   4.517  -6.191  0.00  0.00    -0.301 N 
ATOM      5  H   UNL d   1      -1.084   4.117  -6.756  0.00  0.00     0.187 HD
BRANCH   4   6
ATOM      6  C   UNL d   1      -0.165   5.909  -6.366  0.00  0.00     0.048 A 
ATOM      7  C   UNL d   1       0.469   6.699  -5.397  0.00  0.00     0.034 A 
ATOM      8  C   UNL d   1       0.707   8.056  -5.612  0.00  0.00     0.039 A 
ATOM      9  C   UNL d   1       0.358   8.653  -6.822  0.00  0.00     0.078 A 
ATOM     10  C   UNL d   1      -0.282   7.886  -7.796  0.00  0.00     0.039 A 
ATOM     11  C   UNL d   1      -0.517   6.518  -7.576  0.00  0.00     0.034 A 
BRANCH   9  12
ATOM     12  O   UNL d   1       0.630   9.982  -6.899  0.00  0.00    -0.255 OA
BRANCH  12  13
ATOM     13  C   UNL d   1       1.013  10.544  -8.144  0.00  0.00     0.530 C 
ATOM     14  F   UNL d   1       1.161   9.648  -9.142  0.00  0.00    -0.144 F 
ATOM     15  F   UNL d   1       0.091  11.459  -8.517  0.00  0.00    -0.144 F 
ATOM     16  F   UNL d   1       2.194  11.183  -7.982  0.00  0.00    -0.144 F 
ENDBRANCH  12  13
ENDBRANCH   9  12
ENDBRANCH   4   6
ENDBRANCH   1   4
BRANCH   3  17
ATOM     17  C   UNL d   1       0.038   2.111  -3.476  0.00  0.00     0.071 A 
ATOM     18  N   UNL d   1       0.344   0.787  -3.605  0.00  0.00    -0.363 N 
ATOM     19  C   UNL d   1       0.727   0.128  -2.488  0.00  0.00     0.104 A 
ATOM     20  HN  UNL d   1       0.287   0.315  -4.507  1.00  0.00     0.165 HD
ATOM     21  C   UNL d   1       0.805   0.713  -1.232  0.00  0.00     0.065 A 
ATOM     22  C   UNL d   1       0.450   2.061  -1.123  0.00  0.00     0.043 A 
ATOM     23  C   UNL d   1       0.057   2.781  -2.253  0.00  0.00     0.062 A 
ATOM     24 CL   UNL d   1      -0.414   4.420  -2.004  0.00  0.00    -0.082 Cl
BRANCH  21  25
ATOM     25  C   UNL d   1       1.257  -0.096  -0.055  0.00  0.00     0.418 C 
ATOM     26  F   UNL d   1       1.274   0.609   1.109  0.00  0.00    -0.166 F 
ATOM     27  F   UNL d   1       2.516  -0.586  -0.215  0.00  0.00    -0.166 F 
ATOM     28  F   UNL d   1       0.459  -1.174   0.170  0.00  0.00    -0.166 F 
ENDBRANCH  21  25
ENDBRANCH   3  17
TORSDOF 6
