REMARK  10 active torsions:
REMARK  status: ('A' for Active; 'I' for Inactive)
REMARK    1  A    between atoms: N_7  and  C_1 
REMARK    2  A    between atoms: O_21  and  C_5 
REMARK    3  A    between atoms: C_6  and  C_13 
REMARK       I    between atoms: C_10  and  N_7 
REMARK    4  A    between atoms: O_22  and  C_8 
REMARK    5  A    between atoms: O_23  and  C_9 
REMARK    6  A    between atoms: C_17  and  C_10 
REMARK    7  A    between atoms: C_13  and  C_17 
REMARK    8  A    between atoms: C_18  and  C_13 
REMARK    9  A    between atoms: C_16  and  C_18 
REMARK   10  A    between atoms: O_24  and  C_16 
ROOT
ATOM      1  C   UNL d   1       0.068  -2.884   0.427  0.00  0.00     0.037 C 
ENDROOT
BRANCH   1   2
ATOM      2  C   UNL d   1       0.087  -1.945   1.638  0.00  0.00    -0.048 C 
ATOM      3  C   UNL d   1      -0.997  -1.823   2.514  0.00  0.00     0.047 C 
ATOM      4  C   UNL d   1      -1.089  -0.811   3.482  0.00  0.00     0.104 C 
ATOM      5  C   UNL d   1      -0.013   0.064   3.647  0.00  0.00     0.135 C 
ATOM      6  C   UNL d   1       1.163  -0.146   2.898  0.00  0.00     0.104 C 
ATOM      7  C   UNL d   1       1.179  -1.094   1.862  0.00  0.00     0.047 C 
BRANCH   4   8
ATOM      8  O   UNL d   1      -2.293  -0.839   4.136  0.00  0.00    -0.353 OA
ATOM      9  C   UNL d   1      -2.668   0.272   4.933  0.00  0.00     0.210 C 
ENDBRANCH   4   8
BRANCH   5  10
ATOM     10  O   UNL d   1      -0.085   1.055   4.593  0.00  0.00    -0.351 OA
ATOM     11  C   UNL d   1       0.191   2.360   4.079  0.00  0.00     0.210 C 
ENDBRANCH   5  10
BRANCH   6  12
ATOM     12  O   UNL d   1       2.248   0.640   3.207  0.00  0.00    -0.353 OA
ATOM     13  C   UNL d   1       3.529   0.101   2.907  0.00  0.00     0.210 C 
ENDBRANCH   6  12
ENDBRANCH   1   2
BRANCH   1  14
ATOM     14  C   UNL d   1      -1.240  -3.695   0.195  0.00  0.00     0.113 C 
BRANCH  14  15
ATOM     15  C   UNL d   1      -2.367  -2.813  -0.328  0.00  0.00     0.223 C 
ATOM     16  N   UNL d   1      -3.603  -2.750   0.236  0.00  0.00    -0.312 N 
ATOM     17  H   UNL d   1      -4.189  -2.045  -0.195  0.00  0.00     0.170 HD
ATOM     18  O   UNL d   1      -2.168  -2.095  -1.318  0.00  0.00    -0.273 OA
BRANCH  16  19
ATOM     19  C   UNL d   1      -4.116  -3.354   1.363  0.00  0.00     0.130 A 
ATOM     20  N   UNL d   1      -3.572  -4.369   2.039  0.00  0.00    -0.245 N 
ATOM     21  O   UNL d   1      -4.331  -4.533   3.179  0.00  0.00    -0.241 OA
ATOM     22  HN  UNL d   1      -2.755  -4.915   1.767  1.00  0.00     0.196 HD
ATOM     23  C   UNL d   1      -5.353  -3.640   3.169  0.00  0.00     0.076 A 
ATOM     24  C   UNL d   1      -5.306  -2.923   2.000  0.00  0.00     0.084 A 
ATOM     25  C   UNL d   1      -6.215  -3.612   4.363  0.00  0.00     0.079 C 
ENDBRANCH  16  19
ENDBRANCH  14  15
ENDBRANCH   1  14
BRANCH   1  26
ATOM     26  C   UNL d   1       1.296  -3.812   0.359  0.00  0.00     0.119 C 
BRANCH  26  27
ATOM     27  C   UNL d   1       1.354  -4.841   1.457  0.00  0.00     0.140 C 
ATOM     28  O   UNL d   1       0.779  -5.916   1.405  0.00  0.00    -0.650 OA
BRANCH  27  29
ATOM     29  O   UNL d   1       2.121  -4.481   2.509  0.00  0.00    -0.776 OA
ATOM     30  H   UNL d   1       2.478  -3.576   2.454  0.00  0.00     0.167 HD
ENDBRANCH  27  29
ENDBRANCH  26  27
ENDBRANCH   1  26
TORSDOF 10
