REMARK  3 active torsions:
REMARK  status: ('A' for Active; 'I' for Inactive)
REMARK    1  A    between atoms: C_3  and  C_1 
REMARK    2  A    between atoms: C_7  and  C_2 
REMARK    3  A    between atoms: C_10  and  C_15 
ROOT
ATOM      1  C   UNL d   1       5.619   0.836   0.741  0.00  0.00     0.088 A 
ATOM      2  C   UNL d   1       3.634   0.173  -0.045  0.00  0.00     0.057 A 
ATOM      3  N   UNL d   1       4.322   1.068   0.756  0.00  0.00    -0.348 N 
ATOM      4  HN  UNL d   1       3.879   1.816   1.290  1.00  0.00     0.166 HD
ATOM      5  S   UNL d   1       6.082  -0.482  -0.269  0.00  0.00    -0.081 SA
ATOM      6  C   UNL d   1       4.454  -0.677  -0.761  0.00  0.00     0.082 A 
ENDROOT
BRANCH   1   7
ATOM      7  C   UNL d   1       6.594   1.547   1.592  0.00  0.00     0.041 A 
ATOM      8  C   UNL d   1       6.309   1.764   2.960  0.00  0.00     0.049 A 
ATOM      9  C   UNL d   1       7.191   2.473   3.791  0.00  0.00     0.041 A 
ATOM     10 CL   UNL d   1       4.889   1.146   3.745  0.00  0.00    -0.083 Cl
ATOM     11  C   UNL d   1       8.399   2.971   3.297  0.00  0.00     0.051 A 
ATOM     12  C   UNL d   1       8.700   2.759   1.949  0.00  0.00     0.041 A 
ATOM     13  C   UNL d   1       7.806   2.079   1.103  0.00  0.00     0.049 A 
ATOM     14 CL   UNL d   1       8.286   2.006  -0.560  0.00  0.00    -0.083 Cl
BRANCH  11  15
ATOM     15  C   UNL d   1       9.333   3.732   4.208  0.00  0.00     0.417 C 
ATOM     16  F   UNL d   1      10.511   4.068   3.616  0.00  0.00    -0.166 F 
ATOM     17  F   UNL d   1       8.786   4.897   4.649  0.00  0.00    -0.166 F 
ATOM     18  F   UNL d   1       9.661   3.023   5.322  0.00  0.00    -0.166 F 
ENDBRANCH  11  15
ENDBRANCH   1   7
BRANCH   2  19
ATOM     19  C   UNL d   1       2.121   0.116  -0.084  0.00  0.00     0.039 A 
ATOM     20  S   UNL d   1       1.289  -0.962  -1.124  0.00  0.00    -0.087 SA
ATOM     21  C   UNL d   1      -0.249  -0.526  -0.516  0.00  0.00     0.016 A 
ATOM     22  C   UNL d   1      -1.496  -1.060  -0.900  0.00  0.00     0.019 A 
ATOM     23  C   UNL d   1      -0.140   0.465   0.463  0.00  0.00    -0.012 A 
ATOM     24  C   UNL d   1      -2.655  -0.589  -0.287  0.00  0.00     0.001 A 
ATOM     25  C   UNL d   1      -2.585   0.396   0.688  0.00  0.00     0.001 A 
ATOM     26  C   UNL d   1      -1.345   0.922   1.061  0.00  0.00     0.013 A 
ATOM     27  C   UNL d   1       1.243   0.851   0.703  0.00  0.00    -0.031 A 
ATOM     28  C   UNL d   1       1.579   1.886   1.735  0.00  0.00     0.050 C 
ENDBRANCH   2  19
TORSDOF 3
