REMARK  10 active torsions:
REMARK  status: ('A' for Active; 'I' for Inactive)
REMARK    1  A    between atoms: C_8  and  N_1 
REMARK    2  A    between atoms: C_23  and  C_8 
REMARK    3  A    between atoms: S_14  and  C_10 
REMARK    4  A    between atoms: O_26  and  C_13 
REMARK    5  A    between atoms: C_20  and  S_14 
REMARK    6  A    between atoms: C_15  and  C_20 
REMARK    7  A    between atoms: O_27  and  C_15 
REMARK    8  A    between atoms: O_28  and  C_16 
REMARK    9  A    between atoms: C_22  and  C_23 
REMARK   10  A    between atoms: C_31  and  O_27 
ROOT
ATOM      1  N   UNL d   1       2.248  -0.085   0.113  0.00  0.00    -0.280 N 
ATOM      2  C   UNL d   1       1.607   1.144  -0.005  0.00  0.00     0.261 C 
ATOM      3  C   UNL d   1       1.594  -1.311   0.025  0.00  0.00     0.261 C 
ATOM      4  C   UNL d   1       0.126   1.141  -0.000  0.00  0.00     0.044 A 
ATOM      5  C   UNL d   1      -0.582  -0.065   0.027  0.00  0.00     0.007 A 
ATOM      6  C   UNL d   1       0.108  -1.287   0.034  0.00  0.00     0.044 A 
ATOM      7  C   UNL d   1      -2.012  -0.052   0.029  0.00  0.00    -0.007 A 
ATOM      8  C   UNL d   1      -0.548   2.363  -0.026  0.00  0.00     0.019 A 
ATOM      9  C   UNL d   1      -2.683   1.206   0.004  0.00  0.00     0.012 A 
ATOM     10  O   UNL d   1       2.170  -2.391  -0.066  0.00  0.00    -0.267 OA
ATOM     11  O   UNL d   1       2.205   2.212  -0.111  0.00  0.00    -0.267 OA
ATOM     12  C   UNL d   1      -1.934   2.394  -0.028  0.00  0.00     0.020 A 
ATOM     13  C   UNL d   1      -0.584  -2.501   0.047  0.00  0.00     0.018 A 
ATOM     14  C   UNL d   1      -2.673  -1.301   0.025  0.00  0.00     0.014 A 
ATOM     15  C   UNL d   1      -1.972  -2.509   0.048  0.00  0.00     0.002 A 
ENDROOT
BRANCH   1  16
ATOM     16  C   UNL d   1       3.715  -0.074   0.203  0.00  0.00     0.140 C 
BRANCH  16  17
ATOM     17  C   UNL d   1       4.194   0.503   1.545  0.00  0.00     0.059 C 
BRANCH  17  18
ATOM     18  C   UNL d   1       5.696   0.597   1.659  0.00  0.00    -0.054 A 
ATOM     19  C   UNL d   1       6.375   1.709   1.131  0.00  0.00     0.046 A 
ATOM     20  C   UNL d   1       7.768   1.845   1.258  0.00  0.00     0.102 A 
ATOM     21  C   UNL d   1       8.484   0.851   1.945  0.00  0.00     0.101 A 
ATOM     22  C   UNL d   1       7.810  -0.275   2.438  0.00  0.00     0.040 A 
ATOM     23  C   UNL d   1       6.428  -0.403   2.300  0.00  0.00     0.010 A 
BRANCH  20  24
ATOM     24  O   UNL d   1       8.476   2.889   0.723  0.00  0.00    -0.353 OA
ATOM     25  C   UNL d   1       7.760   3.883   0.004  0.00  0.00     0.210 C 
ENDBRANCH  20  24
BRANCH  21  26
ATOM     26  O   UNL d   1       9.838   0.811   2.165  0.00  0.00    -0.353 OA
ATOM     27  C   UNL d   1      10.478   2.062   2.393  0.00  0.00     0.210 C 
ENDBRANCH  21  26
ENDBRANCH  17  18
ENDBRANCH  16  17
ENDBRANCH   1  16
BRANCH   9  28
ATOM     28  S   UNL d   1      -4.461   1.458  -0.135  0.00  0.00    -0.119 SA
BRANCH  28  29
ATOM     29  C   UNL d   1      -5.115   0.825   1.440  0.00  0.00     0.190 C 
BRANCH  29  30
ATOM     30  C   UNL d   1      -4.472   1.377   2.692  0.00  0.00     0.268 C 
ATOM     31  O   UNL d   1      -3.570   2.195   2.773  0.00  0.00    -0.264 OA
BRANCH  30  32
ATOM     32  O   UNL d   1      -5.031   0.722   3.759  0.00  0.00    -0.321 OA
BRANCH  32  33
ATOM     33  C   UNL d   1      -4.265   0.737   4.970  0.00  0.00     0.174 C 
ATOM     34  C   UNL d   1      -3.304  -0.438   4.919  0.00  0.00     0.034 C 
ENDBRANCH  32  33
ENDBRANCH  30  32
ENDBRANCH  29  30
ENDBRANCH  28  29
ENDBRANCH   9  28
TORSDOF 10
