REMARK  3 active torsions:
REMARK  status: ('A' for Active; 'I' for Inactive)
REMARK    1  A    between atoms: C_10  and  C_3 
REMARK    2  A    between atoms: C_11  and  C_7 
REMARK    3  A    between atoms: C_8  and  C_10 
ROOT
ATOM      1  N   UNL d   1       1.308  -1.145  -0.050  0.00  0.00    -0.297 N 
ATOM      2  HN  UNL d   1       1.863  -2.001  -0.038  1.00  0.00     0.187 HD
ATOM      3  C   UNL d   1      -0.233   1.238  -0.067  0.00  0.00     0.018 A 
ATOM      4  N   UNL d   1      -0.055  -1.176  -0.132  0.00  0.00    -0.266 N 
ATOM      5  C   UNL d   1      -0.889  -0.086  -0.189  0.00  0.00     0.266 A 
ATOM      6  C   UNL d   1       1.100   1.294   0.052  0.00  0.00     0.045 A 
ATOM      7  C   UNL d   1       1.865   0.027   0.011  0.00  0.00     0.059 A 
ATOM      8  O   UNL d   1      -2.105  -0.199  -0.304  0.00  0.00    -0.266 OA
ATOM      9  H   UNL d   1      -0.483  -2.092  -0.202  0.00  0.00     0.190 HD
ENDROOT
BRANCH   7  10
ATOM     10  C   UNL d   1       3.353   0.134   0.082  0.00  0.00    -0.008 A 
ATOM     11  C   UNL d   1       4.079  -0.909   0.680  0.00  0.00     0.017 A 
ATOM     12  C   UNL d   1       5.470  -0.827   0.784  0.00  0.00     0.043 A 
ATOM     13  C   UNL d   1       6.130   0.291   0.290  0.00  0.00     0.116 A 
ATOM     14  C   UNL d   1       5.431   1.322  -0.323  0.00  0.00     0.043 A 
ATOM     15  F   UNL d   1       7.463   0.373   0.400  0.00  0.00    -0.206 F 
ATOM     16  C   UNL d   1       4.041   1.243  -0.436  0.00  0.00     0.017 A 
ENDBRANCH   7  10
BRANCH   3  17
ATOM     17  C   UNL d   1      -1.107   2.461  -0.033  0.00  0.00     0.090 C 
BRANCH  17  18
ATOM     18  C   UNL d   1      -1.354   3.082  -1.380  0.00  0.00    -0.013 A 
ATOM     19  S   UNL d   1      -0.272   4.256  -2.005  0.00  0.00    -0.106 SA
ATOM     20  C   UNL d   1      -1.158   4.389  -3.461  0.00  0.00     0.050 A 
ATOM     21  C   UNL d   1      -2.267   3.574  -3.466  0.00  0.00     0.008 A 
ATOM     22  C   UNL d   1      -2.386   2.824  -2.260  0.00  0.00     0.015 A 
ENDBRANCH  17  18
ENDBRANCH   3  17
TORSDOF 3
