REMARK  3 active torsions:
REMARK  status: ('A' for Active; 'I' for Inactive)
REMARK    1  A    between atoms: C_8  and  C_1 
REMARK    2  A    between atoms: C_11  and  N_6 
REMARK    3  A    between atoms: C_9  and  C_11 
ROOT
ATOM      1  C   UNL d   1      -0.132  -1.293   0.084  0.00  0.00     0.146 A 
ATOM      2  N   UNL d   1       1.125  -0.836   0.238  0.00  0.00    -0.268 N 
ATOM      3  HN  UNL d   1       1.984  -1.345   0.445  1.00  0.00     0.190 HD
ATOM      4  N   UNL d   1      -1.032  -0.279  -0.136  0.00  0.00    -0.266 N 
ATOM      5  HN  UNL d   1      -2.042  -0.377  -0.243  1.00  0.00     0.186 HD
ATOM      6  N   UNL d   1       0.929   0.485   0.042  0.00  0.00    -0.212 N 
ATOM      7  N   UNL d   1      -0.342   0.850  -0.184  0.00  0.00    -0.002 NA
ENDROOT
BRANCH   6   8
ATOM      8  C   UNL d   1       2.025   1.435  -0.041  0.00  0.00     0.209 C 
BRANCH   8   9
ATOM      9  C   UNL d   1       2.338   2.035   1.310  0.00  0.00     0.006 A 
ATOM     10  C   UNL d   1       3.271   1.435   2.178  0.00  0.00     0.043 A 
ATOM     11 CL   UNL d   1       4.210   0.058   1.715  0.00  0.00    -0.084 Cl
ATOM     12  C   UNL d   1       3.496   1.943   3.462  0.00  0.00     0.024 A 
ATOM     13  C   UNL d   1       2.798   3.060   3.909  0.00  0.00     0.003 A 
ATOM     14  C   UNL d   1       1.889   3.684   3.061  0.00  0.00     0.024 A 
ATOM     15  C   UNL d   1       1.662   3.180   1.775  0.00  0.00     0.043 A 
ATOM     16 CL   UNL d   1       0.533   4.047   0.793  0.00  0.00    -0.084 Cl
ENDBRANCH   8   9
ENDBRANCH   6   8
BRANCH   1  17
ATOM     17  C   UNL d   1      -0.504  -2.701   0.177  0.00  0.00     0.034 A 
ATOM     18  C   UNL d   1      -1.532  -3.279  -0.596  0.00  0.00     0.069 A 
ATOM     19  C   UNL d   1      -1.840  -4.641  -0.428  0.00  0.00     0.056 A 
ATOM     20 CL   UNL d   1      -2.380  -2.360  -1.806  0.00  0.00    -0.082 Cl
ATOM     21 CL   UNL d   1      -3.091  -5.433  -1.331  0.00  0.00    -0.083 Cl
ATOM     22  C   UNL d   1      -1.133  -5.427   0.484  0.00  0.00     0.026 A 
ATOM     23  C   UNL d   1      -0.106  -4.867   1.239  0.00  0.00     0.003 A 
ATOM     24  C   UNL d   1       0.203  -3.515   1.085  0.00  0.00     0.017 A 
ENDBRANCH   1  17
TORSDOF 3
