REMARK  5 active torsions:
REMARK  status: ('A' for Active; 'I' for Inactive)
REMARK    1  A    between atoms: C_7  and  CA_3 
REMARK    2  A    between atoms: C_9  and  C_5 
REMARK    3  A    between atoms: O_8  and  C_7 
REMARK    4  A    between atoms: C_10  and  C_9 
REMARK    5  A    between atoms: C_11  and  C_10 
ROOT
ATOM      1  N   UNL d   1      -0.614   0.098  -0.887  0.00  0.00    -0.346 N 
ATOM      2  HN  UNL d   1      -1.139   0.233  -1.751  1.00  0.00     0.167 HD
ATOM      3  CA  UNL d   1      -0.043  -1.076  -0.434  0.00  0.00     0.049 A 
ATOM      4  N   UNL d   1       0.396   0.461   1.048  0.00  0.00    -0.354 N 
ATOM      5  C   UNL d   1      -0.341   1.008   0.027  0.00  0.00     0.081 A 
ATOM      6  C   UNL d   1       0.591  -0.861   0.769  0.00  0.00     0.116 A 
ATOM      7  H   UNL d   1       0.734   0.958   1.862  0.00  0.00     0.166 HD
ENDROOT
BRANCH   5   8
ATOM      8  C   UNL d   1      -0.740   2.446   0.010  0.00  0.00     0.076 C 
BRANCH   8   9
ATOM      9  C   UNL d   1      -2.261   2.601   0.027  0.00  0.00     0.007 C 
BRANCH   9  10
ATOM     10  C   UNL d   1      -2.675   4.073   0.027  0.00  0.00    -0.004 C 
ATOM     11  C   UNL d   1      -4.189   4.222   0.027  0.00  0.00     0.005 C 
ENDBRANCH   9  10
ENDBRANCH   8   9
ENDBRANCH   5   8
BRANCH   3  12
ATOM     12  C   UNL d   1      -0.169  -2.330  -1.230  0.00  0.00     0.222 C 
BRANCH  12  13
ATOM     13  O   UNL d   1      -0.336  -2.056  -2.620  0.00  0.00    -0.395 OA
ATOM     14  H   UNL d   1      -0.720  -1.156  -2.641  0.00  0.00     0.209 HD
ENDBRANCH  12  13
ENDBRANCH   3  12
TORSDOF 5
