REMARK  2 active torsions:
REMARK  status: ('A' for Active; 'I' for Inactive)
REMARK    1  A    between atoms: C_9  and  C_3 
REMARK    2  A    between atoms: C_7  and  C_4 
ROOT
ATOM      1  N   UNL d   1       1.291   0.168   0.000  0.00  0.00    -0.317 N 
ATOM      2  HN  UNL d   1       2.302   0.298  -0.014  1.00  0.00     0.169 HD
ATOM      3  C   UNL d   1       0.300   1.131   0.052  0.00  0.00     0.156 A 
ATOM      4  C   UNL d   1       0.610  -0.955  -0.025  0.00  0.00     0.184 A 
ATOM      5  N   UNL d   1      -0.943   0.618   0.102  0.00  0.00    -0.241 N 
ATOM      6  HN  UNL d   1      -1.830   1.120   0.154  1.00  0.00     0.196 HD
ATOM      7  O   UNL d   1      -0.737  -0.758   0.065  0.00  0.00    -0.217 OA
ENDROOT
BRANCH   3   8
ATOM      8  C   UNL d   1       0.585   2.564   0.055  0.00  0.00     0.094 A 
ATOM      9  N   UNL d   1       1.889   2.953   0.022  0.00  0.00    -0.360 N 
ATOM     10  C   UNL d   1       2.109   4.289   0.025  0.00  0.00     0.105 A 
ATOM     11  HN  UNL d   1       2.655   2.279  -0.004  1.00  0.00     0.165 HD
ATOM     12  C   UNL d   1       1.080   5.212   0.062  0.00  0.00     0.104 A 
ATOM     13  N   UNL d   1      -0.220   4.845   0.094  0.00  0.00    -0.372 N 
ATOM     14  C   UNL d   1      -0.442   3.503   0.088  0.00  0.00     0.121 A 
ATOM     15  HN  UNL d   1      -0.980   5.524   0.121  1.00  0.00     0.164 HD
ENDBRANCH   3   8
BRANCH   4  16
ATOM     16  C   UNL d   1       1.101  -2.328  -0.051  0.00  0.00     0.039 A 
ATOM     17  C   UNL d   1       0.426  -3.401  -0.663  0.00  0.00     0.051 A 
ATOM     18  C   UNL d   1       0.981  -4.686  -0.659  0.00  0.00     0.067 A 
ATOM     19 CL   UNL d   1      -1.076  -3.220  -1.505  0.00  0.00    -0.083 Cl
ATOM     20  C   UNL d   1       2.209  -4.906  -0.051  0.00  0.00     0.118 A 
ATOM     21  C   UNL d   1       2.900  -3.868   0.555  0.00  0.00     0.043 A 
ATOM     22  F   UNL d   1       2.738  -6.136  -0.060  0.00  0.00    -0.206 F 
ATOM     23  C   UNL d   1       2.350  -2.584   0.552  0.00  0.00     0.020 A 
ENDBRANCH   4  16
TORSDOF 2
