REMARK  6 active torsions:
REMARK  status: ('A' for Active; 'I' for Inactive)
REMARK    1  A    between atoms: C_2  and  C_1 
REMARK    2  A    between atoms: C_10  and  C_18 
REMARK    3  A    between atoms: O_20  and  C_10 
REMARK    4  A    between atoms: O_17  and  C_16 
REMARK    5  A    between atoms: C_18  and  O_17 
REMARK    6  A    between atoms: C_21  and  O_20 
ROOT
ATOM      1  C   UNL d   1      -0.497  -1.788  -0.053  0.00  0.00     0.066 A 
ATOM      2  C   UNL d   1       0.349   0.529  -0.104  0.00  0.00     0.093 A 
ATOM      3  C   UNL d   1       0.629  -0.842  -0.029  0.00  0.00     0.013 A 
ATOM      4  O   UNL d   1      -0.975   1.013  -0.143  0.00  0.00    -0.275 OA
ATOM      5  C   UNL d   1      -2.052   0.152  -0.092  0.00  0.00     0.289 A 
ATOM      6  C   UNL d   1      -1.743  -1.281  -0.076  0.00  0.00     0.099 A 
ATOM      7  C   UNL d   1       1.343   1.513  -0.122  0.00  0.00     0.075 A 
ATOM      8  C   UNL d   1       1.979  -1.196   0.069  0.00  0.00     0.018 A 
ATOM      9  O   UNL d   1      -3.212   0.543  -0.077  0.00  0.00    -0.260 OA
ATOM     10  C   UNL d   1       2.675   1.131  -0.051  0.00  0.00     0.072 A 
ATOM     11  C   UNL d   1       2.985  -0.223   0.066  0.00  0.00     0.038 A 
ENDROOT
BRANCH  10  12
ATOM     12  O   UNL d   1       3.749   1.968  -0.022  0.00  0.00    -0.341 OA
BRANCH  12  13
ATOM     13  C   UNL d   1       3.598   3.225  -0.671  0.00  0.00     0.286 C 
BRANCH  13  14
ATOM     14  C   UNL d   1       4.854   4.053  -0.460  0.00  0.00     0.283 C 
ATOM     15  O   UNL d   1       5.840   3.716   0.180  0.00  0.00    -0.263 OA
BRANCH  14  16
ATOM     16  O   UNL d   1       4.671   5.283  -1.028  0.00  0.00    -0.320 OA
BRANCH  16  17
ATOM     17  C   UNL d   1       5.587   6.296  -0.590  0.00  0.00     0.174 C 
ATOM     18  C   UNL d   1       5.005   6.949   0.652  0.00  0.00     0.034 C 
ENDBRANCH  16  17
ENDBRANCH  14  16
ENDBRANCH  13  14
ENDBRANCH  12  13
ENDBRANCH  10  12
BRANCH   1  19
ATOM     19  C   UNL d   1      -0.347  -3.282  -0.074  0.00  0.00     0.418 C 
ATOM     20  F   UNL d   1       0.923  -3.745  -0.122  0.00  0.00    -0.166 F 
ATOM     21  F   UNL d   1      -0.920  -3.843   1.024  0.00  0.00    -0.166 F 
ATOM     22  F   UNL d   1      -0.982  -3.813  -1.153  0.00  0.00    -0.166 F 
ENDBRANCH   1  19
TORSDOF 6
