REMARK  5 active torsions:
REMARK  status: ('A' for Active; 'I' for Inactive)
REMARK    1  A    between atoms: C_6  and  C_1 
REMARK    2  A    between atoms: N_3  and  C_2 
REMARK    3  A    between atoms: O_12  and  C_6 
REMARK    4  A    between atoms: O_13  and  C_7 
REMARK    5  A    between atoms: O_14  and  C_8 
ROOT
ATOM      1  C   UNL d   1       1.382  -0.316   0.074  0.00  0.00     0.075 A 
ATOM      2  C   UNL d   1       0.506  -1.392  -0.027  0.00  0.00     0.122 A 
ATOM      3  C   UNL d   1      -0.888  -1.210  -0.070  0.00  0.00     0.076 A 
ATOM      4  C   UNL d   1       0.834   0.972   0.128  0.00  0.00     0.059 A 
ATOM      5  C   UNL d   1      -1.430   0.080  -0.014  0.00  0.00     0.103 A 
ATOM      6  C   UNL d   1      -0.556   1.176   0.105  0.00  0.00     0.102 A 
ENDROOT
BRANCH   1   7
ATOM      7  C   UNL d   1       2.855  -0.416   0.119  0.00  0.00     0.295 C 
ATOM      8  O   UNL d   1       3.585   0.462  -0.311  0.00  0.00    -0.259 OA
BRANCH   7   9
ATOM      9  O   UNL d   1       3.247  -1.522   0.788  0.00  0.00    -0.322 OA
ATOM     10  C   UNL d   1       4.664  -1.679   0.926  0.00  0.00     0.213 C 
ENDBRANCH   7   9
ENDBRANCH   1   7
BRANCH   2  11
ATOM     11  N   UNL d   1       0.998  -2.744  -0.182  0.00  0.00    -0.115 N 
ATOM     12  O   UNL d   1       1.643  -2.991  -1.207  0.00  0.00    -0.532 OA
ATOM     13  O   UNL d   1       0.668  -3.562   0.689  0.00  0.00    -0.532 OA
ENDBRANCH   2  11
BRANCH   6  14
ATOM     14  O   UNL d   1      -0.894   2.505   0.141  0.00  0.00    -0.353 OA
ATOM     15  C   UNL d   1      -2.126   2.845   0.763  0.00  0.00     0.210 C 
ENDBRANCH   6  14
BRANCH   5  16
ATOM     16  O   UNL d   1      -2.768   0.341  -0.113  0.00  0.00    -0.353 OA
ATOM     17  C   UNL d   1      -3.663  -0.746  -0.307  0.00  0.00     0.210 C 
ENDBRANCH   5  16
TORSDOF 5
