REMARK  6 active torsions:
REMARK  status: ('A' for Active; 'I' for Inactive)
REMARK    1  A    between atoms: N_3  and  C_1 
REMARK    2  A    between atoms: O_7  and  C_2 
REMARK    3  A    between atoms: C_4  and  O_7 
REMARK    4  A    between atoms: C_5  and  C_4 
REMARK    5  A    between atoms: C_14  and  C_6 
REMARK    6  A    between atoms: C_16  and  C_9 
ROOT
ATOM      1  C   UNL d   1       1.221   0.104  -0.538  0.00  0.00     0.137 C 
ATOM      2  C   UNL d   1       0.552  -1.106  -0.292  0.00  0.00     0.119 C 
ATOM      3  C   UNL d   1      -0.854  -1.115  -0.166  0.00  0.00    -0.013 C 
ATOM      4  C   UNL d   1       0.551   1.331  -0.546  0.00  0.00     0.047 C 
ATOM      5  C   UNL d   1      -0.805   1.385  -0.212  0.00  0.00    -0.048 C 
ATOM      6  C   UNL d   1      -1.493   0.160  -0.116  0.00  0.00     0.018 C 
ENDROOT
BRANCH   2   7
ATOM      7  O   UNL d   1       1.263  -2.229   0.209  0.00  0.00    -0.272 OA
BRANCH   7   8
ATOM      8  C   UNL d   1       2.402  -2.785  -0.361  0.00  0.00     0.300 C 
ATOM      9  O   UNL d   1       2.640  -2.818  -1.554  0.00  0.00    -0.259 OA
BRANCH   8  10
ATOM     10  C   UNL d   1       3.387  -3.089   0.729  0.00  0.00     0.061 A 
ATOM     11  C   UNL d   1       3.076  -3.223   2.096  0.00  0.00     0.051 A 
ATOM     12  C   UNL d   1       4.094  -3.209   3.058  0.00  0.00     0.048 A 
ATOM     13 CL   UNL d   1       1.482  -3.448   2.729  0.00  0.00    -0.083 Cl
ATOM     14  C   UNL d   1       5.424  -3.109   2.668  0.00  0.00     0.035 A 
ATOM     15  C   UNL d   1       5.758  -3.071   1.319  0.00  0.00     0.025 A 
ATOM     16 CL   UNL d   1       6.655  -3.019   3.866  0.00  0.00    -0.084 Cl
ATOM     17  C   UNL d   1       4.744  -3.058   0.353  0.00  0.00     0.021 A 
ENDBRANCH   8  10
ENDBRANCH   7   8
ENDBRANCH   2   7
BRANCH   1  18
ATOM     18  N   UNL d   1       2.663   0.192  -0.528  0.00  0.00    -0.113 N 
ATOM     19  O   UNL d   1       3.224   0.066   0.570  0.00  0.00    -0.532 OA
ATOM     20  O   UNL d   1       3.225   0.447  -1.600  0.00  0.00    -0.532 OA
ENDBRANCH   1  18
BRANCH   3  21
ATOM     21  C   UNL d   1      -1.737  -2.375   0.013  0.00  0.00    -0.021 C 
ATOM     22  C   UNL d   1      -1.030  -3.734  -0.174  0.00  0.00     0.019 C 
ATOM     23  C   UNL d   1      -2.364  -2.365   1.425  0.00  0.00     0.019 C 
ATOM     24  C   UNL d   1      -2.878  -2.366  -1.038  0.00  0.00     0.019 C 
ENDBRANCH   3  21
BRANCH   5  25
ATOM     25  C   UNL d   1      -1.426   2.736   0.205  0.00  0.00    -0.024 C 
ATOM     26  C   UNL d   1      -1.418   3.736  -0.964  0.00  0.00     0.019 C 
ATOM     27  C   UNL d   1      -2.876   2.630   0.729  0.00  0.00     0.019 C 
ATOM     28  C   UNL d   1      -0.581   3.315   1.371  0.00  0.00     0.019 C 
ENDBRANCH   5  25
TORSDOF 6
