REMARK  5 active torsions:
REMARK  status: ('A' for Active; 'I' for Inactive)
REMARK    1  A    between atoms: O_4  and  C_1 
REMARK    2  A    between atoms: N_2  and  C_6 
REMARK    3  A    between atoms: N_3  and  N_2 
REMARK    4  A    between atoms: C_8  and  N_3 
REMARK    5  A    between atoms: C_7  and  O_4 
ROOT
ATOM      1  C   UNL d   1       2.429  -2.550   4.130  0.00  0.00     0.027 A 
ATOM      2  C   UNL d   1       0.975  -1.254   2.118  0.00  0.00     0.079 A 
ATOM      3  C   UNL d   1       2.720  -1.226   3.776  0.00  0.00     0.028 A 
ATOM      4  C   UNL d   1       1.417  -3.229   3.439  0.00  0.00     0.028 A 
ATOM      5  C   UNL d   1       0.690  -2.583   2.433  0.00  0.00     0.039 A 
ATOM      6  C   UNL d   1       1.995  -0.574   2.775  0.00  0.00     0.039 A 
ENDROOT
BRANCH   1   7
ATOM      7  N   UNL d   1       3.255  -3.187   5.095  0.00  0.00    -0.206 NA
ATOM      8  H   UNL d   1       4.147  -3.372   4.625  0.00  0.00     0.153 HD
BRANCH   7   9
ATOM      9  N   UNL d   1       2.807  -4.297   5.776  0.00  0.00    -0.317 N 
ATOM     10  H   UNL d   1       1.864  -4.177   6.160  0.00  0.00     0.181 HD
BRANCH   9  11
ATOM     11  C   UNL d   1       3.610  -4.984   6.723  0.00  0.00     0.043 A 
ATOM     12  C   UNL d   1       4.986  -4.763   6.855  0.00  0.00     0.030 A 
ATOM     13  C   UNL d   1       5.752  -5.518   7.750  0.00  0.00     0.002 A 
ATOM     14  C   UNL d   1       5.155  -6.520   8.508  0.00  0.00     0.000 A 
ATOM     15  C   UNL d   1       3.793  -6.774   8.370  0.00  0.00     0.002 A 
ATOM     16  C   UNL d   1       3.030  -6.018   7.476  0.00  0.00     0.030 A 
ENDBRANCH   9  11
ENDBRANCH   7   9
ENDBRANCH   1   7
BRANCH   2  17
ATOM     17  O   UNL d   1       0.254  -0.703   1.039  0.00  0.00    -0.279 OA
BRANCH  17  18
ATOM     18  C   UNL d   1      -0.100   0.645   1.018  0.00  0.00     0.260 C 
ATOM     19  O   UNL d   1       0.102   1.474   1.895  0.00  0.00    -0.265 OA
ATOM     20  C   UNL d   1      -0.758   0.964  -0.293  0.00  0.00     0.126 C 
ENDBRANCH  17  18
ENDBRANCH   2  17
TORSDOF 5
