REMARK  5 active torsions:
REMARK  status: ('A' for Active; 'I' for Inactive)
REMARK    1  A    between atoms: S_11  and  C_3 
REMARK    2  A    between atoms: O_12  and  C_4 
REMARK    3  A    between atoms: C_15  and  C_10 
REMARK    4  A    between atoms: C_13  and  S_11 
REMARK    5  A    between atoms: O_14  and  C_15 
ROOT
ATOM      1  C   UNL d   1       4.110  -3.754   1.032  0.00  0.00    -0.107 C 
ATOM      2  C   UNL d   1       4.727  -4.779   1.143  0.00  0.00     0.013 C 
ATOM      3  C   UNL d   1       3.339  -2.507   0.881  0.00  0.00     0.175 C 
ENDROOT
BRANCH   3   4
ATOM      4  S   UNL d   1       1.826  -2.812  -0.075  0.00  0.00    -0.082 SA
BRANCH   4   5
ATOM      5  C   UNL d   1       1.070  -1.212   0.033  0.00  0.00     0.147 A 
ATOM      6  N   UNL d   1      -0.271  -1.200   0.018  0.00  0.00    -0.318 N 
ATOM      7  C   UNL d   1      -0.827   0.011   0.030  0.00  0.00     0.143 A 
ATOM      8  HN  UNL d   1      -0.825  -2.056  -0.001  1.00  0.00     0.170 HD
ATOM      9  C   UNL d   1      -0.151   1.197   0.048  0.00  0.00     0.083 A 
ATOM     10  C   UNL d   1       1.223   1.087   0.059  0.00  0.00     0.039 A 
ATOM     11  N   UNL d   1       1.852  -0.116   0.048  0.00  0.00    -0.338 N 
ATOM     12  HN  UNL d   1       2.869  -0.186   0.051  1.00  0.00     0.168 HD
BRANCH   7  13
ATOM     13  O   UNL d   1      -2.184  -0.002   0.005  0.00  0.00    -0.346 OA
ATOM     14  H   UNL d   1      -2.353  -0.962  -0.009  0.00  0.00     0.219 HD
ENDBRANCH   7  13
BRANCH  10  15
ATOM     15  C   UNL d   1       2.073   2.336   0.048  0.00  0.00     0.224 C 
BRANCH  15  16
ATOM     16  O   UNL d   1       1.748   3.149   1.178  0.00  0.00    -0.390 OA
ATOM     17  C   UNL d   1       2.520   4.341   1.205  0.00  0.00     0.201 C 
ENDBRANCH  15  16
ENDBRANCH  10  15
ENDBRANCH   4   5
ENDBRANCH   3   4
TORSDOF 5
