REMARK  8 active torsions:
REMARK  status: ('A' for Active; 'I' for Inactive)
REMARK    1  A    between atoms: N_2  and  S_1 
REMARK    2  A    between atoms: C_4  and  S_1 
REMARK    3  A    between atoms: C_3  and  N_2 
REMARK    4  A    between atoms: C_10  and  N_2 
REMARK    5  A    between atoms: C_5  and  C_3 
REMARK    6  A    between atoms: O_18  and  C_5 
REMARK    7  A    between atoms: C_8  and  C_11 
REMARK    8  A    between atoms: C_11  and  C_10 
ROOT
ATOM      1  N   UNL d   1       0.366   1.233   0.625  0.00  0.00    -0.196 NA
ENDROOT
BRANCH   1   2
ATOM      2  S   UNL d   1       1.047  -0.167  -0.163  0.00  0.00     0.244 S 
ATOM      3  O   UNL d   1       0.651  -1.305   0.643  0.00  0.00    -0.206 OA
ATOM      4  O   UNL d   1       2.436   0.093  -0.456  0.00  0.00    -0.206 OA
BRANCH   2   5
ATOM      5  C   UNL d   1       0.208  -0.277  -1.721  0.00  0.00     0.074 A 
ATOM      6  C   UNL d   1       0.298   0.773  -2.636  0.00  0.00     0.025 A 
ATOM      7  C   UNL d   1      -0.374   0.672  -3.858  0.00  0.00     0.008 A 
ATOM      8  C   UNL d   1      -1.118  -0.476  -4.171  0.00  0.00    -0.062 A 
ATOM      9  C   UNL d   1      -1.191  -1.522  -3.243  0.00  0.00     0.008 A 
ATOM     10  C   UNL d   1      -1.848  -0.569  -5.480  0.00  0.00     0.048 C 
ATOM     11  C   UNL d   1      -0.527  -1.428  -2.021  0.00  0.00     0.025 A 
ENDBRANCH   2   5
ENDBRANCH   1   2
BRANCH   1  12
ATOM     12  C   UNL d   1      -1.152   1.137   0.701  0.00  0.00     0.217 C 
BRANCH  12  13
ATOM     13  C   UNL d   1      -1.785   2.472   1.040  0.00  0.00     0.154 C 
ATOM     14  O   UNL d   1      -2.908   2.603   1.500  0.00  0.00    -0.649 OA
BRANCH  13  15
ATOM     15  O   UNL d   1      -0.988   3.526   0.727  0.00  0.00    -0.775 OA
ATOM     16  H   UNL d   1      -0.117   3.198   0.406  0.00  0.00     0.167 HD
ENDBRANCH  13  15
ENDBRANCH  12  13
ENDBRANCH   1  12
BRANCH   1  17
ATOM     17  C   UNL d   1       0.912   1.387   2.050  0.00  0.00     0.113 C 
BRANCH  17  18
ATOM     18  C   UNL d   1       2.421   1.613   2.174  0.00  0.00     0.061 C 
BRANCH  18  19
ATOM     19  C   UNL d   1       2.936   2.832   1.465  0.00  0.00    -0.017 A 
ATOM     20  S   UNL d   1       2.519   4.404   2.004  0.00  0.00    -0.106 SA
ATOM     21  C   UNL d   1       3.507   5.143   0.821  0.00  0.00     0.050 A 
ATOM     22  C   UNL d   1       4.146   4.216   0.029  0.00  0.00     0.008 A 
ATOM     23  C   UNL d   1       3.818   2.883   0.403  0.00  0.00     0.015 A 
ENDBRANCH  18  19
ENDBRANCH  17  18
ENDBRANCH   1  17
TORSDOF 8
