REMARK  2 active torsions:
REMARK  status: ('A' for Active; 'I' for Inactive)
REMARK    1  A    between atoms: C_4  and  C_1 
REMARK    2  A    between atoms: O_9  and  C_4 
ROOT
ATOM      1  C   UNL d   1       0.787  -0.030   0.002  0.00  0.00     0.110 C 
ATOM      2  C   UNL d   1       0.214  -0.803  -0.930  0.00  0.00     0.076 C 
ATOM      3  C   UNL d   1      -1.282  -0.989  -0.991  0.00  0.00     0.242 C 
ATOM      4  N   UNL d   1       0.967  -1.488  -1.904  0.00  0.00    -0.289 NA
ATOM      5  N   UNL d   1      -1.795  -0.291  -2.075  0.00  0.00    -0.258 NA
ATOM      6  O   UNL d   1      -1.855  -1.878  -0.380  0.00  0.00    -0.273 OA
ATOM      7  C   UNL d   1      -0.840  -2.079  -3.551  0.00  0.00     0.029 C 
ATOM      8  C   UNL d   1       0.562  -1.507  -3.322  0.00  0.00     0.093 C 
ATOM      9  C   UNL d   1      -1.969  -1.069  -3.285  0.00  0.00     0.096 C 
ATOM     10  H   UNL d   1       1.051  -2.458  -1.584  0.00  0.00     0.127 HD
ATOM     11  H   UNL d   1      -1.277   0.561  -2.252  0.00  0.00     0.130 HD
ENDROOT
BRANCH   1  12
ATOM     12  C   UNL d   1       0.142   0.808   1.025  0.00  0.00     0.284 C 
ATOM     13  O   UNL d   1       0.747   1.192   2.014  0.00  0.00    -0.260 OA
BRANCH  12  14
ATOM     14  O   UNL d   1      -1.100   1.191   0.656  0.00  0.00    -0.323 OA
ATOM     15  C   UNL d   1      -1.731   2.093   1.565  0.00  0.00     0.213 C 
ENDBRANCH  12  14
ENDBRANCH   1  12
TORSDOF 2
