REMARK  4 active torsions:
REMARK  status: ('A' for Active; 'I' for Inactive)
REMARK    1  A    between atoms: C_3  and  C_1 
REMARK    2  A    between atoms: O_7  and  C_2 
REMARK    3  A    between atoms: C_11  and  O_7 
REMARK    4  A    between atoms: O_18  and  C_12 
ROOT
ATOM      1  C   UNL d   1       0.424   3.726   0.470  0.00  0.00     0.148 A 
ATOM      2  C   UNL d   1      -1.610   2.885   1.407  0.00  0.00     0.053 A 
ATOM      3  N   UNL d   1       0.699   2.551  -0.137  0.00  0.00    -0.347 N 
ATOM      4  HN  UNL d   1       1.555   2.421  -0.676  1.00  0.00     0.167 HD
ATOM      5  C   UNL d   1      -0.691   3.932   1.266  0.00  0.00     0.072 A 
ATOM      6  C   UNL d   1      -0.201   1.559  -0.002  0.00  0.00     0.091 A 
ATOM      7  C   UNL d   1      -1.360   1.678   0.741  0.00  0.00     0.033 A 
ENDROOT
BRANCH   1   8
ATOM      8  O   UNL d   1       1.288   4.807   0.319  0.00  0.00    -0.294 OA
BRANCH   8   9
ATOM      9  C   UNL d   1       2.069   4.851  -0.816  0.00  0.00     0.078 A 
ATOM     10  C   UNL d   1       1.608   4.477  -2.081  0.00  0.00     0.040 A 
ATOM     11  C   UNL d   1       2.461   4.521  -3.187  0.00  0.00     0.039 A 
ATOM     12  C   UNL d   1       3.769   4.977  -3.040  0.00  0.00     0.068 A 
ATOM     13  C   UNL d   1       4.202   5.435  -1.793  0.00  0.00     0.039 A 
ATOM     14  C   UNL d   1       3.357   5.368  -0.680  0.00  0.00     0.040 A 
BRANCH  12  15
ATOM     15  O   UNL d   1       4.684   5.057  -4.054  0.00  0.00    -0.356 OA
ATOM     16  C   UNL d   1       4.545   4.064  -5.068  0.00  0.00     0.210 C 
ENDBRANCH  12  15
ENDBRANCH   8   9
ENDBRANCH   1   8
BRANCH   2  17
ATOM     17  C   UNL d   1      -2.853   3.034   2.240  0.00  0.00     0.417 C 
ATOM     18  F   UNL d   1      -2.950   4.240   2.864  0.00  0.00    -0.166 F 
ATOM     19  F   UNL d   1      -2.932   2.095   3.223  0.00  0.00    -0.166 F 
ATOM     20  F   UNL d   1      -3.989   2.900   1.503  0.00  0.00    -0.166 F 
ENDBRANCH   2  17
TORSDOF 4
