REMARK  7 active torsions:
REMARK  status: ('A' for Active; 'I' for Inactive)
REMARK       I    between atoms: N_10  and  C1_1 
REMARK    1  A    between atoms: O1_2  and  C1_1 
REMARK    2  A    between atoms: C6_4  and  O1_2 
REMARK    3  A    between atoms: CB_8  and  CA_9 
REMARK    4  A    between atoms: CG_12  and  CB_8 
REMARK    5  A    between atoms: CA_9  and  N_10 
REMARK    6  A    between atoms: C_11  and  CA_9 
REMARK    7  A    between atoms: OXT_16  and  C_11 
REMARK       I    between atoms: ND2_15  and  CG_12 
ROOT
ATOM      1  CA  ASN d   1       1.106  -2.347  -0.563  0.00  0.00     0.193 C 
ENDROOT
BRANCH   1   2
ATOM      2  CB  ASN d   1       0.540  -3.619   0.063  0.00  0.00     0.138 C 
BRANCH   2   3
ATOM      3  CG  ASN d   1       1.342  -4.814  -0.386  0.00  0.00     0.217 C 
ATOM      4  OD1 ASN d   1       2.515  -4.734  -0.738  0.00  0.00    -0.274 OA
ATOM      5  ND2 ASN d   1       0.676  -6.001  -0.379  0.00  0.00    -0.370 N 
ATOM      6 1HD2 ASN d   1      -0.335  -6.043  -0.390  0.00  0.00     0.159 HD
ATOM      7 2HD2 ASN d   1       1.167  -6.804  -0.755  0.00  0.00     0.159 HD
ENDBRANCH   2   3
ENDBRANCH   1   2
BRANCH   1   8
ATOM      8  N   ASN d   1       0.402  -1.171  -0.054  0.00  0.00    -0.322 N 
ATOM      9  C1  <1> d   1       1.000   0.056  -0.051  0.00  0.00     0.362 C 
ATOM     10  O2  <1> d   1       2.163   0.250  -0.357  0.00  0.00    -0.238 OA
ATOM     11  H   ASN d   1      -0.608  -1.131  -0.103  0.00  0.00     0.165 HD
BRANCH   9  12
ATOM     12  O1  <1> d   1       0.107   0.987   0.358  0.00  0.00    -0.294 OA
BRANCH  12  13
ATOM     13  C6  <1> d   1       0.524   2.364   0.557  0.00  0.00     0.061 C 
ATOM     14  C7  <1> d   1       0.868   3.033  -0.777  0.00  0.00     0.046 C 
ATOM     15  C8  <1> d   1      -0.697   3.074   1.161  0.00  0.00     0.046 C 
ATOM     16  C9  <1> d   1       1.678   2.468   1.564  0.00  0.00     0.046 C 
ENDBRANCH  12  13
ENDBRANCH   9  12
ENDBRANCH   1   8
BRANCH   1  17
ATOM     17  C   ASN d   1       0.932  -2.419  -2.086  0.00  0.00     0.164 C 
ATOM     18  O   ASN d   1      -0.068  -2.030  -2.675  0.00  0.00    -0.648 OA
BRANCH  17  19
ATOM     19  OXT ASN d   1       1.946  -3.047  -2.733  0.00  0.00    -0.775 OA
ATOM     20  HXT ASN d   1       2.626  -3.438  -2.134  0.00  0.00     0.167 HD
ENDBRANCH  17  19
ENDBRANCH   1  17
TORSDOF 7
