REMARK  3 active torsions:
REMARK  status: ('A' for Active; 'I' for Inactive)
REMARK    1  A    between atoms: C_6  and  N_1 
REMARK    2  A    between atoms: C_7  and  C_4 
REMARK    3  A    between atoms: C_12  and  C_7 
ROOT
ATOM      1  N   UNL d   1       0.141  -1.244  -0.084  0.00  0.00    -0.262 N 
ATOM      2  C   UNL d   1       0.985  -0.152   0.035  0.00  0.00     0.153 A 
ATOM      3  C   UNL d   1      -1.217  -0.974  -0.218  0.00  0.00     0.271 A 
ATOM      4  C   UNL d   1      -1.465   0.492  -0.087  0.00  0.00     0.077 A 
ATOM      5  S   UNL d   1       0.034   1.334   0.012  0.00  0.00    -0.054 SA
ATOM      6  S   UNL d   1       2.656  -0.103   0.096  0.00  0.00    -0.052 SA
ATOM      7  O   UNL d   1      -2.104  -1.800  -0.400  0.00  0.00    -0.266 OA
ENDROOT
BRANCH   1   8
ATOM      8  C   UNL d   1       0.578  -2.597  -0.099  0.00  0.00     0.045 A 
ATOM      9  C   UNL d   1       1.290  -3.133   0.981  0.00  0.00     0.049 A 
ATOM     10  C   UNL d   1       1.645  -4.484   0.974  0.00  0.00     0.013 A 
ATOM     11 BR   UNL d   1       2.544  -5.222   2.465  0.00  0.00    -0.051 Br
ATOM     12  C   UNL d   1       1.320  -5.302  -0.106  0.00  0.00     0.019 A 
ATOM     13  C   UNL d   1       0.614  -4.771  -1.185  0.00  0.00     0.004 A 
ATOM     14  C   UNL d   1       0.230  -3.430  -1.173  0.00  0.00     0.030 A 
ENDBRANCH   1   8
BRANCH   4  15
ATOM     15  C   UNL d   1      -2.651   1.111   0.012  0.00  0.00     0.036 C 
BRANCH  15  16
ATOM     16  C   UNL d   1      -3.941   0.422   0.082  0.00  0.00    -0.035 A 
ATOM     17  C   UNL d   1      -4.463   0.069   1.333  0.00  0.00     0.011 A 
ATOM     18  C   UNL d   1      -5.658  -0.645   1.420  0.00  0.00     0.001 A 
ATOM     19  C   UNL d   1      -6.339  -1.006   0.259  0.00  0.00     0.000 A 
ATOM     20  C   UNL d   1      -5.830  -0.645  -0.989  0.00  0.00     0.001 A 
ATOM     21  C   UNL d   1      -4.634   0.069  -1.080  0.00  0.00     0.011 A 
ENDBRANCH  15  16
ENDBRANCH   4  15
TORSDOF 3
