REMARK  4 active torsions:
REMARK  status: ('A' for Active; 'I' for Inactive)
REMARK    1  A    between atoms: C_6  and  N_1 
REMARK    2  A    between atoms: N_17  and  N_8 
REMARK    3  A    between atoms: C_12  and  C_13 
REMARK    4  A    between atoms: C_23  and  N_17 
ROOT
ATOM      1  N   UNL d   1      -0.667  -1.359   0.027  0.00  0.00    -0.215 N 
ATOM      2  C   UNL d   1      -1.206  -0.083  -0.014  0.00  0.00     0.297 A 
ATOM      3  N   UNL d   1       0.729  -1.422   0.052  0.00  0.00    -0.293 N 
ATOM      4  HN  UNL d   1       1.299  -2.268   0.086  1.00  0.00     0.187 HD
ATOM      5  C   UNL d   1       0.029   0.767  -0.002  0.00  0.00     0.142 A 
ATOM      6  C   UNL d   1       1.164  -0.195   0.023  0.00  0.00     0.056 A 
ATOM      7  N   UNL d   1       0.161   2.055   0.009  0.00  0.00    -0.293 N 
ATOM      8  HN  UNL d   1       1.076   2.506   0.002  1.00  0.00     0.187 HD
ATOM      9  O   UNL d   1      -2.342   0.340  -0.004  0.00  0.00    -0.264 OA
ATOM     10  C   UNL d   1       2.576   0.253   0.018  0.00  0.00     0.072 C 
ENDROOT
BRANCH   1  11
ATOM     11  C   UNL d   1      -1.391  -2.567  -0.019  0.00  0.00     0.103 A 
ATOM     12  C   UNL d   1      -2.270  -2.847  -1.081  0.00  0.00     0.065 A 
ATOM     13  C   UNL d   1      -2.973  -4.059  -1.130  0.00  0.00     0.042 A 
ATOM     14 CL   UNL d   1      -2.439  -1.799  -2.450  0.00  0.00    -0.082 Cl
ATOM     15  C   UNL d   1      -2.826  -5.015  -0.117  0.00  0.00     0.051 A 
ATOM     16  C   UNL d   1      -1.960  -4.735   0.948  0.00  0.00     0.042 A 
ATOM     17  C   UNL d   1      -1.244  -3.530   0.994  0.00  0.00     0.065 A 
ATOM     18 CL   UNL d   1      -0.279  -3.253   2.406  0.00  0.00    -0.082 Cl
BRANCH  15  19
ATOM     19  C   UNL d   1      -3.572  -6.327  -0.160  0.00  0.00     0.417 C 
ATOM     20  F   UNL d   1      -4.353  -6.471  -1.265  0.00  0.00    -0.166 F 
ATOM     21  F   UNL d   1      -2.733  -7.398  -0.151  0.00  0.00    -0.166 F 
ATOM     22  F   UNL d   1      -4.398  -6.486   0.909  0.00  0.00    -0.166 F 
ENDBRANCH  15  19
ENDBRANCH   1  11
BRANCH   7  23
ATOM     23  N   UNL d   1      -0.993   2.768   0.031  0.00  0.00    -0.300 N 
ATOM     24  H   UNL d   1      -1.915   2.321   0.059  0.00  0.00     0.187 HD
BRANCH  23  25
ATOM     25  C   UNL d   1      -0.971   4.171   0.020  0.00  0.00     0.048 A 
ATOM     26  C   UNL d   1       0.212   4.907  -0.118  0.00  0.00     0.031 A 
ATOM     27  C   UNL d   1       0.195   6.305  -0.122  0.00  0.00     0.002 A 
ATOM     28  C   UNL d   1      -1.010   6.989   0.025  0.00  0.00     0.000 A 
ATOM     29  C   UNL d   1      -2.195   6.274   0.179  0.00  0.00     0.002 A 
ATOM     30  C   UNL d   1      -2.173   4.876   0.177  0.00  0.00     0.031 A 
ENDBRANCH  23  25
ENDBRANCH   7  23
TORSDOF 4
