REMARK  4 active torsions:
REMARK  status: ('A' for Active; 'I' for Inactive)
REMARK    1  A    between atoms: S_7  and  N_1 
REMARK    2  A    between atoms: S_11  and  C_6 
REMARK    3  A    between atoms: C_10  and  S_7 
REMARK    4  A    between atoms: C_19  and  S_11 
ROOT
ATOM      1  N   UNL d   1      -2.421   0.005  -0.250  0.00  0.00    -0.211 N 
ATOM      2  C   UNL d   1      -1.700  -1.156  -0.111  0.00  0.00     0.275 A 
ATOM      3  C   UNL d   1      -0.299  -0.750   0.022  0.00  0.00     0.083 A 
ATOM      4  C   UNL d   1      -1.631   1.119  -0.152  0.00  0.00     0.272 A 
ATOM      5  C   UNL d   1      -0.266   0.632   0.003  0.00  0.00     0.053 A 
ATOM      6  C   UNL d   1       0.883  -1.442   0.078  0.00  0.00     0.091 A 
ATOM      7  N   UNL d   1       2.065  -0.760   0.095  0.00  0.00    -0.353 N 
ATOM      8  HN  UNL d   1       2.947  -1.271   0.128  1.00  0.00     0.166 HD
ATOM      9  O   UNL d   1      -2.106  -2.304  -0.087  0.00  0.00    -0.266 OA
ATOM     10  C   UNL d   1       0.906   1.356   0.030  0.00  0.00     0.042 A 
ATOM     11  O   UNL d   1      -1.921   2.301  -0.193  0.00  0.00    -0.266 OA
ATOM     12  C   UNL d   1       2.069   0.606   0.067  0.00  0.00     0.007 A 
ATOM     13  C   UNL d   1       3.413   1.271  -0.003  0.00  0.00     0.068 C 
ENDROOT
BRANCH   6  14
ATOM     14  S   UNL d   1       0.983  -3.210  -0.027  0.00  0.00    -0.072 SA
BRANCH  14  15
ATOM     15  C   UNL d   1       1.839  -3.644   1.475  0.00  0.00     0.007 A 
ATOM     16  C   UNL d   1       1.172  -4.398   2.448  0.00  0.00     0.020 A 
ATOM     17  C   UNL d   1       1.836  -4.800   3.611  0.00  0.00     0.025 A 
ATOM     18  C   UNL d   1       3.172  -4.452   3.801  0.00  0.00     0.034 A 
ATOM     19  C   UNL d   1       3.850  -3.712   2.835  0.00  0.00     0.025 A 
ATOM     20 CL   UNL d   1       3.992  -4.949   5.229  0.00  0.00    -0.084 Cl
ATOM     21  C   UNL d   1       3.185  -3.314   1.671  0.00  0.00     0.020 A 
ENDBRANCH  14  15
ENDBRANCH   6  14
BRANCH   1  22
ATOM     22  S   UNL d   1      -4.058   0.068  -0.653  0.00  0.00     0.018 SA
BRANCH  22  23
ATOM     23  C   UNL d   1      -4.915  -0.052   0.951  0.00  0.00     0.257 C 
ATOM     24 CL   UNL d   1      -3.860   0.168   2.376  0.00  0.00    -0.070 Cl
ATOM     25 CL   UNL d   1      -6.187   1.216   1.004  0.00  0.00    -0.070 Cl
ATOM     26 CL   UNL d   1      -5.721  -1.645   1.072  0.00  0.00    -0.070 Cl
ENDBRANCH  22  23
ENDBRANCH   1  22
TORSDOF 4
