REMARK  9 active torsions:
REMARK  status: ('A' for Active; 'I' for Inactive)
REMARK    1  A    between atoms: C_8  and  N_1 
REMARK    2  A    between atoms: C_12  and  C_5 
REMARK    3  A    between atoms: C_11  and  C_8 
REMARK    4  A    between atoms: C_9  and  C_14 
REMARK    5  A    between atoms: C_10  and  C_13 
REMARK       I    between atoms: N_17  and  C_11 
REMARK    6  A    between atoms: C_15  and  N_21 
REMARK    7  A    between atoms: N_16  and  C_15 
REMARK    8  A    between atoms: C_22  and  N_16 
REMARK    9  A    between atoms: N_21  and  N_17 
ROOT
ATOM      1  N   UNL d   1      -0.101  -1.212  -0.137  0.00  0.00    -0.203 N 
ATOM      2  N   UNL d   1       0.898  -0.777  -0.937  0.00  0.00    -0.268 N 
ATOM      3  HN  UNL d   1       1.422  -1.277  -1.655  1.00  0.00     0.190 HD
ATOM      4  N   UNL d   1      -0.637  -0.277   0.666  0.00  0.00    -0.002 NA
ATOM      5  C   UNL d   1       1.010   0.496  -0.521  0.00  0.00     0.144 A 
ATOM      6  N   UNL d   1       0.064   0.821   0.423  0.00  0.00    -0.266 N 
ATOM      7  HN  UNL d   1      -0.073   1.735   0.855  1.00  0.00     0.186 HD
ENDROOT
BRANCH   1   8
ATOM      8  C   UNL d   1      -0.383  -2.624   0.038  0.00  0.00     0.214 C 
ATOM      9  C   UNL d   1       0.886  -3.412   0.364  0.00  0.00     0.046 C 
BRANCH   8  10
ATOM     10  C   UNL d   1      -1.097  -3.235  -1.147  0.00  0.00     0.262 C 
ATOM     11  N   UNL d   1      -0.813  -2.742  -2.404  0.00  0.00    -0.266 N 
ATOM     12  H   UNL d   1      -0.186  -1.956  -2.591  0.00  0.00     0.190 HD
ATOM     13  O   UNL d   1      -1.836  -4.216  -1.000  0.00  0.00    -0.269 OA
BRANCH  11  14
ATOM     14  N   UNL d   1      -1.439  -3.352  -3.505  0.00  0.00    -0.273 N 
ATOM     15  H   UNL d   1      -2.014  -4.158  -3.261  0.00  0.00     0.189 HD
BRANCH  14  16
ATOM     16  C   UNL d   1      -1.662  -2.682  -4.679  0.00  0.00     0.191 C 
ATOM     17  S   UNL d   1      -1.127  -1.121  -4.988  0.00  0.00    -0.039 SA
BRANCH  16  18
ATOM     18  N   UNL d   1      -2.197  -3.386  -5.726  0.00  0.00    -0.330 N 
ATOM     19  H   UNL d   1      -2.021  -2.945  -6.623  0.00  0.00     0.168 HD
BRANCH  18  20
ATOM     20  C   UNL d   1      -2.799  -4.662  -5.767  0.00  0.00     0.073 A 
ATOM     21  C   UNL d   1      -3.562  -5.208  -4.729  0.00  0.00     0.143 A 
ATOM     22  F   UNL d   1      -3.810  -4.499  -3.619  0.00  0.00    -0.204 F 
ATOM     23  C   UNL d   1      -4.125  -6.479  -4.832  0.00  0.00     0.044 A 
ATOM     24  C   UNL d   1      -3.925  -7.231  -5.986  0.00  0.00     0.003 A 
ATOM     25  C   UNL d   1      -3.192  -6.693  -7.043  0.00  0.00     0.002 A 
ATOM     26  C   UNL d   1      -2.653  -5.405  -6.944  0.00  0.00     0.033 A 
ENDBRANCH  18  20
ENDBRANCH  16  18
ENDBRANCH  14  16
ENDBRANCH  11  14
ENDBRANCH   8  10
ENDBRANCH   1   8
BRANCH   5  27
ATOM     27  C   UNL d   1       2.055   1.413  -0.957  0.00  0.00     0.012 A 
ATOM     28  C   UNL d   1       3.075   0.962  -1.812  0.00  0.00     0.031 A 
ATOM     29  C   UNL d   1       4.115   1.810  -2.217  0.00  0.00     0.049 A 
ATOM     30  C   UNL d   1       4.128   3.133  -1.753  0.00  0.00     0.032 A 
ATOM     31  C   UNL d   1       3.119   3.613  -0.899  0.00  0.00     0.049 A 
ATOM     32  C   UNL d   1       2.090   2.739  -0.504  0.00  0.00     0.031 A 
BRANCH  29  33
ATOM     33  C   UNL d   1       5.213   1.312  -3.130  0.00  0.00     0.417 C 
ATOM     34  F   UNL d   1       5.067   0.010  -3.500  0.00  0.00    -0.166 F 
ATOM     35  F   UNL d   1       5.284   2.026  -4.287  0.00  0.00    -0.166 F 
ATOM     36  F   UNL d   1       6.443   1.403  -2.557  0.00  0.00    -0.166 F 
ENDBRANCH  29  33
BRANCH  31  37
ATOM     37  C   UNL d   1       3.161   5.047  -0.420  0.00  0.00     0.417 C 
ATOM     38  F   UNL d   1       2.129   5.380   0.400  0.00  0.00    -0.166 F 
ATOM     39  F   UNL d   1       4.299   5.326   0.273  0.00  0.00    -0.166 F 
ATOM     40  F   UNL d   1       3.124   5.933  -1.452  0.00  0.00    -0.166 F 
ENDBRANCH  31  37
ENDBRANCH   5  27
TORSDOF 9
