REMARK  6 active torsions:
REMARK  status: ('A' for Active; 'I' for Inactive)
REMARK    1  A    between atoms: C_4  and  C_1 
REMARK    2  A    between atoms: C_2  and  C_3 
REMARK    3  A    between atoms: N_6  and  C_11 
REMARK    4  A    between atoms: O_21  and  C_8 
REMARK    5  A    between atoms: C_9  and  C_10 
REMARK    6  A    between atoms: O_22  and  C_14 
ROOT
ATOM      1  C   UNL d   1       0.816   3.802   0.053  0.00  0.00     0.050 A 
ATOM      2  C   UNL d   1       0.664   1.378   0.262  0.00  0.00     0.050 A 
ATOM      3  C   UNL d   1       1.288   2.518  -0.262  0.00  0.00     0.032 A 
ATOM      4  C   UNL d   1      -0.910   2.808   1.472  0.00  0.00     0.033 A 
ATOM      5  C   UNL d   1      -0.279   3.928   0.925  0.00  0.00     0.045 A 
ATOM      6  C   UNL d   1      -0.449   1.539   1.104  0.00  0.00     0.045 A 
ENDROOT
BRANCH   4   7
ATOM      7  N   UNL d   1      -1.992   3.021   2.347  0.00  0.00    -0.365 N 
ATOM      8  C   UNL d   1      -2.123   2.234   3.374  0.00  0.00     0.102 C 
ATOM      9  HN  UNL d   1      -2.659   3.774   2.179  1.00  0.00     0.165 HD
BRANCH   8  10
ATOM     10  C   UNL d   1      -3.203   2.418   4.367  0.00  0.00     0.015 A 
ATOM     11  C   UNL d   1      -4.060   3.533   4.359  0.00  0.00     0.110 A 
ATOM     12  C   UNL d   1      -5.023   3.669   5.369  0.00  0.00     0.102 A 
ATOM     13  C   UNL d   1      -5.100   2.700   6.379  0.00  0.00     0.040 A 
ATOM     14  C   UNL d   1      -4.261   1.586   6.373  0.00  0.00     0.004 A 
ATOM     15  C   UNL d   1      -3.312   1.443   5.366  0.00  0.00     0.016 A 
BRANCH  11  16
ATOM     16  O   UNL d   1      -3.932   4.503   3.399  0.00  0.00    -0.357 OA
ATOM     17  H   UNL d   1      -3.219   4.223   2.783  0.00  0.00     0.217 HD
ENDBRANCH  11  16
BRANCH  12  18
ATOM     18  O   UNL d   1      -5.910   4.699   5.539  0.00  0.00    -0.353 OA
ATOM     19  C   UNL d   1      -6.367   5.342   4.356  0.00  0.00     0.210 C 
ENDBRANCH  12  18
ENDBRANCH   8  10
ENDBRANCH   4   7
BRANCH   2  20
ATOM     20  C   UNL d   1       1.171  -0.012  -0.037  0.00  0.00     0.417 C 
ATOM     21  F   UNL d   1       2.261  -0.031  -0.851  0.00  0.00    -0.166 F 
ATOM     22  F   UNL d   1       0.233  -0.789  -0.644  0.00  0.00    -0.166 F 
ATOM     23  F   UNL d   1       1.535  -0.679   1.093  0.00  0.00    -0.166 F 
ENDBRANCH   2  20
BRANCH   1  24
ATOM     24  C   UNL d   1       1.464   5.039  -0.525  0.00  0.00     0.417 C 
ATOM     25  F   UNL d   1       2.527   4.764  -1.332  0.00  0.00    -0.166 F 
ATOM     26  F   UNL d   1       0.603   5.773  -1.280  0.00  0.00    -0.166 F 
ATOM     27  F   UNL d   1       1.934   5.879   0.437  0.00  0.00    -0.166 F 
ENDBRANCH   1  24
TORSDOF 6
