REMARK  8 active torsions:
REMARK  status: ('A' for Active; 'I' for Inactive)
REMARK    1  A    between atoms: N_4  and  C_1 
REMARK    2  A    between atoms: S_5  and  C_1 
REMARK    3  A    between atoms: C_3  and  C_7 
REMARK    4  A    between atoms: O_9  and  C_3 
REMARK    5  A    between atoms: C_8  and  N_4 
REMARK    6  A    between atoms: C_7  and  S_5 
REMARK    7  A    between atoms: C_10  and  C_8 
REMARK    8  A    between atoms: C_11  and  O_9 
ROOT
ATOM      1  C   UNL d   1       0.877  -0.172  -0.205  0.00  0.00     0.135 C 
ATOM      2  S   UNL d   1       0.295  -1.732  -0.298  0.00  0.00    -0.053 SA
ENDROOT
BRANCH   1   3
ATOM      3  N   UNL d   1       0.236   0.921   0.309  0.00  0.00    -0.371 N 
ATOM      4  H   UNL d   1       0.787   1.770   0.304  0.00  0.00     0.161 HD
BRANCH   3   5
ATOM      5  C   UNL d   1      -1.199   1.105   0.401  0.00  0.00     0.159 C 
BRANCH   5   6
ATOM      6  C   UNL d   1      -1.654   1.346   1.814  0.00  0.00    -0.041 A 
ATOM      7  C   UNL d   1      -1.728   2.646   2.335  0.00  0.00     0.009 A 
ATOM      8  C   UNL d   1      -2.195   2.863   3.633  0.00  0.00     0.001 A 
ATOM      9  C   UNL d   1      -2.582   1.784   4.426  0.00  0.00     0.000 A 
ATOM     10  C   UNL d   1      -2.493   0.485   3.925  0.00  0.00     0.001 A 
ATOM     11  C   UNL d   1      -2.026   0.268   2.630  0.00  0.00     0.009 A 
ENDBRANCH   5   6
ENDBRANCH   3   5
ENDBRANCH   1   3
BRANCH   1  12
ATOM     12  S   UNL d   1       2.474   0.324  -0.742  0.00  0.00    -0.091 SA
BRANCH  12  13
ATOM     13  C   UNL d   1       2.385  -0.126  -2.505  0.00  0.00     0.192 C 
BRANCH  13  14
ATOM     14  C   UNL d   1       1.185   0.459  -3.222  0.00  0.00     0.268 C 
ATOM     15  O   UNL d   1       0.363   1.243  -2.764  0.00  0.00    -0.264 OA
BRANCH  14  16
ATOM     16  O   UNL d   1       1.133  -0.069  -4.483  0.00  0.00    -0.321 OA
BRANCH  16  17
ATOM     17  C   UNL d   1      -0.113   0.089  -5.177  0.00  0.00     0.174 C 
ATOM     18  C   UNL d   1      -0.975  -1.119  -4.865  0.00  0.00     0.034 C 
ENDBRANCH  16  17
ENDBRANCH  14  16
ENDBRANCH  13  14
ENDBRANCH  12  13
ENDBRANCH   1  12
TORSDOF 8
