REMARK  5 active torsions:
REMARK  status: ('A' for Active; 'I' for Inactive)
REMARK    1  A    between atoms: C_2  and  N_1 
REMARK    2  A    between atoms: C_11  and  C_22 
REMARK    3  A    between atoms: N_25  and  C_15 
REMARK    4  A    between atoms: C_21  and  O_23 
REMARK    5  A    between atoms: O_23  and  C_22 
ROOT
ATOM      1  N   UNL d   1       3.338   1.723   0.003  0.00  0.00    -0.297 N 
ATOM      2  C   UNL d   1       4.504   1.987   0.672  0.00  0.00     0.142 A 
ATOM      3  C   UNL d   1       5.454   1.187   0.056  0.00  0.00     0.122 A 
ATOM      4  N   UNL d   1       4.866   0.342  -0.861  0.00  0.00    -0.346 N 
ATOM      5  HN  UNL d   1       5.315  -0.391  -1.411  1.00  0.00     0.167 HD
ATOM      6  C   UNL d   1       3.598   0.692  -0.871  0.00  0.00     0.188 A 
ATOM      7  C   UNL d   1       6.793   1.394   0.426  0.00  0.00     0.131 A 
ATOM      8  N   UNL d   1       4.722   2.904   1.632  0.00  0.00    -0.336 N 
ATOM      9  HN  UNL d   1       3.992   3.464   2.072  1.00  0.00     0.168 HD
ATOM     10  N   UNL d   1       7.064   2.301   1.391  0.00  0.00    -0.337 N 
ATOM     11  HN  UNL d   1       8.022   2.464   1.702  1.00  0.00     0.168 HD
ATOM     12  C   UNL d   1       6.036   2.986   1.933  0.00  0.00     0.183 A 
ENDROOT
BRANCH   1  13
ATOM     13  C   UNL d   1       2.112   2.498  -0.016  0.00  0.00     0.262 C 
ATOM     14  C   UNL d   1       1.755   3.300   1.231  0.00  0.00     0.206 C 
ATOM     15  C   UNL d   1       2.023   4.742   0.869  0.00  0.00     0.189 C 
ATOM     16  O   UNL d   1       0.344   3.208   1.504  0.00  0.00    -0.344 OA
ATOM     17  O   UNL d   1       0.764   5.424   0.983  0.00  0.00    -0.345 OA
ATOM     18  C   UNL d   1       2.477   4.744  -0.589  0.00  0.00     0.180 C 
ATOM     19  C   UNL d   1      -0.115   4.546   1.676  0.00  0.00     0.158 C 
ATOM     20  C   UNL d   1      -1.520   4.673   1.104  0.00  0.00     0.078 C 
ATOM     21  C   UNL d   1      -0.103   4.907   3.160  0.00  0.00     0.078 C 
ATOM     22  O   UNL d   1       2.213   3.428  -1.117  0.00  0.00    -0.353 OA
BRANCH  18  23
ATOM     23  C   UNL d   1       3.959   5.095  -0.787  0.00  0.00     0.213 C 
BRANCH  23  24
ATOM     24  O   UNL d   1       4.323   6.328  -0.155  0.00  0.00    -0.319 OA
BRANCH  24  25
ATOM     25  C   UNL d   1       4.261   7.431  -0.944  0.00  0.00     0.254 C 
ATOM     26  O   UNL d   1       3.830   7.458  -2.090  0.00  0.00    -0.266 OA
ATOM     27  C   UNL d   1       4.799   8.628  -0.224  0.00  0.00     0.126 C 
ENDBRANCH  24  25
ENDBRANCH  23  24
ENDBRANCH  18  23
ENDBRANCH   1  13
BRANCH   7  28
ATOM     28  N   UNL d   1       7.856   0.739  -0.178  0.00  0.00    -0.383 N 
ATOM     29  H   UNL d   1       7.598  -0.113  -0.663  0.00  0.00     0.157 HD
ATOM     30  H   UNL d   1       8.698   0.744   0.380  0.00  0.00     0.157 HD
ENDBRANCH   7  28
TORSDOF 5
