REMARK  3 active torsions:
REMARK  status: ('A' for Active; 'I' for Inactive)
REMARK    1  A    between atoms: C_9  and  C_1 
REMARK    2  A    between atoms: C_12  and  C_9 
REMARK    3  A    between atoms: O_21  and  C_11 
ROOT
ATOM      1  C   UNL d   1      -2.335   0.557  -0.155  0.00  0.00     0.029 A 
ATOM      2  C   UNL d   1      -2.146  -0.922  -0.225  0.00  0.00     0.295 A 
ATOM      3  C   UNL d   1      -1.276   1.396  -0.088  0.00  0.00    -0.036 A 
ATOM      4  O   UNL d   1      -0.852  -1.407  -0.167  0.00  0.00    -0.274 OA
ATOM      5  C   UNL d   1       0.254  -0.548  -0.096  0.00  0.00     0.092 A 
ATOM      6  C   UNL d   1       0.091   0.835  -0.074  0.00  0.00     0.005 A 
ATOM      7  C   UNL d   1       1.508  -1.165  -0.051  0.00  0.00     0.074 A 
ATOM      8  C   UNL d   1       1.257   1.614  -0.011  0.00  0.00     0.017 A 
ATOM      9  O   UNL d   1      -3.092  -1.696  -0.317  0.00  0.00    -0.259 OA
ATOM     10  C   UNL d   1       2.639  -0.367   0.009  0.00  0.00     0.068 A 
ATOM     11  C   UNL d   1       2.524   1.016   0.029  0.00  0.00     0.037 A 
ATOM     12  C   UNL d   1      -1.399   2.896  -0.006  0.00  0.00     0.050 C 
ENDROOT
BRANCH   1  13
ATOM     13  C   UNL d   1      -3.788   0.979  -0.048  0.00  0.00     0.084 C 
BRANCH  13  14
ATOM     14  C   UNL d   1      -4.469   1.369  -1.345  0.00  0.00    -0.054 A 
ATOM     15  C   UNL d   1      -4.660   0.436  -2.377  0.00  0.00     0.010 A 
ATOM     16  C   UNL d   1      -5.389   0.776  -3.520  0.00  0.00     0.043 A 
ATOM     17  C   UNL d   1      -5.934   2.048  -3.634  0.00  0.00     0.116 A 
ATOM     18  C   UNL d   1      -5.750   2.994  -2.633  0.00  0.00     0.043 A 
ATOM     19  F   UNL d   1      -6.659   2.364  -4.715  0.00  0.00    -0.206 F 
ATOM     20  C   UNL d   1      -5.019   2.656  -1.492  0.00  0.00     0.010 A 
ENDBRANCH  13  14
ENDBRANCH   1  13
BRANCH  10  21
ATOM     21  O   UNL d   1       3.891  -0.902   0.050  0.00  0.00    -0.361 OA
ATOM     22  H   UNL d   1       3.821  -1.870   0.001  0.00  0.00     0.217 HD
ENDBRANCH  10  21
TORSDOF 3
