REMARK  2 active torsions:
REMARK  status: ('A' for Active; 'I' for Inactive)
REMARK    1  A    between atoms: C_11  and  C_3 
REMARK    2  A    between atoms: C_12  and  C_4 
ROOT
ATOM      1  N   UNL d   1      -0.024  -3.551  -2.514  0.00  0.00    -0.197 NA
ATOM      2  C   UNL d   1      -0.474  -2.507  -2.281  0.00  0.00     0.065 C 
ATOM      3  C   UNL d   1      -1.078  -1.200  -1.992  0.00  0.00     0.188 C 
ENDROOT
BRANCH   3   4
ATOM      4  C   UNL d   1      -0.273  -0.484  -0.955  0.00  0.00     0.064 A 
ATOM      5  N   UNL d   1       0.747   0.312  -1.211  0.00  0.00    -0.352 N 
ATOM      6  C   UNL d   1       1.296   0.788  -0.027  0.00  0.00     0.049 A 
ATOM      7  HN  UNL d   1       1.085   0.545  -2.145  1.00  0.00     0.166 HD
ATOM      8  C   UNL d   1       0.660   0.349   1.118  0.00  0.00     0.081 A 
ATOM      9  S   UNL d   1      -0.657  -0.668   0.714  0.00  0.00    -0.085 SA
BRANCH   6  10
ATOM     10  C   UNL d   1       2.478   1.647  -0.020  0.00  0.00    -0.009 A 
ATOM     11  C   UNL d   1       2.713   2.568   1.012  0.00  0.00     0.015 A 
ATOM     12  C   UNL d   1       3.867   3.361   1.016  0.00  0.00     0.023 A 
ATOM     13  C   UNL d   1       4.803   3.245  -0.015  0.00  0.00     0.044 A 
ATOM     14  C   UNL d   1       5.994   4.044   0.001  0.00  0.00     0.099 C 
ATOM     15  C   UNL d   1       4.573   2.340  -1.056  0.00  0.00     0.023 A 
ATOM     16  N   UNL d   1       6.958   4.690   0.023  0.00  0.00    -0.191 NA
ATOM     17  C   UNL d   1       3.416   1.550  -1.058  0.00  0.00     0.015 A 
ENDBRANCH   6  10
ENDBRANCH   3   4
TORSDOF 2
