REMARK  3 active torsions:
REMARK  status: ('A' for Active; 'I' for Inactive)
REMARK    1  A    between atoms: N_5  and  C_2 
REMARK    2  A    between atoms: C_10  and  C_6 
REMARK    3  A    between atoms: O_18  and  C_10 
ROOT
ATOM      1  C   UNL d   1       1.243  -0.767  -0.084  0.00  0.00     0.063 A 
ATOM      2  C   UNL d   1       2.474  -1.451  -0.036  0.00  0.00     0.135 A 
ATOM      3  C   UNL d   1      -0.062  -1.463  -0.154  0.00  0.00     0.196 C 
ATOM      4  C   UNL d   1       1.258   0.630  -0.103  0.00  0.00     0.032 A 
ATOM      5  C   UNL d   1       3.701  -0.772  -0.043  0.00  0.00     0.071 A 
ATOM      6  C   UNL d   1       0.002   1.409  -0.141  0.00  0.00     0.194 C 
ATOM      7  C   UNL d   1      -1.317  -0.689  -0.072  0.00  0.00     0.029 A 
ATOM      8  C   UNL d   1      -1.288   0.702  -0.097  0.00  0.00     0.029 A 
ATOM      9  C   UNL d   1       2.474   1.326  -0.085  0.00  0.00     0.018 A 
ATOM     10  C   UNL d   1       3.684   0.630  -0.058  0.00  0.00     0.022 A 
ATOM     11  O   UNL d   1      -0.106  -2.671  -0.332  0.00  0.00    -0.286 OA
ATOM     12  O   UNL d   1       0.039   2.632  -0.200  0.00  0.00    -0.287 OA
ATOM     13  C   UNL d   1      -2.547  -1.358  -0.007  0.00  0.00     0.016 A 
ATOM     14  C   UNL d   1      -2.482   1.432  -0.084  0.00  0.00     0.016 A 
ATOM     15  C   UNL d   1      -3.738  -0.629   0.016  0.00  0.00     0.001 A 
ATOM     16  C   UNL d   1      -3.706   0.764  -0.032  0.00  0.00     0.001 A 
ENDROOT
BRANCH   5  17
ATOM     17  C   UNL d   1       5.044  -1.399   0.058  0.00  0.00     0.178 C 
ATOM     18  O   UNL d   1       5.916  -0.880   0.736  0.00  0.00    -0.646 OA
BRANCH  17  19
ATOM     19  O   UNL d   1       5.276  -2.476  -0.712  0.00  0.00    -0.773 OA
ATOM     20  H   UNL d   1       4.551  -2.886  -1.233  0.00  0.00     0.167 HD
ENDBRANCH  17  19
ENDBRANCH   5  17
BRANCH   2  21
ATOM     21  N   UNL d   1       2.501  -2.886   0.073  0.00  0.00    -0.114 N 
ATOM     22  O   UNL d   1       2.291  -3.368   1.191  0.00  0.00    -0.532 OA
ATOM     23  O   UNL d   1       2.869  -3.496  -0.943  0.00  0.00    -0.532 OA
ENDBRANCH   2  21
TORSDOF 3
