REMARK  5 active torsions:
REMARK  status: ('A' for Active; 'I' for Inactive)
REMARK    1  A    between atoms: C_3  and  C_1 
REMARK    2  A    between atoms: N_4  and  C_2 
REMARK    3  A    between atoms: O_12  and  C_3 
REMARK       I    between atoms: C_6  and  N_4 
REMARK    4  A    between atoms: O_11  and  C_6 
REMARK    5  A    between atoms: C_13  and  O_11 
ROOT
ATOM      1  C   UNL d   1       0.058   1.388  -0.025  0.00  0.00     0.106 A 
ATOM      2  C   UNL d   1       1.323   0.859  -0.268  0.00  0.00     0.060 A 
ATOM      3  S   UNL d   1      -1.093   0.141   0.296  0.00  0.00    -0.094 SA
ATOM      4  C   UNL d   1       1.308  -0.573  -0.166  0.00  0.00     0.038 A 
ATOM      5  C   UNL d   1       0.067  -1.087   0.121  0.00  0.00     0.053 A 
ENDROOT
BRANCH   2   6
ATOM      6  N   UNL d   1       2.446   1.629  -0.571  0.00  0.00    -0.301 N 
ATOM      7  C   UNL d   1       3.622   1.123  -1.066  0.00  0.00     0.365 C 
ATOM      8  O   UNL d   1       3.843  -0.035  -1.394  0.00  0.00    -0.238 OA
ATOM      9  H   UNL d   1       2.383   2.636  -0.484  0.00  0.00     0.171 HD
BRANCH   7  10
ATOM     10  O   UNL d   1       4.538   2.123  -1.186  0.00  0.00    -0.304 OA
BRANCH  10  11
ATOM     11  C   UNL d   1       5.807   1.710  -1.721  0.00  0.00     0.176 C 
ATOM     12  C   UNL d   1       5.785   1.800  -3.236  0.00  0.00     0.034 C 
ENDBRANCH  10  11
ENDBRANCH   7  10
ENDBRANCH   2   6
BRANCH   1  13
ATOM     13  C   UNL d   1      -0.449   2.751  -0.041  0.00  0.00     0.302 C 
ATOM     14  O   UNL d   1      -1.625   3.084   0.068  0.00  0.00    -0.259 OA
BRANCH  13  15
ATOM     15  O   UNL d   1       0.572   3.647  -0.214  0.00  0.00    -0.322 OA
ATOM     16  C   UNL d   1       0.143   5.010  -0.305  0.00  0.00     0.213 C 
ENDBRANCH  13  15
ENDBRANCH   1  13
TORSDOF 5
