REMARK  5 active torsions:
REMARK  status: ('A' for Active; 'I' for Inactive)
REMARK    1  A    between atoms: C_2  and  S_1 
REMARK    2  A    between atoms: N_5  and  S_1 
REMARK    3  A    between atoms: C_13  and  N_5 
REMARK    4  A    between atoms: C_17  and  C_13 
REMARK    5  A    between atoms: C_14  and  C_17 
ROOT
ATOM      1  N   UNL d   1       2.601   0.091   0.046  0.00  0.00    -0.315 N 
ATOM      2  H   UNL d   1       3.021  -0.839   0.089  0.00  0.00     0.172 HD
ENDROOT
BRANCH   1   3
ATOM      3  S   UNL d   1       0.917   0.004   0.044  0.00  0.00     0.258 S 
ATOM      4  O   UNL d   1       0.580  -1.293   0.594  0.00  0.00    -0.201 OA
ATOM      5  O   UNL d   1       0.401   1.227   0.609  0.00  0.00    -0.201 OA
BRANCH   3   6
ATOM      6  C   UNL d   1       0.526  -0.035  -1.688  0.00  0.00     0.079 A 
ATOM      7  C   UNL d   1       1.050  -1.062  -2.478  0.00  0.00     0.026 A 
ATOM      8  C   UNL d   1       0.825  -1.052  -3.854  0.00  0.00     0.008 A 
ATOM      9  C   UNL d   1       0.044  -0.045  -4.439  0.00  0.00    -0.062 A 
ATOM     10  C   UNL d   1      -0.504   0.958  -3.628  0.00  0.00     0.008 A 
ATOM     11  C   UNL d   1      -0.179  -0.050  -5.924  0.00  0.00     0.048 C 
ATOM     12  C   UNL d   1      -0.257   0.972  -2.253  0.00  0.00     0.026 A 
ENDBRANCH   3   6
ENDBRANCH   1   3
BRANCH   1  13
ATOM     13  C   UNL d   1       3.307   1.090  -0.772  0.00  0.00     0.137 C 
BRANCH  13  14
ATOM     14  C   UNL d   1       2.962   2.534  -0.418  0.00  0.00     0.059 C 
BRANCH  14  15
ATOM     15  C   UNL d   1       3.688   3.495  -1.322  0.00  0.00    -0.054 A 
ATOM     16  C   UNL d   1       3.154   3.829  -2.571  0.00  0.00     0.024 A 
ATOM     17  C   UNL d   1       3.843   4.730  -3.367  0.00  0.00     0.088 A 
ATOM     18  N   UNL d   1       5.013   5.300  -3.011  0.00  0.00    -0.375 N 
ATOM     19  C   UNL d   1       5.519   4.949  -1.809  0.00  0.00     0.088 A 
ATOM     20  HN  UNL d   1       5.492   5.964  -3.621  1.00  0.00     0.164 HD
ATOM     21  C   UNL d   1       4.908   4.055  -0.944  0.00  0.00     0.024 A 
ENDBRANCH  14  15
ENDBRANCH  13  14
ENDBRANCH   1  13
TORSDOF 5
