REMARK  1 active torsions:
REMARK  status: ('A' for Active; 'I' for Inactive)
REMARK       I    between atoms: C_8  and  N_1 
REMARK    1  A    between atoms: C_10  and  C_6 
REMARK       I    between atoms: C_9  and  N_7 
ROOT
ATOM      1  N   UNL d   1       1.369   0.736  -0.289  0.00  0.00    -0.240 N 
ATOM      2  C   UNL d   1       0.399  -1.206   0.086  0.00  0.00     0.164 A 
ATOM      3  S   UNL d   1      -1.000  -0.210   0.327  0.00  0.00    -0.060 SA
ATOM      4  N   UNL d   1       1.508  -0.632  -0.216  0.00  0.00    -0.273 N 
ATOM      5  HN  UNL d   1       2.384  -1.129  -0.381  1.00  0.00     0.189 HD
ATOM      6  C   UNL d   1       0.062   1.277   0.091  0.00  0.00     0.213 A 
ATOM      7  N   UNL d   1       0.200  -2.540   0.262  0.00  0.00    -0.307 N 
ATOM      8  C   UNL d   1       2.498   1.531  -0.372  0.00  0.00     0.235 C 
ATOM      9  C   UNL d   1       1.202  -3.491   0.223  0.00  0.00     0.219 C 
ATOM     10  O   UNL d   1       2.459   2.761  -0.272  0.00  0.00    -0.272 OA
ATOM     11  O   UNL d   1       2.387  -3.280  -0.010  0.00  0.00    -0.274 OA
ATOM     12  C   UNL d   1       3.822   0.819  -0.535  0.00  0.00     0.119 C 
ATOM     13  C   UNL d   1       0.727  -4.891   0.512  0.00  0.00     0.117 C 
ATOM     14  H   UNL d   1      -0.742  -2.818   0.488  0.00  0.00     0.171 HD
ENDROOT
BRANCH   6  15
ATOM     15  C   UNL d   1      -0.583   2.245  -0.881  0.00  0.00    -0.023 A 
ATOM     16  C   UNL d   1      -1.433   3.253  -0.385  0.00  0.00     0.010 A 
ATOM     17  C   UNL d   1      -2.074   4.144  -1.247  0.00  0.00     0.001 A 
ATOM     18  C   UNL d   1      -1.877   4.044  -2.621  0.00  0.00     0.000 A 
ATOM     19  C   UNL d   1      -1.038   3.055  -3.132  0.00  0.00     0.001 A 
ATOM     20  C   UNL d   1      -0.398   2.159  -2.270  0.00  0.00     0.010 A 
ENDBRANCH   6  15
TORSDOF 1
