REMARK  7 active torsions:
REMARK  status: ('A' for Active; 'I' for Inactive)
REMARK    1  A    between atoms: O_16  and  C_1 
REMARK    2  A    between atoms: O_17  and  C_2 
REMARK    3  A    between atoms: N_3  and  C_20 
REMARK    4  A    between atoms: O_18  and  C_5 
REMARK    5  A    between atoms: O_19  and  C_6 
REMARK    6  A    between atoms: C_12  and  C_11 
REMARK    7  A    between atoms: C_20  and  C_13 
ROOT
ATOM      1  N   UNL d   1      -2.506   2.500   0.700  0.00  0.00    -0.394 N 
ATOM      2  HN  UNL d   1      -2.922   1.588   0.888  1.00  0.00     0.159 HD
ATOM      3  C   UNL d   1      -3.214   3.575   0.693  0.00  0.00     0.094 C 
ENDROOT
BRANCH   1   4
ATOM      4  C   UNL d   1      -1.077   2.648   0.425  0.00  0.00     0.157 C 
BRANCH   4   5
ATOM      5  C   UNL d   1      -0.673   1.875  -0.809  0.00  0.00    -0.038 A 
ATOM      6  C   UNL d   1      -0.083   2.522  -1.903  0.00  0.00     0.048 A 
ATOM      7  C   UNL d   1       0.254   1.827  -3.081  0.00  0.00     0.102 A 
ATOM      8  C   UNL d   1       0.061   0.437  -3.133  0.00  0.00     0.101 A 
ATOM      9  C   UNL d   1      -0.522  -0.207  -2.032  0.00  0.00     0.040 A 
ATOM     10  C   UNL d   1      -0.896   0.500  -0.888  0.00  0.00     0.012 A 
BRANCH   7  11
ATOM     11  O   UNL d   1       0.751   2.480  -4.181  0.00  0.00    -0.353 OA
ATOM     12  C   UNL d   1       0.399   3.857  -4.303  0.00  0.00     0.210 C 
ENDBRANCH   7  11
BRANCH   8  13
ATOM     13  O   UNL d   1       0.287  -0.427  -4.170  0.00  0.00    -0.353 OA
ATOM     14  C   UNL d   1       1.243  -0.095  -5.163  0.00  0.00     0.210 C 
ENDBRANCH   8  13
ENDBRANCH   4   5
ENDBRANCH   1   4
BRANCH   3  15
ATOM     15  C   UNL d   1      -4.669   3.524   0.936  0.00  0.00    -0.018 A 
ATOM     16  C   UNL d   1      -5.416   4.707   0.970  0.00  0.00     0.052 A 
ATOM     17  C   UNL d   1      -6.797   4.670   1.222  0.00  0.00     0.102 A 
ATOM     18  C   UNL d   1      -7.423   3.419   1.412  0.00  0.00     0.101 A 
ATOM     19  C   UNL d   1      -6.662   2.249   1.383  0.00  0.00     0.040 A 
ATOM     20  C   UNL d   1      -5.294   2.289   1.138  0.00  0.00     0.015 A 
BRANCH  17  21
ATOM     21  O   UNL d   1      -7.580   5.788   1.325  0.00  0.00    -0.353 OA
ATOM     22  C   UNL d   1      -6.968   7.061   1.171  0.00  0.00     0.210 C 
ENDBRANCH  17  21
BRANCH  18  23
ATOM     23  O   UNL d   1      -8.743   3.189   1.706  0.00  0.00    -0.353 OA
ATOM     24  C   UNL d   1      -9.695   4.075   1.134  0.00  0.00     0.210 C 
ENDBRANCH  18  23
ENDBRANCH   3  15
TORSDOF 7
