REMARK  4 active torsions:
REMARK  status: ('A' for Active; 'I' for Inactive)
REMARK    1  A    between atoms: S_2  and  C_1 
REMARK    2  A    between atoms: N_7  and  S_2 
REMARK    3  A    between atoms: C_8  and  C_3 
REMARK    4  A    between atoms: O_12  and  C_8 
ROOT
ATOM      1  C   UNL d   1       0.664   1.382   0.098  0.00  0.00     0.122 A 
ATOM      2  C   UNL d   1      -0.768   1.352   0.254  0.00  0.00     0.094 A 
ATOM      3  C   UNL d   1       1.094   0.066   0.079  0.00  0.00     0.073 A 
ATOM      4  C   UNL d   1      -1.101   0.006   0.187  0.00  0.00     0.067 A 
ATOM      5  O   UNL d   1       0.015  -0.762   0.110  0.00  0.00    -0.318 OA
ATOM      6  C   UNL d   1       2.385  -0.652   0.023  0.00  0.00     0.078 C 
ATOM      7  C   UNL d   1      -2.369  -0.760   0.160  0.00  0.00     0.078 C 
ENDROOT
BRANCH   1   8
ATOM      8  S   UNL d   1       1.657   2.789  -0.025  0.00  0.00     0.247 S 
ATOM      9  O   UNL d   1       1.346   3.547   1.165  0.00  0.00    -0.206 OA
ATOM     10  O   UNL d   1       2.998   2.305  -0.273  0.00  0.00    -0.206 OA
BRANCH   8  11
ATOM     11  N   UNL d   1       1.174   3.668  -1.408  0.00  0.00    -0.206 NA
ATOM     12  C   UNL d   1       1.487   3.046  -2.719  0.00  0.00     0.107 C 
ATOM     13  C   UNL d   1       2.777   3.713  -3.156  0.00  0.00     0.017 C 
ATOM     14  C   UNL d   1       2.616   5.143  -2.676  0.00  0.00     0.017 C 
ATOM     15  C   UNL d   1       1.693   5.064  -1.462  0.00  0.00     0.107 C 
ENDBRANCH   8  11
ENDBRANCH   1   8
BRANCH   2  16
ATOM     16  C   UNL d   1      -1.757   2.409   0.436  0.00  0.00     0.297 C 
ATOM     17  O   UNL d   1      -2.932   2.176   0.705  0.00  0.00    -0.259 OA
BRANCH  16  18
ATOM     18  O   UNL d   1      -1.275   3.667   0.272  0.00  0.00    -0.322 OA
ATOM     19  C   UNL d   1      -2.254   4.695   0.437  0.00  0.00     0.213 C 
ENDBRANCH  16  18
ENDBRANCH   2  16
TORSDOF 4
