REMARK  3 active torsions:
REMARK  status: ('A' for Active; 'I' for Inactive)
REMARK    1  A    between atoms: N_3  and  C_1 
REMARK    2  A    between atoms: C_2  and  C_4 
REMARK       I    between atoms: C_4  and  N_3 
REMARK    3  A    between atoms: C_14  and  C_9 
ROOT
ATOM      1  C   UNL d   1      -2.857  -1.774  -0.627  0.00  0.00     0.113 C 
ATOM      2  C   UNL d   1      -3.944  -2.195   0.053  0.00  0.00     0.039 C 
ATOM      3  C   UNL d   1      -2.129  -2.611  -1.513  0.00  0.00     0.105 C 
ATOM      4  N   UNL d   1      -1.488  -3.238  -2.252  0.00  0.00    -0.191 NA
ENDROOT
BRANCH   1   5
ATOM      5  C   UNL d   1      -2.391  -0.369  -0.338  0.00  0.00     0.267 C 
ATOM      6  N   UNL d   1      -1.272   0.046  -1.038  0.00  0.00    -0.307 N 
ATOM      7  H   UNL d   1      -0.756  -0.626  -1.597  0.00  0.00     0.170 HD
ATOM      8  O   UNL d   1      -2.966   0.292   0.522  0.00  0.00    -0.266 OA
BRANCH   6   9
ATOM      9  C   UNL d   1      -0.610   1.254  -0.835  0.00  0.00     0.125 A 
ATOM     10  N   UNL d   1      -1.059   2.435  -0.274  0.00  0.00    -0.281 N 
ATOM     11  N   UNL d   1      -0.077   3.360  -0.146  0.00  0.00    -0.308 N 
ATOM     12  C   UNL d   1      -2.403   2.883   0.009  0.00  0.00     0.179 C 
ATOM     13  C   UNL d   1       0.979   2.797  -0.727  0.00  0.00     0.111 A 
ATOM     14  HN  UNL d   1      -0.134   4.278   0.295  1.00  0.00     0.186 HD
ATOM     15  C   UNL d   1       0.697   1.510  -1.205  0.00  0.00     0.068 A 
ENDBRANCH   6   9
ENDBRANCH   1   5
BRANCH   2  16
ATOM     16  C   UNL d   1      -4.456  -3.567   0.078  0.00  0.00    -0.033 A 
ATOM     17  C   UNL d   1      -4.008  -4.421   1.092  0.00  0.00     0.035 A 
ATOM     18  C   UNL d   1      -4.492  -5.725   1.168  0.00  0.00     0.034 A 
ATOM     19 CL   UNL d   1      -3.938  -6.765   2.422  0.00  0.00    -0.084 Cl
ATOM     20  C   UNL d   1      -5.425  -6.186   0.243  0.00  0.00     0.024 A 
ATOM     21  C   UNL d   1      -5.876  -5.335  -0.768  0.00  0.00     0.003 A 
ATOM     22  C   UNL d   1      -5.393  -4.026  -0.853  0.00  0.00     0.011 A 
ENDBRANCH   2  16
TORSDOF 3
