REMARK  5 active torsions:
REMARK  status: ('A' for Active; 'I' for Inactive)
REMARK    1  A    between atoms: C_9  and  C_1 
REMARK    2  A    between atoms: C_6  and  O_12 
REMARK    3  A    between atoms: C_8  and  C_6 
REMARK    4  A    between atoms: C_10  and  C_9 
REMARK    5  A    between atoms: O_12  and  C_14 
ROOT
ATOM      1  C   UNL d   1      -1.778  -1.065   0.009  0.00  0.00     0.029 C 
ATOM      2  C   UNL d   1      -1.971   0.412   0.031  0.00  0.00     0.295 C 
ATOM      3  C   UNL d   1      -0.534  -1.592  -0.034  0.00  0.00    -0.036 C 
ATOM      4  O   UNL d   1      -0.940   1.172  -0.486  0.00  0.00    -0.274 OA
ATOM      5  C   UNL d   1       0.365   0.676  -0.381  0.00  0.00     0.093 A 
ATOM      6  C   UNL d   1       0.613  -0.663  -0.080  0.00  0.00     0.005 A 
ATOM      7  C   UNL d   1       1.387   1.615  -0.521  0.00  0.00     0.075 A 
ATOM      8  C   UNL d   1       1.947  -1.035   0.141  0.00  0.00     0.017 A 
ATOM      9  C   UNL d   1       2.700   1.225  -0.287  0.00  0.00     0.082 A 
ATOM     10  O   UNL d   1      -3.026   0.926   0.389  0.00  0.00    -0.259 OA
ATOM     11  C   UNL d   1       2.986  -0.092   0.061  0.00  0.00     0.038 A 
ATOM     12  C   UNL d   1      -0.248  -3.070  -0.027  0.00  0.00     0.050 C 
ENDROOT
BRANCH   9  13
ATOM     13  O   UNL d   1       3.651   2.271  -0.349  0.00  0.00    -0.275 OA
BRANCH  13  14
ATOM     14  C   UNL d   1       5.027   2.116  -0.344  0.00  0.00     0.300 C 
ATOM     15  O   UNL d   1       5.664   1.075  -0.431  0.00  0.00    -0.259 OA
BRANCH  14  16
ATOM     16  C   UNL d   1       5.655   3.453  -0.390  0.00  0.00     0.061 A 
ATOM     17  C   UNL d   1       5.301   4.506   0.463  0.00  0.00     0.050 A 
ATOM     18 CL   UNL d   1       4.170   4.335   1.758  0.00  0.00    -0.083 Cl
ATOM     19  C   UNL d   1       5.920   5.755   0.317  0.00  0.00     0.025 A 
ATOM     20  C   UNL d   1       6.902   5.948  -0.656  0.00  0.00     0.002 A 
ATOM     21  C   UNL d   1       7.287   4.889  -1.476  0.00  0.00     0.001 A 
ATOM     22  C   UNL d   1       6.670   3.644  -1.341  0.00  0.00     0.019 A 
ENDBRANCH  14  16
ENDBRANCH  13  14
ENDBRANCH   9  13
BRANCH   1  23
ATOM     23  C   UNL d   1      -3.075  -1.839  -0.012  0.00  0.00     0.089 C 
BRANCH  23  24
ATOM     24  C   UNL d   1      -3.683  -2.284   1.305  0.00  0.00     0.007 A 
ATOM     25  C   UNL d   1      -3.100  -2.023   2.552  0.00  0.00     0.124 A 
ATOM     26  F   UNL d   1      -1.925  -1.385   2.647  0.00  0.00    -0.205 F 
ATOM     27  C   UNL d   1      -3.701  -2.417   3.748  0.00  0.00     0.043 A 
ATOM     28  C   UNL d   1      -4.916  -3.092   3.730  0.00  0.00     0.005 A 
ATOM     29  C   UNL d   1      -5.516  -3.381   2.509  0.00  0.00     0.024 A 
ATOM     30  C   UNL d   1      -4.907  -2.985   1.311  0.00  0.00     0.043 A 
ATOM     31 CL   UNL d   1      -5.724  -3.405  -0.158  0.00  0.00    -0.084 Cl
ENDBRANCH  23  24
ENDBRANCH   1  23
TORSDOF 5
