REMARK  8 active torsions:
REMARK  status: ('A' for Active; 'I' for Inactive)
REMARK    1  A    between atoms: N_4  and  C_1 
REMARK    2  A    between atoms: S_5  and  C_1 
REMARK    3  A    between atoms: C_3  and  C_7 
REMARK    4  A    between atoms: O_10  and  C_3 
REMARK    5  A    between atoms: C_8  and  N_4 
REMARK    6  A    between atoms: C_7  and  S_5 
REMARK    7  A    between atoms: C_9  and  C_8 
REMARK    8  A    between atoms: C_16  and  O_10 
ROOT
ATOM      1  N   UNL d   1       0.314  -0.836  -0.275  0.00  0.00    -0.371 N 
ATOM      2  H   UNL d   1       0.724  -1.177  -1.135  0.00  0.00     0.161 HD
ENDROOT
BRANCH   1   3
ATOM      3  C   UNL d   1       1.171  -0.172   0.556  0.00  0.00     0.135 C 
ATOM      4  S   UNL d   1       0.832   0.448   2.065  0.00  0.00    -0.053 SA
BRANCH   3   5
ATOM      5  S   UNL d   1       2.703   0.032  -0.277  0.00  0.00    -0.091 SA
BRANCH   5   6
ATOM      6  C   UNL d   1       3.857  -0.727   0.902  0.00  0.00     0.192 C 
BRANCH   6   7
ATOM      7  C   UNL d   1       3.563  -2.190   1.153  0.00  0.00     0.268 C 
ATOM      8  O   UNL d   1       2.668  -2.852   0.648  0.00  0.00    -0.264 OA
BRANCH   7   9
ATOM      9  O   UNL d   1       4.458  -2.667   2.070  0.00  0.00    -0.321 OA
BRANCH   9  10
ATOM     10  C   UNL d   1       4.204  -3.994   2.555  0.00  0.00     0.174 C 
ATOM     11  C   UNL d   1       3.340  -3.897   3.798  0.00  0.00     0.034 C 
ENDBRANCH   9  10
ENDBRANCH   7   9
ENDBRANCH   6   7
ENDBRANCH   5   6
ENDBRANCH   3   5
ENDBRANCH   1   3
BRANCH   1  12
ATOM     12  C   UNL d   1      -1.111  -1.063  -0.102  0.00  0.00     0.159 C 
BRANCH  12  13
ATOM     13  C   UNL d   1      -1.479  -2.523  -0.167  0.00  0.00    -0.041 A 
ATOM     14  C   UNL d   1      -0.792  -3.479   0.592  0.00  0.00     0.009 A 
ATOM     15  C   UNL d   1      -1.173  -4.823   0.563  0.00  0.00     0.007 A 
ATOM     16  C   UNL d   1      -2.264  -5.236  -0.211  0.00  0.00    -0.062 A 
ATOM     17  C   UNL d   1      -2.955  -4.285  -0.966  0.00  0.00     0.007 A 
ATOM     18  C   UNL d   1      -2.647  -6.685  -0.257  0.00  0.00     0.048 C 
ATOM     19  C   UNL d   1      -2.572  -2.941  -0.939  0.00  0.00     0.009 A 
ENDBRANCH  12  13
ENDBRANCH   1  12
TORSDOF 8
