REMARK  2 active torsions:
REMARK  status: ('A' for Active; 'I' for Inactive)
REMARK    1  A    between atoms: C_9  and  N_3 
REMARK    2  A    between atoms: C_8  and  C_5 
ROOT
ATOM      1  N   UNL d   1      -0.329  -1.167  -0.259  0.00  0.00    -0.264 N 
ATOM      2  HN  UNL d   1      -0.527  -2.107  -0.603  1.00  0.00     0.190 HD
ATOM      3  N   UNL d   1       0.863  -0.590   0.048  0.00  0.00    -0.179 N 
ATOM      4  N   UNL d   1       0.762   0.707   0.428  0.00  0.00     0.003 NA
ATOM      5  C   UNL d   1      -1.175  -0.162   0.017  0.00  0.00     0.144 A 
ATOM      6  N   UNL d   1      -0.531   0.982   0.413  0.00  0.00    -0.266 N 
ATOM      7  HN  UNL d   1      -0.966   1.874   0.649  1.00  0.00     0.186 HD
ENDROOT
BRANCH   5   8
ATOM      8  C   UNL d   1      -2.629  -0.261  -0.032  0.00  0.00     0.012 A 
ATOM      9  C   UNL d   1      -3.261  -1.452  -0.422  0.00  0.00     0.041 A 
ATOM     10  C   UNL d   1      -4.656  -1.556  -0.408  0.00  0.00     0.056 A 
ATOM     11 CL   UNL d   1      -5.355  -3.064  -0.882  0.00  0.00    -0.083 Cl
ATOM     12  C   UNL d   1      -5.438  -0.466  -0.006  0.00  0.00     0.055 A 
ATOM     13  C   UNL d   1      -4.817   0.727   0.368  0.00  0.00     0.026 A 
ATOM     14 CL   UNL d   1      -7.162  -0.530   0.058  0.00  0.00    -0.083 Cl
ATOM     15  C   UNL d   1      -3.423   0.830   0.354  0.00  0.00     0.017 A 
ENDBRANCH   5   8
BRANCH   3  16
ATOM     16  C   UNL d   1       2.094  -1.288   0.024  0.00  0.00     0.073 A 
ATOM     17  C   UNL d   1       2.142  -2.619  -0.409  0.00  0.00     0.033 A 
ATOM     18  C   UNL d   1       3.358  -3.307  -0.408  0.00  0.00     0.009 A 
ATOM     19  C   UNL d   1       4.531  -2.682   0.035  0.00  0.00    -0.062 A 
ATOM     20  C   UNL d   1       4.477  -1.349   0.460  0.00  0.00     0.009 A 
ATOM     21  C   UNL d   1       5.831  -3.433   0.027  0.00  0.00     0.048 C 
ATOM     22  C   UNL d   1       3.266  -0.652   0.454  0.00  0.00     0.033 A 
ENDBRANCH   3  16
TORSDOF 2
