REMARK  2 active torsions:
REMARK  status: ('A' for Active; 'I' for Inactive)
REMARK    1  A    between atoms: N_11  and  C_3 
REMARK    2  A    between atoms: C_10  and  C_4 
ROOT
ATOM      1  C   UNL d   1      -1.697  -0.349   0.117  0.00  0.00     0.080 A 
ATOM      2  C   UNL d   1       0.815  -0.401   0.036  0.00  0.00     0.031 A 
ATOM      3  C   UNL d   1      -1.622   0.995   0.029  0.00  0.00     0.138 A 
ATOM      4  C   UNL d   1      -0.450  -1.223   0.117  0.00  0.00     0.105 A 
ATOM      5  C   UNL d   1       0.786   0.939  -0.068  0.00  0.00     0.066 A 
ATOM      6  O   UNL d   1      -0.403   1.648  -0.102  0.00  0.00    -0.301 OA
ATOM      7  C   UNL d   1      -2.961  -0.993   0.247  0.00  0.00     0.100 C 
ATOM      8  C   UNL d   1       2.139  -1.090   0.107  0.00  0.00     0.159 C 
ATOM      9  N   UNL d   1      -4.003  -1.501   0.330  0.00  0.00    -0.191 NA
ATOM     10  O   UNL d   1       2.205  -2.304   0.286  0.00  0.00    -0.293 OA
ATOM     11  C   UNL d   1       2.003   1.818  -0.103  0.00  0.00     0.066 C 
ATOM     12  C   UNL d   1       3.394  -0.268  -0.093  0.00  0.00     0.084 C 
ATOM     13  C   UNL d   1       3.227   1.127   0.484  0.00  0.00     0.014 C 
ENDROOT
BRANCH   3  14
ATOM     14  N   UNL d   1      -2.687   1.866   0.055  0.00  0.00    -0.282 NA
ATOM     15  H   UNL d   1      -3.586   1.486  -0.235  0.00  0.00     0.126 HD
ATOM     16  H   UNL d   1      -2.470   2.765  -0.367  0.00  0.00     0.126 HD
ENDBRANCH   3  14
BRANCH   4  17
ATOM     17  C   UNL d   1      -0.520  -2.310  -0.960  0.00  0.00    -0.044 A 
ATOM     18  C   UNL d   1      -0.619  -3.659  -0.574  0.00  0.00     0.010 A 
ATOM     19  C   UNL d   1      -0.644  -4.676  -1.530  0.00  0.00     0.024 A 
ATOM     20  C   UNL d   1      -0.578  -4.352  -2.881  0.00  0.00     0.034 A 
ATOM     21  C   UNL d   1      -0.494  -3.018  -3.285  0.00  0.00     0.024 A 
ATOM     22 CL   UNL d   1      -0.588  -5.603  -4.062  0.00  0.00    -0.084 Cl
ATOM     23  C   UNL d   1      -0.469  -2.000  -2.329  0.00  0.00     0.010 A 
ENDBRANCH   4  17
TORSDOF 2
