REMARK  19 active torsions:
REMARK  status: ('A' for Active; 'I' for Inactive)
REMARK    1  A    between atoms: C_14  and  C_5 
REMARK    2  A    between atoms: N_7  and  C_9 
REMARK    3  A    between atoms: N_8  and  C_13 
REMARK    4  A    between atoms: O_23  and  C_14 
REMARK    5  A    between atoms: C_24  and  O_23 
REMARK    6  A    between atoms: C_25  and  C_24 
REMARK    7  A    between atoms: C_37  and  C_25 
REMARK    8  A    between atoms: C_26  and  C_27 
REMARK    9  A    between atoms: C_27  and  C_36 
REMARK   10  A    between atoms: C_28  and  C_38 
REMARK   11  A    between atoms: C_29  and  C_28 
REMARK   12  A    between atoms: C_30  and  C_29 
REMARK   13  A    between atoms: C_31  and  C_30 
REMARK   14  A    between atoms: C_32  and  C_31 
REMARK   15  A    between atoms: C_33  and  C_32 
REMARK   16  A    between atoms: C_34  and  C_33 
REMARK   17  A    between atoms: C_35  and  C_34 
REMARK   18  A    between atoms: C_36  and  C_35 
REMARK   19  A    between atoms: C_38  and  C_37 
ROOT
ATOM      1  C   UNL d   1      -1.773   3.184   3.923  0.00  0.00     0.006 A 
ATOM      2  C   UNL d   1      -2.305   1.872   3.857  0.00  0.00     0.029 A 
ATOM      3  C   UNL d   1      -1.364   2.196   6.022  0.00  0.00     0.028 A 
ATOM      4  C   UNL d   1      -1.208   3.373   5.259  0.00  0.00    -0.010 A 
ATOM      5  C   UNL d   1      -1.831   3.984   2.767  0.00  0.00     0.053 A 
ATOM      6  C   UNL d   1      -2.085   1.211   5.175  0.00  0.00     0.194 A 
ATOM      7  C   UNL d   1      -2.934   2.123   1.589  0.00  0.00     0.104 A 
ATOM      8  C   UNL d   1      -2.886   1.319   2.733  0.00  0.00     0.052 A 
ATOM      9  C   UNL d   1      -2.413   3.443   1.603  0.00  0.00     0.054 A 
ATOM     10  C   UNL d   1      -0.874   2.040   7.312  0.00  0.00     0.052 A 
ATOM     11  C   UNL d   1      -0.192   3.134   7.864  0.00  0.00     0.103 A 
ATOM     12  C   UNL d   1      -0.548   4.443   5.851  0.00  0.00     0.016 A 
ATOM     13  O   UNL d   1      -2.421   0.096   5.484  0.00  0.00    -0.287 OA
ATOM     14  C   UNL d   1      -0.046   4.329   7.147  0.00  0.00     0.037 A 
ENDROOT
BRANCH   5  15
ATOM     15  C   UNL d   1      -1.378   5.402   2.766  0.00  0.00     0.294 C 
ATOM     16  O   UNL d   1      -1.471   6.113   3.750  0.00  0.00    -0.259 OA
BRANCH  15  17
ATOM     17  O   UNL d   1      -0.901   5.816   1.565  0.00  0.00    -0.317 OA
BRANCH  17  18
ATOM     18  C   UNL d   1      -0.493   7.200   1.586  0.00  0.00     0.179 C 
BRANCH  18  19
ATOM     19  C   UNL d   1      -1.694   8.131   1.548  0.00  0.00     0.027 C 
BRANCH  19  20
ATOM     20  C   UNL d   1      -2.511   7.954   0.269  0.00  0.00     0.002 C 
BRANCH  20  21
ATOM     21  C   UNL d   1      -3.719   8.882   0.256  0.00  0.00     0.000 C 
BRANCH  21  22
ATOM     22  C   UNL d   1      -3.289  10.341   0.328  0.00  0.00     0.000 C 
BRANCH  22  23
ATOM     23  C   UNL d   1      -4.494  11.255   0.322  0.00  0.00     0.000 C 
BRANCH  23  24
ATOM     24  C   UNL d   1      -4.036  12.700   0.408  0.00  0.00     0.000 C 
BRANCH  24  25
ATOM     25  C   UNL d   1      -5.243  13.617   0.402  0.00  0.00     0.000 C 
BRANCH  25  26
ATOM     26  C   UNL d   1      -4.793  15.063   0.481  0.00  0.00     0.000 C 
BRANCH  26  27
ATOM     27  C   UNL d   1      -6.002  15.979   0.474  0.00  0.00     0.000 C 
BRANCH  27  28
ATOM     28  C   UNL d   1      -5.553  17.427   0.550  0.00  0.00     0.000 C 
BRANCH  28  29
ATOM     29  C   UNL d   1      -6.762  18.345   0.543  0.00  0.00     0.000 C 
BRANCH  29  30
ATOM     30  C   UNL d   1      -6.314  19.795   0.620  0.00  0.00     0.000 C 
BRANCH  30  31
ATOM     31  C   UNL d   1      -7.523  20.716   0.616  0.00  0.00    -0.000 C 
BRANCH  31  32
ATOM     32  C   UNL d   1      -7.085  22.171   0.692  0.00  0.00    -0.005 C 
ATOM     33  C   UNL d   1      -8.293  23.088   0.689  0.00  0.00     0.005 C 
ENDBRANCH  31  32
ENDBRANCH  30  31
ENDBRANCH  29  30
ENDBRANCH  28  29
ENDBRANCH  27  28
ENDBRANCH  26  27
ENDBRANCH  25  26
ENDBRANCH  24  25
ENDBRANCH  23  24
ENDBRANCH  22  23
ENDBRANCH  21  22
ENDBRANCH  20  21
ENDBRANCH  19  20
ENDBRANCH  18  19
ENDBRANCH  17  18
ENDBRANCH  15  17
ENDBRANCH   5  15
BRANCH   7  34
ATOM     34  N   UNL d   1      -3.529   1.597   0.347  0.00  0.00    -0.116 N 
ATOM     35  O   UNL d   1      -3.965   0.440   0.360  0.00  0.00    -0.532 OA
ATOM     36  O   UNL d   1      -3.553   2.350  -0.637  0.00  0.00    -0.532 OA
ENDBRANCH   7  34
BRANCH  11  37
ATOM     37  N   UNL d   1       0.424   3.053   9.194  0.00  0.00    -0.116 N 
ATOM     38  O   UNL d   1       0.331   1.984   9.808  0.00  0.00    -0.532 OA
ATOM     39  O   UNL d   1       1.013   4.060   9.615  0.00  0.00    -0.532 OA
ENDBRANCH  11  37
TORSDOF 19
