REMARK  3 active torsions:
REMARK  status: ('A' for Active; 'I' for Inactive)
REMARK    1  A    between atoms: C_7  and  N_1 
REMARK    2  A    between atoms: N_6  and  C_4 
REMARK    3  A    between atoms: O_17  and  C_12 
ROOT
ATOM      1  N   UNL d   1       0.058   0.863  -0.013  0.00  0.00    -0.251 N 
ATOM      2  C   UNL d   1      -1.073   0.117   0.244  0.00  0.00     0.265 C 
ATOM      3  C   UNL d   1       1.167   0.059  -0.163  0.00  0.00     0.233 C 
ATOM      4  C   UNL d   1      -0.741  -1.352   0.036  0.00  0.00     0.323 C 
ATOM      5  C   UNL d   1       0.777  -1.371   0.058  0.00  0.00     0.149 C 
ATOM      6  O   UNL d   1      -2.197   0.507   0.546  0.00  0.00    -0.270 OA
ATOM      7  O   UNL d   1       2.335   0.382  -0.347  0.00  0.00    -0.273 OA
ENDROOT
BRANCH   1   8
ATOM      8  C   UNL d   1       0.087   2.289  -0.070  0.00  0.00     0.045 A 
ATOM      9  C   UNL d   1      -0.897   3.068   0.556  0.00  0.00     0.033 A 
ATOM     10  C   UNL d   1      -0.864   4.468   0.513  0.00  0.00     0.039 A 
ATOM     11  C   UNL d   1       0.146   5.122  -0.183  0.00  0.00     0.068 A 
ATOM     12  C   UNL d   1       1.131   4.367  -0.813  0.00  0.00     0.039 A 
ATOM     13  C   UNL d   1       1.102   2.968  -0.759  0.00  0.00     0.033 A 
BRANCH  11  14
ATOM     14  O   UNL d   1       0.298   6.476  -0.272  0.00  0.00    -0.356 OA
ATOM     15  C   UNL d   1      -0.904   7.234  -0.209  0.00  0.00     0.210 C 
ENDBRANCH  11  14
ENDBRANCH   1   8
BRANCH   4  16
ATOM     16  N   UNL d   1      -1.349  -1.944  -1.188  0.00  0.00     0.102 N 
ATOM     17  C   UNL d   1      -0.948  -1.298  -2.448  0.00  0.00     0.273 C 
ATOM     18  C   UNL d   1      -1.526  -2.031  -3.661  0.00  0.00     0.030 C 
ATOM     19  C   UNL d   1      -3.043  -2.118  -3.576  0.00  0.00     0.003 C 
ATOM     20  C   UNL d   1      -3.452  -2.756  -2.254  0.00  0.00     0.030 C 
ATOM     21  C   UNL d   1      -2.818  -2.022  -1.071  0.00  0.00     0.273 C 
ENDBRANCH   4  16
TORSDOF 3
