REMARK  3 active torsions:
REMARK  status: ('A' for Active; 'I' for Inactive)
REMARK    1  A    between atoms: C_6  and  C_1 
REMARK    2  A    between atoms: C_5  and  C_2 
REMARK       I    between atoms: N_9  and  C_5 
REMARK    3  A    between atoms: C_13  and  N_9 
ROOT
ATOM      1  C   UNL d   1      -1.513  -0.424   0.500  0.00  0.00     0.086 A 
ATOM      2  C   UNL d   1      -0.236  -1.030   0.265  0.00  0.00     0.093 A 
ATOM      3  N   UNL d   1      -1.369   0.902   0.664  0.00  0.00    -0.259 N 
ATOM      4  HN  UNL d   1      -2.100   1.567   0.921  1.00  0.00     0.195 HD
ATOM      5  O   UNL d   1      -0.052   1.191   0.420  0.00  0.00    -0.241 OA
ATOM      6  C   UNL d   1       0.626   0.048   0.159  0.00  0.00     0.090 A 
ATOM      7  C   UNL d   1       2.052   0.237  -0.175  0.00  0.00     0.080 C 
ENDROOT
BRANCH   2   8
ATOM      8  C   UNL d   1       0.104  -2.439   0.135  0.00  0.00     0.261 C 
ATOM      9  N   UNL d   1       1.303  -2.749   0.756  0.00  0.00    -0.323 N 
ATOM     10  H   UNL d   1       1.769  -1.990   1.232  0.00  0.00     0.169 HD
ATOM     11  O   UNL d   1      -0.646  -3.221  -0.430  0.00  0.00    -0.267 OA
BRANCH   9  12
ATOM     12  C   UNL d   1       1.921  -4.004   0.910  0.00  0.00     0.035 A 
ATOM     13  C   UNL d   1       1.372  -5.212   0.487  0.00  0.00     0.029 A 
ATOM     14  C   UNL d   1       2.051  -6.413   0.721  0.00  0.00     0.002 A 
ATOM     15  C   UNL d   1       3.287  -6.414   1.367  0.00  0.00     0.000 A 
ATOM     16  C   UNL d   1       3.848  -5.212   1.783  0.00  0.00     0.002 A 
ATOM     17  C   UNL d   1       3.167  -4.014   1.557  0.00  0.00     0.029 A 
ENDBRANCH   9  12
ENDBRANCH   2   8
BRANCH   1  18
ATOM     18  C   UNL d   1      -2.849  -1.016   0.624  0.00  0.00     0.037 A 
ATOM     19  C   UNL d   1      -3.140  -2.010   1.576  0.00  0.00     0.048 A 
ATOM     20 CL   UNL d   1      -1.965  -2.624   2.693  0.00  0.00    -0.083 Cl
ATOM     21  C   UNL d   1      -4.442  -2.516   1.713  0.00  0.00     0.025 A 
ATOM     22  C   UNL d   1      -5.483  -2.017   0.935  0.00  0.00     0.003 A 
ATOM     23  C   UNL d   1      -5.219  -1.026  -0.004  0.00  0.00     0.025 A 
ATOM     24  C   UNL d   1      -3.915  -0.541  -0.173  0.00  0.00     0.048 A 
ATOM     25 CL   UNL d   1      -3.709   0.647  -1.423  0.00  0.00    -0.083 Cl
ENDBRANCH   1  18
TORSDOF 3
