REMARK  4 active torsions:
REMARK  status: ('A' for Active; 'I' for Inactive)
REMARK    1  A    between atoms: N_3  and  C_1 
REMARK    2  A    between atoms: N_7  and  C_4 
REMARK       I    between atoms: C_9  and  N_7 
REMARK       I    between atoms: N_13  and  C_9 
REMARK    3  A    between atoms: C_16  and  N_13 
REMARK    4  A    between atoms: C_14  and  C_16 
ROOT
ATOM      1  C   UNL d   1      -3.517  -3.471  -0.202  0.00  0.00     0.162 A 
ATOM      2  S   UNL d   1      -2.437  -2.166  -0.388  0.00  0.00    -0.028 SA
ATOM      3  C   UNL d   1      -1.159  -3.229  -0.009  0.00  0.00     0.154 A 
ATOM      4  N   UNL d   1      -1.488  -4.467   0.283  0.00  0.00    -0.343 N 
ATOM      5  HN  UNL d   1      -0.833  -5.208   0.534  1.00  0.00     0.167 HD
ATOM      6  C   UNL d   1      -2.853  -4.605   0.198  0.00  0.00     0.134 A 
ENDROOT
BRANCH   3   7
ATOM      7  N   UNL d   1       0.104  -2.717  -0.072  0.00  0.00    -0.289 N 
ATOM      8  C   UNL d   1       1.242  -3.467  -0.018  0.00  0.00     0.322 C 
ATOM      9  O   UNL d   1       2.338  -2.915  -0.005  0.00  0.00    -0.247 OA
ATOM     10  N   UNL d   1       1.086  -4.822  -0.028  0.00  0.00    -0.339 N 
ATOM     11  H   UNL d   1       0.137  -5.182  -0.002  0.00  0.00     0.164 HD
ATOM     12  H   UNL d   1       0.233  -1.722  -0.184  0.00  0.00     0.172 HD
BRANCH  10  13
ATOM     13  C   UNL d   1       2.162  -5.772   0.026  0.00  0.00     0.150 C 
BRANCH  13  14
ATOM     14  C   UNL d   1       2.522  -6.157  -1.374  0.00  0.00    -0.018 C 
ATOM     15  C   UNL d   1       2.487  -7.409  -1.851  0.00  0.00     0.008 C 
ENDBRANCH  13  14
ENDBRANCH  10  13
ENDBRANCH   3   7
BRANCH   1  16
ATOM     16  N   UNL d   1      -4.917  -3.356  -0.445  0.00  0.00    -0.107 N 
ATOM     17  O   UNL d   1      -5.596  -4.365  -0.225  0.00  0.00    -0.531 OA
ATOM     18  O   UNL d   1      -5.348  -2.275  -0.863  0.00  0.00    -0.531 OA
ENDBRANCH   1  16
TORSDOF 4
