REMARK  4 active torsions:
REMARK  status: ('A' for Active; 'I' for Inactive)
REMARK    1  A    between atoms: C_3  and  C_1 
REMARK       I    between atoms: N_4  and  C_1 
REMARK    2  A    between atoms: C_2  and  C_3 
REMARK    3  A    between atoms: O_8  and  C_3 
REMARK    4  A    between atoms: C_7  and  N_4 
ROOT
ATOM      1  C   UNL d   1       1.043  -0.105   0.087  0.00  0.00     0.255 C 
ATOM      2  N   UNL d   1       0.354  -0.005   1.284  0.00  0.00    -0.325 N 
ATOM      3  O   UNL d   1       2.167   0.351  -0.137  0.00  0.00    -0.270 OA
ATOM      4  H   UNL d   1      -0.441  -0.619   1.414  0.00  0.00     0.169 HD
ENDROOT
BRANCH   1   5
ATOM      5  C   UNL d   1       0.318  -0.918  -1.011  0.00  0.00     0.245 C 
BRANCH   5   6
ATOM      6  C   UNL d   1      -0.405  -0.032  -2.007  0.00  0.00     0.001 A 
ATOM      7  C   UNL d   1      -1.760  -0.199  -2.333  0.00  0.00     0.043 A 
ATOM      8 CL   UNL d   1      -2.758  -1.382  -1.563  0.00  0.00    -0.084 Cl
ATOM      9  C   UNL d   1      -2.366   0.603  -3.310  0.00  0.00     0.024 A 
ATOM     10  C   UNL d   1      -1.634   1.591  -3.967  0.00  0.00     0.002 A 
ATOM     11  C   UNL d   1      -0.296   1.783  -3.648  0.00  0.00     0.001 A 
ATOM     12  C   UNL d   1       0.313   0.979  -2.683  0.00  0.00     0.012 A 
ENDBRANCH   5   6
BRANCH   5  13
ATOM     13  O   UNL d   1       1.268  -1.702  -1.738  0.00  0.00    -0.381 OA
ATOM     14  H   UNL d   1       2.082  -1.162  -1.775  0.00  0.00     0.211 HD
ENDBRANCH   5  13
ENDBRANCH   1   5
BRANCH   2  15
ATOM     15  C   UNL d   1       0.733   0.773   2.400  0.00  0.00     0.034 A 
ATOM     16  C   UNL d   1       1.698   1.784   2.338  0.00  0.00     0.031 A 
ATOM     17  C   UNL d   1       2.012   2.541   3.472  0.00  0.00     0.026 A 
ATOM     18  C   UNL d   1       1.365   2.286   4.676  0.00  0.00     0.034 A 
ATOM     19  C   UNL d   1       0.403   1.283   4.755  0.00  0.00     0.026 A 
ATOM     20 CL   UNL d   1       1.750   3.219   6.069  0.00  0.00    -0.084 Cl
ATOM     21  C   UNL d   1       0.081   0.534   3.615  0.00  0.00     0.031 A 
ENDBRANCH   2  15
TORSDOF 4
