REMARK  5 active torsions:
REMARK  status: ('A' for Active; 'I' for Inactive)
REMARK    1  A    between atoms: C_2  and  S_1 
REMARK    2  A    between atoms: N_4  and  S_1 
REMARK    3  A    between atoms: C_5  and  C_3 
REMARK    4  A    between atoms: C_12  and  N_4 
REMARK    5  A    between atoms: O_13  and  C_5 
ROOT
ATOM      1  S   UNL d   1       0.968  -0.148  -0.111  0.00  0.00     0.264 S 
ATOM      2  O   UNL d   1       0.316   0.644   0.907  0.00  0.00    -0.200 OA
ATOM      3  O   UNL d   1       2.412  -0.210  -0.202  0.00  0.00    -0.200 OA
ENDROOT
BRANCH   1   4
ATOM      4  C   UNL d   1       0.474   0.623  -1.589  0.00  0.00     0.104 A 
ATOM      5  C   UNL d   1      -0.842   0.868  -1.946  0.00  0.00     0.101 A 
ATOM      6  S   UNL d   1      -0.926   1.715  -3.441  0.00  0.00    -0.094 SA
ATOM      7  C   UNL d   1       0.773   1.755  -3.603  0.00  0.00     0.052 A 
ATOM      8  C   UNL d   1       1.403   1.143  -2.545  0.00  0.00     0.034 A 
BRANCH   5   9
ATOM      9  C   UNL d   1      -2.057   0.487  -1.254  0.00  0.00     0.184 C 
ATOM     10  O   UNL d   1      -2.181  -0.480  -0.512  0.00  0.00    -0.646 OA
BRANCH   9  11
ATOM     11  O   UNL d   1      -3.100   1.312  -1.521  0.00  0.00    -0.772 OA
ATOM     12  H   UNL d   1      -2.845   2.053  -2.105  0.00  0.00     0.167 HD
ENDBRANCH   9  11
ENDBRANCH   5   9
ENDBRANCH   1   4
BRANCH   1  13
ATOM     13  N   UNL d   1       0.359  -1.692  -0.042  0.00  0.00    -0.281 N 
ATOM     14  H   UNL d   1      -0.243  -1.917   0.748  0.00  0.00     0.179 HD
BRANCH  13  15
ATOM     15  C   UNL d   1       0.794  -2.696  -0.929  0.00  0.00     0.042 A 
ATOM     16  C   UNL d   1       1.938  -3.442  -0.649  0.00  0.00     0.032 A 
ATOM     17  C   UNL d   1       2.309  -4.487  -1.500  0.00  0.00     0.026 A 
ATOM     18  C   UNL d   1       1.533  -4.776  -2.623  0.00  0.00     0.034 A 
ATOM     19  C   UNL d   1       0.389  -4.029  -2.902  0.00  0.00     0.026 A 
ATOM     20 CL   UNL d   1       1.978  -6.072  -3.662  0.00  0.00    -0.084 Cl
ATOM     21  C   UNL d   1       0.015  -2.991  -2.047  0.00  0.00     0.032 A 
ENDBRANCH  13  15
ENDBRANCH   1  13
TORSDOF 5
