REMARK  3 active torsions:
REMARK  status: ('A' for Active; 'I' for Inactive)
REMARK    1  A    between atoms: C_2  and  C_1 
REMARK    2  A    between atoms: O_16  and  C_1 
REMARK    3  A    between atoms: C_14  and  C_9 
ROOT
ATOM      1  N   UNL d   1       3.218  -4.304  -2.222  0.00  0.00    -0.354 N 
ATOM      2  S   UNL d   1       5.800  -4.218  -0.476  0.00  0.00    -0.086 SA
ATOM      3  C   UNL d   1       3.326  -3.221  -1.335  0.00  0.00     0.050 A 
ATOM      4  C   UNL d   1       4.423  -3.081  -0.464  0.00  0.00     0.032 A 
ATOM      5  C   UNL d   1       3.967  -5.492  -2.166  0.00  0.00     0.050 A 
ATOM      6  C   UNL d   1       5.112  -5.612  -1.358  0.00  0.00     0.032 A 
ATOM      7  C   UNL d   1       2.249  -1.321  -0.247  0.00  0.00    -0.010 A 
ATOM      8  C   UNL d   1       2.250  -2.331  -1.218  0.00  0.00     0.044 A 
ATOM      9  C   UNL d   1       4.447  -2.031   0.463  0.00  0.00     0.022 A 
ATOM     10  C   UNL d   1       3.363  -1.154   0.575  0.00  0.00     0.015 A 
ATOM     11  C   UNL d   1       3.496  -6.624  -2.849  0.00  0.00     0.031 A 
ATOM     12  C   UNL d   1       5.753  -6.853  -1.235  0.00  0.00     0.021 A 
ATOM     13  C   UNL d   1       4.135  -7.858  -2.714  0.00  0.00     0.002 A 
ATOM     14  C   UNL d   1       5.258  -7.974  -1.902  0.00  0.00     0.002 A 
ATOM     15  H   UNL d   1       2.471  -4.266  -2.900  0.00  0.00     0.166 HD
ENDROOT
BRANCH   7  16
ATOM     16  C   UNL d   1       1.017  -0.514  -0.064  0.00  0.00     0.035 C 
ATOM     17  C   UNL d   1       0.900   0.524   1.019  0.00  0.00     0.124 C 
ATOM     18  C   UNL d   1      -0.619   0.666   1.063  0.00  0.00     0.233 C 
ATOM     19  N   UNL d   1      -0.971   0.204  -0.285  0.00  0.00    -0.198 NA
ATOM     20  N   UNL d   1      -0.051  -0.662  -0.790  0.00  0.00    -0.322 N 
ATOM     21  H   UNL d   1      -1.912  -0.181  -0.328  0.00  0.00     0.150 HD
ATOM     22  HN  UNL d   1      -0.174  -1.298  -1.578  1.00  0.00     0.180 HD
BRANCH  18  23
ATOM     23  C   UNL d   1      -1.042   2.119   1.402  0.00  0.00     0.434 C 
ATOM     24  F   UNL d   1      -0.839   2.981   0.382  0.00  0.00    -0.166 F 
ATOM     25  F   UNL d   1      -2.364   2.155   1.713  0.00  0.00    -0.166 F 
ATOM     26  F   UNL d   1      -0.367   2.595   2.476  0.00  0.00    -0.166 F 
ENDBRANCH  18  23
BRANCH  18  27
ATOM     27  O   UNL d   1      -1.123  -0.274   2.027  0.00  0.00    -0.366 OA
ATOM     28  H   UNL d   1      -2.075  -0.089   2.120  0.00  0.00     0.212 HD
ENDBRANCH  18  27
ENDBRANCH   7  16
TORSDOF 3
