REMARK  1 active torsions:
REMARK  status: ('A' for Active; 'I' for Inactive)
REMARK    1  A    between atoms: N_2  and  C_1 
REMARK       I    between atoms: C_3  and  N_2 
ROOT
ATOM      1  C   UNL d   1      -0.503   0.895   0.018  0.00  0.00     0.095 A 
ATOM      2  C   UNL d   1      -1.740   0.240   0.002  0.00  0.00     0.144 A 
ATOM      3  C   UNL d   1       0.651   0.082   0.017  0.00  0.00     0.064 A 
ATOM      4  F   UNL d   1      -2.905   0.896  -0.003  0.00  0.00    -0.204 F 
ATOM      5 CL   UNL d   1       2.237   0.786   0.035  0.00  0.00    -0.082 Cl
ATOM      6  C   UNL d   1      -0.676  -1.938  -0.011  0.00  0.00     0.005 A 
ATOM      7  C   UNL d   1       0.568  -1.316   0.003  0.00  0.00     0.026 A 
ATOM      8  C   UNL d   1      -1.827  -1.156  -0.012  0.00  0.00     0.045 A 
ENDROOT
BRANCH   1   9
ATOM      9  N   UNL d   1      -0.303   2.304   0.040  0.00  0.00    -0.324 N 
ATOM     10  C   UNL d   1      -1.233   3.322   0.052  0.00  0.00     0.218 C 
ATOM     11  O   UNL d   1      -2.452   3.223   0.035  0.00  0.00    -0.274 OA
ATOM     12  C   UNL d   1      -0.600   4.694   0.086  0.00  0.00     0.117 C 
ATOM     13  H   UNL d   1       0.674   2.577   0.051  0.00  0.00     0.169 HD
ENDBRANCH   1   9
TORSDOF 1
