REMARK  10 active torsions:
REMARK  status: ('A' for Active; 'I' for Inactive)
REMARK    1  A    between atoms: C_8  and  C_1 
REMARK    2  A    between atoms: C_7  and  C_2 
REMARK    3  A    between atoms: C_21  and  N_3 
REMARK    4  A    between atoms: C_15  and  C_6 
REMARK       I    between atoms: N_13  and  C_7 
REMARK    5  A    between atoms: C_9  and  O_16 
REMARK    6  A    between atoms: N_10  and  C_23 
REMARK    7  A    between atoms: C_12  and  C_18 
REMARK    8  A    between atoms: C_14  and  N_13 
REMARK    9  A    between atoms: O_41  and  C_15 
REMARK   10  A    between atoms: O_16  and  C_19 
ROOT
ATOM      1  C   UNL d   1      -0.641  -4.519  -0.174  0.00  0.00     0.260 C 
ATOM      2  N   UNL d   1       0.161  -3.445   0.157  0.00  0.00    -0.320 N 
ATOM      3  O   UNL d   1      -1.632  -4.321  -0.875  0.00  0.00    -0.267 OA
ATOM      4  H   UNL d   1      -0.300  -2.549   0.042  0.00  0.00     0.169 HD
ENDROOT
BRANCH   2   5
ATOM      5  C   UNL d   1       1.544  -3.379   0.411  0.00  0.00     0.070 A 
ATOM      6  C   UNL d   1       2.066  -2.368   1.248  0.00  0.00     0.102 A 
ATOM      7  C   UNL d   1       3.439  -2.348   1.518  0.00  0.00     0.040 A 
ATOM      8  C   UNL d   1       4.301  -3.250   0.889  0.00  0.00     0.019 A 
ATOM      9  C   UNL d   1       3.812  -4.173  -0.045  0.00  0.00     0.050 A 
ATOM     10  C   UNL d   1       2.423  -4.272  -0.234  0.00  0.00     0.048 A 
BRANCH   6  11
ATOM     11  O   UNL d   1       1.245  -1.368   1.776  0.00  0.00    -0.307 OA
BRANCH  11  12
ATOM     12  C   UNL d   1       1.289  -1.068   3.113  0.00  0.00     0.099 A 
ATOM     13  C   UNL d   1       1.008   0.191   3.645  0.00  0.00     0.114 A 
ATOM     14  S   UNL d   1       1.148   0.149   5.383  0.00  0.00    -0.093 SA
ATOM     15  C   UNL d   1       1.533  -1.496   5.411  0.00  0.00     0.053 A 
ATOM     16  C   UNL d   1       1.583  -2.022   4.141  0.00  0.00     0.046 A 
BRANCH  13  17
ATOM     17  C   UNL d   1       0.654   1.508   3.131  0.00  0.00     0.302 C 
ATOM     18  O   UNL d   1       0.551   2.518   3.815  0.00  0.00    -0.259 OA
BRANCH  17  19
ATOM     19  O   UNL d   1       0.425   1.519   1.778  0.00  0.00    -0.322 OA
ATOM     20  C   UNL d   1       0.018   2.823   1.331  0.00  0.00     0.213 C 
ENDBRANCH  17  19
ENDBRANCH  13  17
ENDBRANCH  11  12
ENDBRANCH   6  11
BRANCH   9  21
ATOM     21  C   UNL d   1       4.786  -4.960  -0.895  0.00  0.00     0.417 C 
ATOM     22  F   UNL d   1       4.184  -5.729  -1.843  0.00  0.00    -0.166 F 
ATOM     23  F   UNL d   1       5.643  -4.144  -1.571  0.00  0.00    -0.166 F 
ATOM     24  F   UNL d   1       5.566  -5.801  -0.165  0.00  0.00    -0.166 F 
ENDBRANCH   9  21
ENDBRANCH   2   5
BRANCH   1  25
ATOM     25  C   UNL d   1      -0.390  -5.853   0.378  0.00  0.00     0.082 C 
ATOM     26  C   UNL d   1       0.208  -6.253   1.572  0.00  0.00     0.157 C 
ATOM     27  N   UNL d   1       0.189  -7.637   1.596  0.00  0.00    -0.251 N 
ATOM     28  N   UNL d   1      -0.660  -8.115   0.653  0.00  0.00    -0.303 N 
ATOM     29  C   UNL d   1      -0.973  -7.054  -0.089  0.00  0.00     0.127 C 
ATOM     30  HN  UNL d   1      -0.986  -9.074   0.537  1.00  0.00     0.186 HD
BRANCH  26  31
ATOM     31  C   UNL d   1       0.608  -5.472   2.746  0.00  0.00     0.435 C 
ATOM     32  F   UNL d   1      -0.023  -4.274   2.799  0.00  0.00    -0.165 F 
ATOM     33  F   UNL d   1       0.311  -6.089   3.916  0.00  0.00    -0.165 F 
ATOM     34  F   UNL d   1       1.939  -5.218   2.764  0.00  0.00    -0.165 F 
ENDBRANCH  26  31
BRANCH  27  35
ATOM     35  C   UNL d   1       0.873  -8.562   2.451  0.00  0.00     0.057 A 
ATOM     36  C   UNL d   1       0.334  -9.844   2.653  0.00  0.00     0.034 A 
ATOM     37  C   UNL d   1       0.949 -10.747   3.531  0.00  0.00     0.038 A 
ATOM     38  C   UNL d   1       2.126 -10.375   4.191  0.00  0.00     0.103 A 
ATOM     39  C   UNL d   1       2.704  -9.123   3.952  0.00  0.00     0.038 A 
ATOM     40  C   UNL d   1       2.083  -8.226   3.076  0.00  0.00     0.034 A 
BRANCH  38  41
ATOM     41  N   UNL d   1       2.763 -11.299   5.140  0.00  0.00    -0.116 N 
ATOM     42  O   UNL d   1       2.232 -12.405   5.312  0.00  0.00    -0.532 OA
ATOM     43  O   UNL d   1       3.791 -10.914   5.716  0.00  0.00    -0.532 OA
ENDBRANCH  38  41
ENDBRANCH  27  35
ENDBRANCH   1  25
TORSDOF 10
