REMARK  8 active torsions:
REMARK  status: ('A' for Active; 'I' for Inactive)
REMARK    1  A    between atoms: C_3  and  N_1 
REMARK       I    between atoms: C_2  and  N_10 
REMARK    2  A    between atoms: C_6  and  C_2 
REMARK    3  A    between atoms: C_21  and  N_4 
REMARK    4  A    between atoms: N_10  and  C_25 
REMARK    5  A    between atoms: O_20  and  C_16 
REMARK    6  A    between atoms: C_27  and  C_21 
REMARK    7  A    between atoms: C_25  and  C_28 
REMARK    8  A    between atoms: C_28  and  C_27 
ROOT
ATOM      1  C   UNL d   1       2.302  -1.263  -2.224  0.00  0.00     0.032 C 
ENDROOT
BRANCH   1   2
ATOM      2  C   UNL d   1       1.522  -0.086  -1.619  0.00  0.00     0.272 C 
BRANCH   2   3
ATOM      3  N   UNL d   1       0.146   0.025  -2.133  0.00  0.00     0.091 N 
ATOM      4  C   UNL d   1      -0.702  -1.120  -1.718  0.00  0.00     0.292 C 
ATOM      5  C   UNL d   1      -0.943  -1.225  -0.194  0.00  0.00     0.153 C 
ATOM      6  N   UNL d   1      -1.458   0.048   0.332  0.00  0.00    -0.377 N 
ATOM      7  C   UNL d   1      -0.772   1.274  -0.104  0.00  0.00     0.153 C 
ATOM      8  C   UNL d   1      -0.509   1.259  -1.627  0.00  0.00     0.292 C 
BRANCH   6   9
ATOM      9  C   UNL d   1      -2.641   0.068   1.042  0.00  0.00     0.031 A 
ATOM     10  C   UNL d   1      -3.621   1.043   0.829  0.00  0.00     0.053 A 
ATOM     11  C   UNL d   1      -4.821   1.032   1.542  0.00  0.00     0.036 A 
ATOM     12 CL   UNL d   1      -6.010   2.238   1.230  0.00  0.00    -0.084 Cl
ATOM     13  C   UNL d   1      -5.068   0.051   2.497  0.00  0.00     0.024 A 
ATOM     14  C   UNL d   1      -4.108  -0.926   2.733  0.00  0.00     0.004 A 
ATOM     15  C   UNL d   1      -2.913  -0.913   2.010  0.00  0.00     0.029 A 
ENDBRANCH   6   9
ENDBRANCH   2   3
ENDBRANCH   1   2
BRANCH   1  16
ATOM     16  C   UNL d   1       2.391  -1.221  -3.751  0.00  0.00     0.021 C 
BRANCH  16  17
ATOM     17  C   UNL d   1       3.160   0.002  -4.232  0.00  0.00     0.123 C 
BRANCH  17  18
ATOM     18  N   UNL d   1       3.244   0.037  -5.673  0.00  0.00    -0.357 N 
ATOM     19  C   UNL d   1       4.313   0.649  -6.293  0.00  0.00     0.251 C 
ATOM     20  O   UNL d   1       5.263   1.119  -5.669  0.00  0.00    -0.268 OA
ATOM     21  H   UNL d   1       2.372  -0.054  -6.173  0.00  0.00     0.162 HD
BRANCH  19  22
ATOM     22  C   UNL d   1       4.291   0.728  -7.782  0.00  0.00     0.032 A 
ATOM     23  C   UNL d   1       3.313   0.104  -8.569  0.00  0.00     0.020 A 
ATOM     24  C   UNL d   1       3.375   0.177  -9.965  0.00  0.00     0.038 A 
ATOM     25  C   UNL d   1       4.417   0.863 -10.588  0.00  0.00     0.068 A 
ATOM     26  C   UNL d   1       5.380   1.504  -9.808  0.00  0.00     0.038 A 
ATOM     27  C   UNL d   1       5.324   1.432  -8.415  0.00  0.00     0.020 A 
BRANCH  25  28
ATOM     28  O   UNL d   1       4.567   1.004 -11.939  0.00  0.00    -0.356 OA
ATOM     29  C   UNL d   1       4.071  -0.074 -12.726  0.00  0.00     0.210 C 
ENDBRANCH  25  28
ENDBRANCH  19  22
ENDBRANCH  17  18
ENDBRANCH  16  17
ENDBRANCH   1  16
TORSDOF 8
