REMARK  6 active torsions:
REMARK  status: ('A' for Active; 'I' for Inactive)
REMARK    1  A    between atoms: C_9  and  C_2 
REMARK    2  A    between atoms: N_6  and  C_9 
REMARK    3  A    between atoms: C_11  and  N_6 
REMARK    4  A    between atoms: C_7  and  C_8 
REMARK    5  A    between atoms: C_8  and  C_11 
REMARK    6  A    between atoms: O_10  and  C_8 
ROOT
ATOM      1  C   UNL d   1       2.059   5.668  -0.098  0.00  0.00     0.179 C 
ENDROOT
BRANCH   1   2
ATOM      2  C   UNL d   1       2.913   5.359  -1.316  0.00  0.00    -0.028 A 
ATOM      3  C   UNL d   1       2.368   4.977  -2.550  0.00  0.00     0.010 A 
ATOM      4  C   UNL d   1       3.195   4.709  -3.646  0.00  0.00     0.001 A 
ATOM      5  C   UNL d   1       4.577   4.830  -3.525  0.00  0.00     0.000 A 
ATOM      6  C   UNL d   1       5.134   5.228  -2.314  0.00  0.00     0.001 A 
ATOM      7  C   UNL d   1       4.308   5.498  -1.220  0.00  0.00     0.010 A 
ENDBRANCH   1   2
BRANCH   1   8
ATOM      8  C   UNL d   1       0.716   4.899   0.038  0.00  0.00     0.306 C 
BRANCH   8   9
ATOM      9  N   UNL d   1       0.767   3.436  -0.031  0.00  0.00     0.090 N 
ATOM     10  H   UNL d   1      -0.183   3.065   0.004  0.00  0.00     0.316 HD
BRANCH   9  11
ATOM     11  C   UNL d   1       1.527   2.840   1.068  0.00  0.00     0.315 C 
BRANCH  11  12
ATOM     12  C   UNL d   1       1.539   1.348   0.905  0.00  0.00     0.010 A 
ATOM     13  S   UNL d   1       0.866   0.329   2.106  0.00  0.00    -0.105 SA
ATOM     14  C   UNL d   1       1.232  -1.079   1.207  0.00  0.00     0.050 A 
ATOM     15  C   UNL d   1       1.864  -0.786   0.020  0.00  0.00     0.008 A 
ATOM     16  C   UNL d   1       2.048   0.616  -0.151  0.00  0.00     0.017 A 
ENDBRANCH  11  12
ENDBRANCH   9  11
ENDBRANCH   8   9
ENDBRANCH   1   8
BRANCH   1  17
ATOM     17  O   UNL d   1       1.760   7.069  -0.092  0.00  0.00    -0.389 OA
ATOM     18  H   UNL d   1       1.634   7.335  -1.020  0.00  0.00     0.210 HD
ENDBRANCH   1  17
TORSDOF 6
