REMARK  6 active torsions:
REMARK  status: ('A' for Active; 'I' for Inactive)
REMARK    1  A    between atoms: C_8  and  C_3 
REMARK    2  A    between atoms: C_9  and  N_4 
REMARK    3  A    between atoms: C_10  and  C_9 
REMARK       I    between atoms: N_13  and  C_10 
REMARK       I    between atoms: C_11  and  N_12 
REMARK       I    between atoms: N_21  and  C_11 
REMARK    4  A    between atoms: N_12  and  N_13 
REMARK    5  A    between atoms: C_24  and  N_21 
REMARK    6  A    between atoms: C_25  and  C_24 
ROOT
ATOM      1  N   UNL d   1      -0.607   1.150   0.821  0.00  0.00    -0.268 N 
ATOM      2  HN  UNL d   1      -1.156   1.905   1.234  1.00  0.00     0.190 HD
ATOM      3  C   UNL d   1       0.723   1.051   0.653  0.00  0.00     0.144 A 
ATOM      4  N   UNL d   1      -1.019  -0.024   0.292  0.00  0.00    -0.207 N 
ATOM      5  N   UNL d   1       1.081  -0.127   0.040  0.00  0.00    -0.266 N 
ATOM      6  HN  UNL d   1       2.030  -0.433  -0.177  1.00  0.00     0.186 HD
ATOM      7  N   UNL d   1      -0.038  -0.791  -0.215  0.00  0.00    -0.002 NA
ENDROOT
BRANCH   4   8
ATOM      8  C   UNL d   1      -2.414  -0.227  -0.030  0.00  0.00     0.271 C 
BRANCH   8   9
ATOM      9  C   UNL d   1      -2.964  -1.628   0.030  0.00  0.00     0.257 C 
ATOM     10  N   UNL d   1      -2.125  -2.704   0.184  0.00  0.00    -0.265 N 
ATOM     11  H   UNL d   1      -1.103  -2.662   0.218  0.00  0.00     0.190 HD
ATOM     12  O   UNL d   1      -4.184  -1.808  -0.089  0.00  0.00    -0.270 OA
BRANCH  10  13
ATOM     13  N   UNL d   1      -2.708  -3.989   0.141  0.00  0.00    -0.249 N 
ATOM     14  C   UNL d   1      -2.098  -5.005   0.851  0.00  0.00     0.334 C 
ATOM     15  O   UNL d   1      -1.010  -4.888   1.402  0.00  0.00    -0.246 OA
ATOM     16  N   UNL d   1      -2.840  -6.160   0.825  0.00  0.00    -0.342 N 
ATOM     17  H   UNL d   1      -3.645  -6.195   0.219  0.00  0.00     0.164 HD
ATOM     18  H   UNL d   1      -3.725  -3.976   0.123  0.00  0.00     0.192 HD
BRANCH  16  19
ATOM     19  C   UNL d   1      -2.402  -7.390   1.453  0.00  0.00     0.124 C 
BRANCH  19  20
ATOM     20  C   UNL d   1      -2.969  -7.566   2.861  0.00  0.00     0.015 C 
ATOM     21  C   UNL d   1      -4.490  -7.617   2.886  0.00  0.00     0.006 C 
ENDBRANCH  19  20
ENDBRANCH  16  19
ENDBRANCH  10  13
ENDBRANCH   8   9
ENDBRANCH   4   8
BRANCH   3  22
ATOM     22  C   UNL d   1       1.681   2.082   1.037  0.00  0.00     0.014 A 
ATOM     23  C   UNL d   1       1.244   3.307   1.570  0.00  0.00     0.039 A 
ATOM     24  C   UNL d   1       2.166   4.291   1.934  0.00  0.00     0.036 A 
ATOM     25 CL   UNL d   1       1.610   5.782   2.587  0.00  0.00    -0.084 Cl
ATOM     26  C   UNL d   1       3.532   4.077   1.775  0.00  0.00     0.047 A 
ATOM     27  C   UNL d   1       3.970   2.867   1.245  0.00  0.00     0.036 A 
ATOM     28  C   UNL d   1       3.059   1.875   0.875  0.00  0.00     0.039 A 
ATOM     29 CL   UNL d   1       5.657   2.591   1.044  0.00  0.00    -0.084 Cl
ENDBRANCH   3  22
TORSDOF 6
