REMARK  0 active torsions:
REMARK  status: ('A' for Active; 'I' for Inactive)
ROOT
ATOM      1  N   UNL d   1       3.329   0.248  -0.003  0.00  0.00    -0.284 N 
ATOM      2  N   UNL d   1      -3.316   0.228   0.004  0.00  0.00    -0.284 N 
ATOM      3  C   UNL d   1       2.548   1.366  -0.004  0.00  0.00     0.261 A 
ATOM      4  C   UNL d   1      -2.540   1.348   0.002  0.00  0.00     0.261 A 
ATOM      5  C   UNL d   1      -2.568  -0.921   0.005  0.00  0.00     0.261 A 
ATOM      6  C   UNL d   1       2.587  -0.903  -0.001  0.00  0.00     0.261 A 
ATOM      7  C   UNL d   1      -1.161  -0.502   0.003  0.00  0.00     0.049 A 
ATOM      8  C   UNL d   1       1.177  -0.493   0.000  0.00  0.00     0.049 A 
ATOM      9  C   UNL d   1       1.166   0.904  -0.001  0.00  0.00     0.049 A 
ATOM     10  C   UNL d   1      -1.154   0.896   0.002  0.00  0.00     0.049 A 
ATOM     11  C   UNL d   1       0.003   1.649  -0.001  0.00  0.00     0.036 A 
ATOM     12  C   UNL d   1       0.011  -1.248   0.003  0.00  0.00     0.036 A 
ATOM     13  O   UNL d   1       2.866   2.539  -0.007  0.00  0.00    -0.267 OA
ATOM     14  O   UNL d   1       2.959  -2.061  -0.001  0.00  0.00    -0.267 OA
ATOM     15  O   UNL d   1      -2.870   2.518   0.001  0.00  0.00    -0.267 OA
ATOM     16  O   UNL d   1      -2.931  -2.081   0.006  0.00  0.00    -0.267 OA
ATOM     17  C   UNL d   1       4.772   0.287  -0.005  0.00  0.00     0.163 C 
ATOM     18  C   UNL d   1      -4.757   0.290   0.004  0.00  0.00     0.163 C 
ENDROOT
TORSDOF 0
