REMARK  2 active torsions:
REMARK  status: ('A' for Active; 'I' for Inactive)
REMARK    1  A    between atoms: C_10  and  C_1 
REMARK    2  A    between atoms: O_19  and  C_15 
ROOT
ATOM      1  C   UNL d   1       2.927   0.625  -0.317  0.00  0.00     0.080 C 
ATOM      2  S   UNL d   1       2.186  -0.951  -0.977  0.00  0.00    -0.139 SA
ATOM      3  S   UNL d   1       1.661   1.972  -0.496  0.00  0.00    -0.139 SA
ATOM      4  C   UNL d   1      -0.363  -0.757   0.125  0.00  0.00    -0.041 A 
ATOM      5  C   UNL d   1      -0.592   0.612   0.349  0.00  0.00    -0.041 A 
ATOM      6  C   UNL d   1      -1.440  -1.562  -0.291  0.00  0.00     0.015 A 
ATOM      7  C   UNL d   1      -1.871   1.144   0.133  0.00  0.00     0.015 A 
ATOM      8  C   UNL d   1      -2.725  -1.030  -0.486  0.00  0.00    -0.056 A 
ATOM      9  C   UNL d   1      -2.942   0.343  -0.281  0.00  0.00    -0.056 A 
ATOM     10  C   UNL d   1       0.995  -1.382   0.331  0.00  0.00     0.115 C 
ATOM     11  C   UNL d   1       0.499   1.531   0.825  0.00  0.00     0.115 C 
ATOM     12  C   UNL d   1       4.055   0.998  -1.300  0.00  0.00     0.044 C 
ATOM     13  C   UNL d   1      -3.843  -1.938  -0.917  0.00  0.00     0.049 C 
ATOM     14  C   UNL d   1      -4.286   0.977  -0.499  0.00  0.00     0.049 C 
ENDROOT
BRANCH   1  15
ATOM     15  C   UNL d   1       3.538   0.498   1.094  0.00  0.00    -0.030 C 
ATOM     16  C   UNL d   1       4.122  -0.703   1.537  0.00  0.00     0.012 C 
ATOM     17  C   UNL d   1       4.496  -0.876   2.875  0.00  0.00     0.037 C 
ATOM     18  C   UNL d   1       4.328   0.152   3.800  0.00  0.00     0.068 C 
ATOM     19  C   UNL d   1       3.888   1.392   3.352  0.00  0.00     0.037 C 
ATOM     20  C   UNL d   1       3.532   1.569   2.010  0.00  0.00     0.012 C 
BRANCH  18  21
ATOM     21  O   UNL d   1       4.630  -0.171   5.093  0.00  0.00    -0.356 OA
ATOM     22  C   UNL d   1       4.248   0.775   6.086  0.00  0.00     0.210 C 
ENDBRANCH  18  21
ENDBRANCH   1  15
TORSDOF 2
