REMARK  7 active torsions:
REMARK  status: ('A' for Active; 'I' for Inactive)
REMARK    1  A    between atoms: C_10  and  C_3 
REMARK    2  A    between atoms: C_16  and  C_8 
REMARK    3  A    between atoms: C_17  and  C_16 
REMARK    4  A    between atoms: C_20  and  C_17 
REMARK    5  A    between atoms: C_18  and  C_19 
REMARK    6  A    between atoms: C_19  and  C_21 
REMARK    7  A    between atoms: C_21  and  C_20 
ROOT
ATOM      1  N   UNL d   1       8.062  -0.896  -0.091  0.00  0.00    -0.191 NA
ATOM      2  C   UNL d   1       6.907  -0.986  -0.077  0.00  0.00     0.099 C 
ATOM      3  C   UNL d   1       2.699  -1.518  -0.018  0.00  0.00    -0.035 A 
ATOM      4  C   UNL d   1       5.478  -1.127  -0.058  0.00  0.00     0.044 A 
ATOM      5  C   UNL d   1       3.405  -1.342   1.179  0.00  0.00     0.013 A 
ATOM      6  C   UNL d   1       3.384  -1.457  -1.236  0.00  0.00     0.013 A 
ATOM      7  C   UNL d   1       4.790  -1.149   1.159  0.00  0.00     0.023 A 
ATOM      8  C   UNL d   1       4.769  -1.267  -1.256  0.00  0.00     0.023 A 
ENDROOT
BRANCH   3   9
ATOM      9  C   UNL d   1       1.258  -1.783   0.008  0.00  0.00     0.022 C 
ATOM     10  C   UNL d   1       0.300  -0.847   0.034  0.00  0.00    -0.011 C 
ATOM     11  C   UNL d   1       0.502   0.632  -0.007  0.00  0.00     0.159 C 
ATOM     12  C   UNL d   1      -1.181  -1.087   0.117  0.00  0.00     0.043 C 
ATOM     13  O   UNL d   1       1.577   1.194  -0.138  0.00  0.00    -0.292 OA
ATOM     14  C   UNL d   1      -0.820   1.333   0.167  0.00  0.00     0.060 C 
ATOM     15  C   UNL d   1      -1.804   0.249  -0.286  0.00  0.00     0.017 C 
BRANCH  14  16
ATOM     16  C   UNL d   1      -0.885   2.616  -0.653  0.00  0.00     0.012 C 
BRANCH  16  17
ATOM     17  C   UNL d   1      -2.200   3.357  -0.442  0.00  0.00     0.001 C 
BRANCH  17  18
ATOM     18  C   UNL d   1      -2.253   4.634  -1.274  0.00  0.00     0.000 C 
BRANCH  18  19
ATOM     19  C   UNL d   1      -3.581   5.353  -1.051  0.00  0.00     0.000 C 
BRANCH  19  20
ATOM     20  C   UNL d   1      -3.658   6.634  -1.873  0.00  0.00    -0.000 C 
BRANCH  20  21
ATOM     21  C   UNL d   1      -4.985   7.352  -1.644  0.00  0.00    -0.005 C 
ATOM     22  C   UNL d   1      -5.060   8.630  -2.462  0.00  0.00     0.005 C 
ENDBRANCH  20  21
ENDBRANCH  19  20
ENDBRANCH  18  19
ENDBRANCH  17  18
ENDBRANCH  16  17
ENDBRANCH  14  16
ENDBRANCH   3   9
TORSDOF 7
