REMARK  5 active torsions:
REMARK  status: ('A' for Active; 'I' for Inactive)
REMARK    1  A    between atoms: C_8  and  C_6 
REMARK    2  A    between atoms: C_9  and  C_7 
REMARK    3  A    between atoms: C_13  and  C_10 
REMARK    4  A    between atoms: O_14  and  C_12 
REMARK    5  A    between atoms: C_17  and  O_14 
ROOT
ATOM      1  C   UNL d   1       0.378  -0.697   0.555  0.00  0.00     0.111 A 
ATOM      2  N   UNL d   1       1.572  -0.025   0.480  0.00  0.00    -0.332 N 
ATOM      3  HN  UNL d   1       2.518  -0.406   0.465  1.00  0.00     0.168 HD
ATOM      4  C   UNL d   1      -0.747   0.273   0.687  0.00  0.00     0.316 A 
ATOM      5  O   UNL d   1      -0.120   1.475   0.557  0.00  0.00    -0.256 OA
ATOM      6  C   UNL d   1       1.199   1.210   0.434  0.00  0.00     0.152 A 
ATOM      7  C   UNL d   1       0.286  -2.019   0.367  0.00  0.00     0.050 C 
ATOM      8  O   UNL d   1      -1.932   0.090   0.875  0.00  0.00    -0.257 OA
ENDROOT
BRANCH   7   9
ATOM      9  C   UNL d   1      -0.952  -2.756   0.103  0.00  0.00    -0.000 A 
ATOM     10  C   UNL d   1      -1.735  -3.450   1.040  0.00  0.00     0.079 A 
ATOM     11  C   UNL d   1      -2.906  -4.090   0.598  0.00  0.00     0.037 A 
ATOM     12  C   UNL d   1      -3.291  -4.068  -0.740  0.00  0.00     0.003 A 
ATOM     13  C   UNL d   1      -2.515  -3.389  -1.670  0.00  0.00     0.001 A 
ATOM     14  C   UNL d   1      -1.357  -2.738  -1.250  0.00  0.00     0.014 A 
BRANCH  10  15
ATOM     15  O   UNL d   1      -1.540  -3.581   2.387  0.00  0.00    -0.351 OA
BRANCH  15  16
ATOM     16  C   UNL d   1      -0.209  -3.533   2.886  0.00  0.00     0.171 C 
ATOM     17  C   UNL d   1      -0.169  -4.296   4.200  0.00  0.00     0.034 C 
ENDBRANCH  15  16
ENDBRANCH  10  15
ENDBRANCH   7   9
BRANCH   6  18
ATOM     18  C   UNL d   1       2.078   2.365   0.244  0.00  0.00     0.057 C 
ATOM     19  C   UNL d   1       1.624   3.621   0.122  0.00  0.00     0.015 C 
BRANCH  19  20
ATOM     20  C   UNL d   1       2.496   4.793  -0.053  0.00  0.00    -0.036 A 
ATOM     21  C   UNL d   1       3.727   4.733  -0.720  0.00  0.00     0.011 A 
ATOM     22  C   UNL d   1       4.526   5.874  -0.844  0.00  0.00     0.001 A 
ATOM     23  C   UNL d   1       4.093   7.089  -0.320  0.00  0.00     0.000 A 
ATOM     24  C   UNL d   1       2.857   7.169   0.318  0.00  0.00     0.001 A 
ATOM     25  C   UNL d   1       2.061   6.029   0.444  0.00  0.00     0.011 A 
ENDBRANCH  19  20
ENDBRANCH   6  18
TORSDOF 5
