REMARK  4 active torsions:
REMARK  status: ('A' for Active; 'I' for Inactive)
REMARK    1  A    between atoms: C_2  and  C_1 
REMARK       I    between atoms: N_3  and  C_1 
REMARK    2  A    between atoms: C_4  and  N_3 
REMARK    3  A    between atoms: S_5  and  C_6 
REMARK    4  A    between atoms: C_9  and  S_5 
ROOT
ATOM      1  C   UNL d   1      -0.876   0.650   0.796  0.00  0.00     0.052 C 
ATOM      2  C   UNL d   1      -1.469  -0.537   1.279  0.00  0.00     0.032 C 
ATOM      3  C   UNL d   1      -1.625   1.835   0.772  0.00  0.00     0.031 C 
ATOM      4  C   UNL d   1      -2.851  -0.560   1.516  0.00  0.00     0.021 C 
ATOM      5  C   UNL d   1      -3.614   0.598   1.379  0.00  0.00     0.002 C 
ATOM      6  C   UNL d   1      -2.994   1.803   1.055  0.00  0.00     0.002 C 
ENDROOT
BRANCH   1   7
ATOM      7  N   UNL d   1       0.429   0.682   0.230  0.00  0.00    -0.322 N 
ATOM      8  C   UNL d   1       0.765  -0.235  -0.757  0.00  0.00     0.257 C 
ATOM      9  O   UNL d   1      -0.046  -1.040  -1.224  0.00  0.00    -0.267 OA
ATOM     10  H   UNL d   1       0.897   1.580   0.177  0.00  0.00     0.169 HD
BRANCH   8  11
ATOM     11  C   UNL d   1       2.125  -0.228  -1.375  0.00  0.00     0.054 A 
ATOM     12  C   UNL d   1       3.127   0.742  -1.220  0.00  0.00     0.049 A 
ATOM     13 CL   UNL d   1       2.983   2.131  -0.204  0.00  0.00    -0.083 Cl
ATOM     14  C   UNL d   1       4.332   0.623  -1.940  0.00  0.00     0.025 A 
ATOM     15  C   UNL d   1       4.556  -0.454  -2.799  0.00  0.00     0.002 A 
ATOM     16  C   UNL d   1       3.587  -1.436  -2.935  0.00  0.00     0.001 A 
ATOM     17  C   UNL d   1       2.392  -1.322  -2.227  0.00  0.00     0.019 A 
ENDBRANCH   8  11
ENDBRANCH   1   7
BRANCH   2  18
ATOM     18  S   UNL d   1      -0.573  -2.040   1.683  0.00  0.00    -0.088 SA
BRANCH  18  19
ATOM     19  C   UNL d   1       0.556  -1.548   2.980  0.00  0.00     0.005 A 
ATOM     20  C   UNL d   1       0.211  -0.653   3.998  0.00  0.00     0.019 A 
ATOM     21  C   UNL d   1       1.109  -0.384   5.042  0.00  0.00     0.008 A 
ATOM     22  C   UNL d   1       2.356  -1.017   5.095  0.00  0.00    -0.062 A 
ATOM     23  C   UNL d   1       2.705  -1.902   4.072  0.00  0.00     0.008 A 
ATOM     24  C   UNL d   1       3.298  -0.738   6.231  0.00  0.00     0.048 C 
ATOM     25  C   UNL d   1       1.811  -2.168   3.028  0.00  0.00     0.019 A 
ENDBRANCH  18  19
ENDBRANCH   2  18
TORSDOF 4
