REMARK  5 active torsions:
REMARK  status: ('A' for Active; 'I' for Inactive)
REMARK    1  A    between atoms: C_9  and  C_1 
REMARK    2  A    between atoms: C_10  and  N_4 
REMARK    3  A    between atoms: C_13  and  C_5 
REMARK    4  A    between atoms: C_8  and  C_11 
REMARK    5  A    between atoms: O_18  and  C_9 
ROOT
ATOM      1  C   UNL d   1      -0.151  -1.275   0.152  0.00  0.00     0.152 C 
ATOM      2  N   UNL d   1      -0.316   0.892   0.362  0.00  0.00    -0.235 N 
ATOM      3  HN  UNL d   1      -0.680   1.819   0.581  1.00  0.00     0.209 HD
ATOM      4  N   UNL d   1       0.974   0.598   0.061  0.00  0.00    -0.239 N 
ATOM      5  C   UNL d   1       1.155  -0.789   0.045  0.00  0.00     0.103 C 
ATOM      6  N   UNL d   1      -1.018  -0.220   0.323  0.00  0.00    -0.278 N 
ATOM      7  HN  UNL d   1      -2.032  -0.289   0.406  1.00  0.00     0.189 HD
ENDROOT
BRANCH   4   8
ATOM      8  C   UNL d   1       1.892   1.655  -0.178  0.00  0.00     0.059 A 
ATOM      9  C   UNL d   1       1.736   2.871   0.508  0.00  0.00     0.047 A 
ATOM     10  C   UNL d   1       2.676   3.903   0.348  0.00  0.00     0.050 A 
ATOM     11  C   UNL d   1       3.745   3.718  -0.543  0.00  0.00     0.016 A 
ATOM     12  C   UNL d   1       3.876   2.528  -1.258  0.00  0.00     0.003 A 
ATOM     13  C   UNL d   1       2.953   1.497  -1.078  0.00  0.00     0.031 A 
BRANCH  10  14
ATOM     14  C   UNL d   1       2.569   5.192   1.128  0.00  0.00     0.417 C 
ATOM     15  F   UNL d   1       1.536   5.211   2.014  0.00  0.00    -0.166 F 
ATOM     16  F   UNL d   1       3.689   5.448   1.859  0.00  0.00    -0.166 F 
ATOM     17  F   UNL d   1       2.393   6.275   0.322  0.00  0.00    -0.166 F 
ENDBRANCH  10  14
ENDBRANCH   4   8
BRANCH   5  18
ATOM     18  C   UNL d   1       2.456  -1.482   0.027  0.00  0.00    -0.005 A 
ATOM     19  C   UNL d   1       3.542  -0.984   0.770  0.00  0.00     0.014 A 
ATOM     20  C   UNL d   1       4.795  -1.599   0.729  0.00  0.00     0.001 A 
ATOM     21  C   UNL d   1       4.971  -2.767  -0.001  0.00  0.00     0.000 A 
ATOM     22  C   UNL d   1       3.896  -3.305  -0.707  0.00  0.00     0.001 A 
ATOM     23  C   UNL d   1       2.657  -2.656  -0.710  0.00  0.00     0.014 A 
ENDBRANCH   5  18
BRANCH   1  24
ATOM     24  C   UNL d   1      -0.677  -2.629   0.179  0.00  0.00     0.197 C 
ATOM     25  O   UNL d   1      -0.013  -3.657   0.157  0.00  0.00    -0.645 OA
BRANCH  24  26
ATOM     26  O   UNL d   1      -2.040  -2.671   0.198  0.00  0.00    -0.772 OA
ATOM     27  H   UNL d   1      -2.403  -1.756   0.220  0.00  0.00     0.167 HD
ENDBRANCH  24  26
ENDBRANCH   1  24
TORSDOF 5
