REMARK  6 active torsions:
REMARK  status: ('A' for Active; 'I' for Inactive)
REMARK       I    between atoms: N_2  and  C_1 
REMARK       I    between atoms: N_12  and  C_1 
REMARK    1  A    between atoms: C_3  and  N_2 
REMARK    2  A    between atoms: C_4  and  C_15 
REMARK    3  A    between atoms: C_22  and  N_12 
REMARK    4  A    between atoms: S_14  and  C_24 
REMARK    5  A    between atoms: C_15  and  S_14 
REMARK    6  A    between atoms: C_24  and  C_22 
ROOT
ATOM      1  C   UNL d   1       2.073   0.706   1.572  0.00  0.00     0.320 C 
ATOM      2  N   UNL d   1       2.357   2.039   1.707  0.00  0.00    -0.308 N 
ATOM      3  O   UNL d   1       1.458   0.013   2.383  0.00  0.00    -0.247 OA
ATOM      4  N   UNL d   1       2.484   0.097   0.431  0.00  0.00    -0.342 N 
ATOM      5  H   UNL d   1       2.449   2.543   0.844  0.00  0.00     0.170 HD
ATOM      6  H   UNL d   1       2.200  -0.876   0.406  0.00  0.00     0.164 HD
ENDROOT
BRANCH   4   7
ATOM      7  C   UNL d   1       3.232   0.610  -0.696  0.00  0.00     0.134 C 
BRANCH   7   8
ATOM      8  C   UNL d   1       4.740   0.620  -0.454  0.00  0.00     0.094 C 
BRANCH   8   9
ATOM      9  S   UNL d   1       5.625   1.342  -1.872  0.00  0.00    -0.163 SA
BRANCH   9  10
ATOM     10  C   UNL d   1       5.053   3.073  -1.748  0.00  0.00     0.113 C 
BRANCH  10  11
ATOM     11  C   UNL d   1       5.508   3.878  -2.944  0.00  0.00    -0.037 A 
ATOM     12  C   UNL d   1       4.722   3.932  -4.127  0.00  0.00    -0.054 A 
ATOM     13  C   UNL d   1       5.203   4.629  -5.250  0.00  0.00     0.014 A 
ATOM     14  C   UNL d   1       3.381   3.262  -4.298  0.00  0.00     0.049 C 
ATOM     15  C   UNL d   1       6.436   5.279  -5.232  0.00  0.00    -0.061 A 
ATOM     16  C   UNL d   1       7.197   5.241  -4.065  0.00  0.00     0.014 A 
ATOM     17  C   UNL d   1       6.931   5.982  -6.459  0.00  0.00     0.048 C 
ATOM     18  C   UNL d   1       6.758   4.548  -2.922  0.00  0.00    -0.054 A 
ATOM     19  C   UNL d   1       7.679   4.585  -1.728  0.00  0.00     0.049 C 
ENDBRANCH  10  11
ENDBRANCH   9  10
ENDBRANCH   8   9
ENDBRANCH   7   8
ENDBRANCH   4   7
BRANCH   2  20
ATOM     20  C   UNL d   1       1.940   2.797   2.838  0.00  0.00     0.047 A 
ATOM     21  C   UNL d   1       1.427   4.120   2.683  0.00  0.00     0.001 A 
ATOM     22  C   UNL d   1       0.923   4.777   3.839  0.00  0.00    -0.024 A 
ATOM     23  C   UNL d   1       1.338   4.817   1.451  0.00  0.00     0.014 A 
ATOM     24  C   UNL d   1       0.349   6.054   3.735  0.00  0.00     0.012 A 
ATOM     25  C   UNL d   1       0.978   4.150   5.093  0.00  0.00     0.012 A 
ATOM     26  C   UNL d   1       0.276   6.711   2.508  0.00  0.00     0.001 A 
ATOM     27  C   UNL d   1       0.771   6.095   1.368  0.00  0.00     0.001 A 
ATOM     28  C   UNL d   1       1.540   2.887   5.234  0.00  0.00     0.003 A 
ATOM     29  C   UNL d   1       2.019   2.217   4.114  0.00  0.00     0.030 A 
ENDBRANCH   2  20
TORSDOF 6
