REMARK  3 active torsions:
REMARK  status: ('A' for Active; 'I' for Inactive)
REMARK    1  A    between atoms: C_7  and  C_1 
REMARK    2  A    between atoms: O_11  and  C_2 
REMARK    3  A    between atoms: O_12  and  C_7 
ROOT
ATOM      1  C   UNL d   1       2.452   0.730   0.001  0.00  0.00     0.087 A 
ATOM      2  C   UNL d   1       1.226   1.410  -0.006  0.00  0.00     0.096 A 
ATOM      3  C   UNL d   1      -0.001   0.710  -0.002  0.00  0.00     0.028 A 
ATOM      4  N   UNL d   1       1.230  -1.360   0.044  0.00  0.00    -0.362 N 
ATOM      5  HN  UNL d   1       1.250  -2.379   0.069  1.00  0.00     0.165 HD
ATOM      6  C   UNL d   1       0.051  -0.697   0.023  0.00  0.00     0.084 A 
ATOM      7  C   UNL d   1       2.384  -0.650   0.031  0.00  0.00     0.109 A 
ATOM      8  C   UNL d   1      -1.161  -1.389   0.024  0.00  0.00     0.143 A 
ATOM      9  F   UNL d   1      -1.159  -2.733   0.050  0.00  0.00    -0.204 F 
ATOM     10  C   UNL d   1      -1.257   1.362  -0.027  0.00  0.00     0.017 A 
ATOM     11  C   UNL d   1      -2.448   0.639  -0.034  0.00  0.00     0.004 A 
ATOM     12  C   UNL d   1      -2.399  -0.747  -0.007  0.00  0.00     0.045 A 
ENDROOT
BRANCH   1  13
ATOM     13  C   UNL d   1       3.726   1.487  -0.024  0.00  0.00     0.180 C 
ATOM     14  O   UNL d   1       3.714   2.711  -0.004  0.00  0.00    -0.646 OA
BRANCH  13  15
ATOM     15  O   UNL d   1       4.880   0.797  -0.076  0.00  0.00    -0.773 OA
ATOM     16  H   UNL d   1       4.870  -0.173  -0.126  0.00  0.00     0.167 HD
ENDBRANCH  13  15
ENDBRANCH   1  13
BRANCH   2  17
ATOM     17  O   UNL d   1       1.159   2.788  -0.019  0.00  0.00    -0.359 OA
ATOM     18  H   UNL d   1       2.070   3.160  -0.004  0.00  0.00     0.217 HD
ENDBRANCH   2  17
TORSDOF 3
