REMARK  7 active torsions:
REMARK  status: ('A' for Active; 'I' for Inactive)
REMARK    1  A    between atoms: CB_5  and  CA_1 
REMARK    2  A    between atoms: CA_1  and  C_3 
REMARK    3  A    between atoms: CA_1  and  N_2 
REMARK       I    between atoms: C2_12  and  N_2 
REMARK    4  A    between atoms: OXT_6  and  C_3 
REMARK    5  A    between atoms: OG1_7  and  CB_5 
REMARK    6  A    between atoms: O1_13  and  C2_12 
REMARK    7  A    between atoms: C5_15  and  O1_13 
ROOT
ATOM      1  CA  THR d   1       0.903   0.217  -0.615  0.00  0.00     0.212 C 
ENDROOT
BRANCH   1   2
ATOM      2  CB  THR d   1       2.449   0.181  -0.647  0.00  0.00     0.147 C 
ATOM      3  CG2 THR d   1       3.164   1.449  -0.197  0.00  0.00     0.042 C 
BRANCH   2   4
ATOM      4  OG1 THR d   1       2.895  -0.201  -1.959  0.00  0.00    -0.393 OA
ATOM      5  HG1 THR d   1       3.098   0.610  -2.465  0.00  0.00     0.210 HD
ENDBRANCH   2   4
ENDBRANCH   1   2
BRANCH   1   6
ATOM      6  C   THR d   1       0.366   1.325  -1.533  0.00  0.00     0.166 C 
ATOM      7  O   THR d   1       0.569   2.520  -1.364  0.00  0.00    -0.648 OA
BRANCH   6   8
ATOM      8  OXT THR d   1      -0.327   0.866  -2.603  0.00  0.00    -0.775 OA
ATOM      9  HXT THR d   1      -0.379  -0.112  -2.576  0.00  0.00     0.167 HD
ENDBRANCH   6   8
ENDBRANCH   1   6
BRANCH   1  10
ATOM     10  N   THR d   1       0.402  -1.095  -1.079  0.00  0.00    -0.320 N 
ATOM     11  C2  <1> d   1      -0.684  -1.797  -0.655  0.00  0.00     0.362 C 
ATOM     12  O2  <1> d   1      -0.938  -2.875  -1.168  0.00  0.00    -0.238 OA
ATOM     13  H   THR d   1       1.010  -1.607  -1.712  0.00  0.00     0.165 HD
BRANCH  11  14
ATOM     14  O1  <1> d   1      -1.407  -1.176   0.305  0.00  0.00    -0.294 OA
BRANCH  14  15
ATOM     15  C5  <1> d   1      -2.574  -1.851   0.864  0.00  0.00     0.061 C 
ATOM     16  C6  <1> d   1      -2.226  -3.243   1.416  0.00  0.00     0.046 C 
ATOM     17  C7  <1> d   1      -3.046  -0.976   2.037  0.00  0.00     0.046 C 
ATOM     18  C8  <1> d   1      -3.702  -1.927  -0.173  0.00  0.00     0.046 C 
ENDBRANCH  14  15
ENDBRANCH  11  14
ENDBRANCH   1  10
TORSDOF 7
