REMARK  5 active torsions:
REMARK  status: ('A' for Active; 'I' for Inactive)
REMARK    1  A    between atoms: C_2  and  S_1 
REMARK    2  A    between atoms: N_4  and  S_1 
REMARK    3  A    between atoms: C_18  and  N_4 
REMARK    4  A    between atoms: C_20  and  N_4 
REMARK    5  A    between atoms: C_19  and  C_20 
ROOT
ATOM      1  N   UNL d   1       3.109  -5.299   0.528  0.00  0.00    -0.197 NA
ATOM      2  C   UNL d   1       2.726  -4.220   0.697  0.00  0.00     0.060 C 
ATOM      3  C   UNL d   1       2.213  -2.857   0.932  0.00  0.00     0.144 C 
ENDROOT
BRANCH   3   4
ATOM      4  C   UNL d   1       0.855  -2.690   0.249  0.00  0.00     0.150 C 
BRANCH   4   5
ATOM      5  N   UNL d   1       0.183  -1.366   0.442  0.00  0.00    -0.301 N 
BRANCH   5   6
ATOM      6  S   UNL d   1       1.024   0.040  -0.103  0.00  0.00     0.263 S 
ATOM      7  O   UNL d   1       2.069  -0.428  -0.989  0.00  0.00    -0.200 OA
ATOM      8  O   UNL d   1       0.067   1.050  -0.487  0.00  0.00    -0.200 OA
BRANCH   6   9
ATOM      9  C   UNL d   1       1.816   0.688   1.323  0.00  0.00     0.109 A 
ATOM     10  C   UNL d   1       2.613   1.854   1.216  0.00  0.00     0.090 A 
ATOM     11  N   UNL d   1       2.843   2.601   0.124  0.00  0.00    -0.309 N 
ATOM     12  C   UNL d   1       3.323   2.392   2.434  0.00  0.00     0.068 A 
ATOM     13  S   UNL d   1       3.822   3.856   0.584  0.00  0.00     0.068 SA
ATOM     14  HN  UNL d   1       2.481   2.428  -0.814  1.00  0.00     0.176 HD
ATOM     15  N   UNL d   1       4.039   3.499   2.190  0.00  0.00    -0.310 N 
ATOM     16  HN  UNL d   1       4.606   4.020   2.860  1.00  0.00     0.176 HD
ATOM     17  C   UNL d   1       3.208   1.746   3.688  0.00  0.00     0.032 A 
ATOM     18  C   UNL d   1       2.366   0.622   3.736  0.00  0.00     0.004 A 
ATOM     19  C   UNL d   1       1.681   0.121   2.605  0.00  0.00     0.028 A 
ENDBRANCH   6   9
ENDBRANCH   5   6
BRANCH   5  20
ATOM     20  C   UNL d   1      -1.326  -1.290   0.570  0.00  0.00     0.096 C 
ATOM     21  C   UNL d   1      -1.993  -2.545   1.175  0.00  0.00     0.026 C 
ATOM     22  C   UNL d   1      -2.252  -3.711   0.201  0.00  0.00     0.002 C 
ATOM     23  C   UNL d   1      -2.744  -3.303  -1.183  0.00  0.00     0.000 C 
ATOM     24  C   UNL d   1      -2.050  -2.070  -1.739  0.00  0.00     0.002 C 
ATOM     25  C   UNL d   1      -2.072  -0.939  -0.727  0.00  0.00     0.026 C 
ENDBRANCH   5  20
ENDBRANCH   4   5
ENDBRANCH   3   4
TORSDOF 5
