REMARK  4 active torsions:
REMARK  status: ('A' for Active; 'I' for Inactive)
REMARK    1  A    between atoms: C_3  and  C_1 
REMARK    2  A    between atoms: C_5  and  CA_2 
REMARK       I    between atoms: N_4  and  C_3 
REMARK    3  A    between atoms: C_6  and  N_4 
REMARK    4  A    between atoms: OXT_15  and  C_5 
ROOT
ATOM      1  C   UNL d   1      -1.521  -3.592  -1.235  0.00  0.00     0.275 C 
ATOM      2  N   UNL d   1      -0.949  -3.565   0.031  0.00  0.00    -0.321 N 
ATOM      3  O   UNL d   1      -0.925  -3.820  -2.282  0.00  0.00    -0.266 OA
ATOM      4  H   UNL d   1      -1.464  -3.015   0.713  0.00  0.00     0.169 HD
ENDROOT
BRANCH   1   5
ATOM      5  C   UNL d   1      -2.925  -3.113  -1.292  0.00  0.00     0.134 A 
ATOM      6  CA  UNL d   1      -3.722  -3.288  -2.415  0.00  0.00     0.139 A 
ATOM      7  N   UNL d   1      -4.897  -2.593  -2.596  0.00  0.00    -0.357 N 
ATOM      8  C   UNL d   1      -5.260  -1.792  -1.566  0.00  0.00     0.105 A 
ATOM      9  HN  UNL d   1      -5.456  -2.676  -3.445  1.00  0.00     0.165 HD
ATOM     10  C   UNL d   1      -4.497  -1.667  -0.415  0.00  0.00     0.105 A 
ATOM     11  N   UNL d   1      -3.313  -2.304  -0.249  0.00  0.00    -0.358 N 
ATOM     12  HN  UNL d   1      -2.747  -2.191   0.592  1.00  0.00     0.165 HD
BRANCH   6  13
ATOM     13  C   UNL d   1      -3.449  -4.290  -3.479  0.00  0.00     0.196 C 
ATOM     14  O   UNL d   1      -2.876  -5.353  -3.329  0.00  0.00    -0.645 OA
BRANCH  13  15
ATOM     15  OXT UNL d   1      -4.054  -3.917  -4.638  0.00  0.00    -0.772 OA
ATOM     16  HXT UNL d   1      -4.605  -3.116  -4.487  0.00  0.00     0.167 HD
ENDBRANCH  13  15
ENDBRANCH   6  13
ENDBRANCH   1   5
BRANCH   2  17
ATOM     17  C   UNL d   1       0.421  -3.833   0.263  0.00  0.00     0.042 C 
ATOM     18  C   UNL d   1       1.135  -3.102   1.235  0.00  0.00    -0.025 C 
ATOM     19  C   UNL d   1       2.543  -3.231   1.277  0.00  0.00    -0.050 C 
ATOM     20  C   UNL d   1       0.431  -2.116   2.143  0.00  0.00     0.041 C 
ATOM     21  C   UNL d   1       3.400  -2.343   2.147  0.00  0.00     0.039 C 
ATOM     22  C   UNL d   1       3.186  -4.192   0.482  0.00  0.00     0.008 C 
ATOM     23  C   UNL d   1       2.665  -1.095   2.622  0.00  0.00     0.005 C 
ATOM     24  C   UNL d   1       1.325  -1.495   3.217  0.00  0.00     0.005 C 
ATOM     25  C   UNL d   1       2.457  -4.987  -0.391  0.00  0.00     0.003 C 
ATOM     26  C   UNL d   1       1.085  -4.793  -0.513  0.00  0.00     0.030 C 
ENDBRANCH   2  17
TORSDOF 4
