REMARK  5 active torsions:
REMARK  status: ('A' for Active; 'I' for Inactive)
REMARK       I    between atoms: C_3  and  N_1 
REMARK    1  A    between atoms: C_5  and  C_3 
REMARK    2  A    between atoms: N_6  and  C_4 
REMARK    3  A    between atoms: S_10  and  C_4 
REMARK    4  A    between atoms: C_14  and  N_6 
REMARK    5  A    between atoms: C_15  and  N_6 
ROOT
ATOM      1  N   UNL d   1       1.188   0.007   0.242  0.00  0.00    -0.303 N 
ATOM      2  HN  UNL d   1       0.731   0.837  -0.136  1.00  0.00     0.171 HD
ATOM      3  C   UNL d   1       0.501  -0.703   1.185  0.00  0.00     0.261 C 
ATOM      4  C   UNL d   1       2.370  -0.275  -0.218  0.00  0.00     0.144 C 
ATOM      5  O   UNL d   1       0.615  -1.887   1.463  0.00  0.00    -0.267 OA
ENDROOT
BRANCH   3   6
ATOM      6  C   UNL d   1      -0.524   0.102   1.890  0.00  0.00     0.075 A 
ATOM      7  C   UNL d   1      -0.181   1.299   2.540  0.00  0.00     0.051 A 
ATOM      8 CL   UNL d   1       1.443   1.885   2.671  0.00  0.00    -0.083 Cl
ATOM      9  C   UNL d   1      -1.168   2.071   3.167  0.00  0.00     0.025 A 
ATOM     10  C   UNL d   1      -2.495   1.651   3.168  0.00  0.00     0.003 A 
ATOM     11  C   UNL d   1      -2.840   0.454   2.541  0.00  0.00     0.025 A 
ATOM     12  C   UNL d   1      -1.862  -0.318   1.899  0.00  0.00     0.051 A 
ATOM     13 CL   UNL d   1      -2.415  -1.746   1.094  0.00  0.00    -0.083 Cl
ENDBRANCH   3   6
BRANCH   4  14
ATOM     14  N   UNL d   1       2.901   0.578  -1.178  0.00  0.00    -0.362 N 
BRANCH  14  15
ATOM     15  C   UNL d   1       4.309   0.974  -1.262  0.00  0.00     0.120 C 
ATOM     16  C   UNL d   1       4.844   1.508   0.060  0.00  0.00     0.026 C 
ENDBRANCH  14  15
BRANCH  14  17
ATOM     17  C   UNL d   1       2.082   0.882  -2.357  0.00  0.00     0.120 C 
ATOM     18  C   UNL d   1       1.318   2.183  -2.184  0.00  0.00     0.026 C 
ENDBRANCH  14  17
ENDBRANCH   4  14
BRANCH   4  19
ATOM     19  S   UNL d   1       3.349  -1.687   0.157  0.00  0.00    -0.098 SA
ATOM     20  C   UNL d   1       3.492  -1.602   1.949  0.00  0.00     0.099 C 
ENDBRANCH   4  19
TORSDOF 5
