REMARK  4 active torsions:
REMARK  status: ('A' for Active; 'I' for Inactive)
REMARK    1  A    between atoms: N_4  and  S_1 
REMARK    2  A    between atoms: C_8  and  N_4 
REMARK    3  A    between atoms: C_12  and  C_8 
REMARK    4  A    between atoms: C_9  and  C_12 
ROOT
ATOM      1  C   UNL d   1      -1.492   2.407   1.639  0.00  0.00     0.054 C 
ENDROOT
BRANCH   1   2
ATOM      2  C   UNL d   1      -3.001   2.477   1.695  0.00  0.00    -0.054 A 
ATOM      3  C   UNL d   1      -3.745   1.450   2.280  0.00  0.00     0.024 A 
ATOM      4  C   UNL d   1      -5.129   1.541   2.278  0.00  0.00     0.088 A 
ATOM      5  N   UNL d   1      -5.811   2.579   1.750  0.00  0.00    -0.375 N 
ATOM      6  C   UNL d   1      -5.075   3.569   1.203  0.00  0.00     0.088 A 
ATOM      7  HN  UNL d   1      -6.831   2.613   1.765  1.00  0.00     0.164 HD
ATOM      8  C   UNL d   1      -3.689   3.564   1.151  0.00  0.00     0.024 A 
ENDBRANCH   1   2
BRANCH   1   9
ATOM      9  C   UNL d   1      -1.005   1.216   0.807  0.00  0.00     0.108 C 
BRANCH   9  10
ATOM     10  N   UNL d   1       0.479   1.252   0.666  0.00  0.00    -0.220 NA
ATOM     11  H   UNL d   1       0.768   2.089   0.158  0.00  0.00     0.139 HD
BRANCH  10  12
ATOM     12  S   UNL d   1       1.082  -0.122  -0.137  0.00  0.00     0.205 S 
ATOM     13  O   UNL d   1       0.672   0.012  -1.516  0.00  0.00    -0.212 OA
ATOM     14  O   UNL d   1       0.742  -1.282   0.653  0.00  0.00    -0.212 OA
ATOM     15  C   UNL d   1       2.835   0.148  -0.041  0.00  0.00     0.179 C 
ENDBRANCH  10  12
ENDBRANCH   9  10
ENDBRANCH   1   9
TORSDOF 4
