REMARK  6 active torsions:
REMARK  status: ('A' for Active; 'I' for Inactive)
REMARK    1  A    between atoms: C_9  and  N_1 
REMARK    2  A    between atoms: S_8  and  C_2 
REMARK    3  A    between atoms: C_16  and  S_8 
REMARK    4  A    between atoms: C_10  and  C_9 
REMARK    5  A    between atoms: C_11  and  C_16 
REMARK    6  A    between atoms: C_15  and  C_11 
ROOT
ATOM      1  N   UNL d   1       2.154  -0.770   0.489  0.00  0.00    -0.293 N 
ATOM      2  C   UNL d   1       2.224   0.617   0.557  0.00  0.00     0.150 A 
ATOM      3  C   UNL d   1       0.913  -1.410   0.462  0.00  0.00     0.262 A 
ATOM      4  N   UNL d   1       1.188   1.393   0.525  0.00  0.00    -0.336 N 
ATOM      5  HN  UNL d   1       1.293   2.404   0.615  1.00  0.00     0.168 HD
ATOM      6  C   UNL d   1      -0.272  -0.557   0.330  0.00  0.00     0.059 A 
ATOM      7  C   UNL d   1      -0.082   0.819   0.364  0.00  0.00     0.049 A 
ATOM      8  O   UNL d   1       0.758  -2.630   0.528  0.00  0.00    -0.267 OA
ATOM      9  C   UNL d   1      -1.543  -1.116   0.141  0.00  0.00     0.019 A 
ATOM     10  C   UNL d   1      -1.194   1.647   0.206  0.00  0.00     0.030 A 
ATOM     11  C   UNL d   1      -2.645  -0.281  -0.019  0.00  0.00     0.001 A 
ATOM     12  C   UNL d   1      -2.470   1.102   0.014  0.00  0.00     0.002 A 
ENDROOT
BRANCH   2  13
ATOM     13  S   UNL d   1       3.807   1.368   0.685  0.00  0.00    -0.086 SA
BRANCH  13  14
ATOM     14  C   UNL d   1       3.397   3.027   1.322  0.00  0.00     0.161 C 
BRANCH  14  15
ATOM     15  C   UNL d   1       4.632   3.933   1.351  0.00  0.00     0.144 C 
ATOM     16  O   UNL d   1       5.506   3.857   0.481  0.00  0.00    -0.296 OA
BRANCH  15  17
ATOM     17  C   UNL d   1       4.777   4.963   2.502  0.00  0.00     0.010 C 
ATOM     18  C   UNL d   1       5.486   4.276   3.676  0.00  0.00     0.022 C 
ATOM     19  C   UNL d   1       5.644   6.146   2.023  0.00  0.00     0.022 C 
ATOM     20  C   UNL d   1       3.428   5.533   2.959  0.00  0.00     0.022 C 
ENDBRANCH  15  17
ENDBRANCH  14  15
ENDBRANCH  13  14
ENDBRANCH   2  13
BRANCH   1  21
ATOM     21  C   UNL d   1       3.306  -1.678   0.472  0.00  0.00     0.139 C 
BRANCH  21  22
ATOM     22  C   UNL d   1       3.507  -2.267  -0.906  0.00  0.00     0.004 A 
ATOM     23  C   UNL d   1       4.354  -3.509  -1.055  0.00  0.00     0.007 A 
ATOM     24  C   UNL d   1       4.841  -2.200  -1.606  0.00  0.00     0.007 A 
ENDBRANCH  21  22
ENDBRANCH   1  21
TORSDOF 6
