REMARK  6 active torsions:
REMARK  status: ('A' for Active; 'I' for Inactive)
REMARK    1  A    between atoms: C_6  and  N_1 
REMARK    2  A    between atoms: C_2  and  C_8 
REMARK    3  A    between atoms: C_10  and  C_3 
REMARK    4  A    between atoms: O_15  and  C_17 
REMARK    5  A    between atoms: C_18  and  O_15 
REMARK    6  A    between atoms: C_19  and  C_18 
ROOT
ATOM      1  C   UNL d   1      -2.925   3.702   2.742  0.00  0.00     0.055 C 
ATOM      2  C   UNL d   1      -3.406   2.879   3.700  0.00  0.00     0.035 C 
ATOM      3  C   UNL d   1      -2.837   3.265   1.379  0.00  0.00     0.100 C 
ATOM      4  N   UNL d   1      -2.741   2.938   0.267  0.00  0.00    -0.191 NA
ENDROOT
BRANCH   1   5
ATOM      5  C   UNL d   1      -2.421   5.061   3.108  0.00  0.00    -0.015 A 
ATOM      6  C   UNL d   1      -1.353   5.644   2.398  0.00  0.00     0.015 A 
ATOM      7  C   UNL d   1      -0.854   6.910   2.737  0.00  0.00     0.037 A 
ATOM      8  C   UNL d   1      -1.424   7.614   3.801  0.00  0.00     0.102 A 
ATOM      9  C   UNL d   1      -2.495   7.067   4.513  0.00  0.00     0.037 A 
ATOM     10  C   UNL d   1      -2.991   5.806   4.158  0.00  0.00     0.015 A 
BRANCH   8  11
ATOM     11  N   UNL d   1      -0.896   8.933   4.175  0.00  0.00    -0.116 N 
ATOM     12  O   UNL d   1      -1.429   9.516   5.131  0.00  0.00    -0.532 OA
ATOM     13  O   UNL d   1       0.051   9.383   3.516  0.00  0.00    -0.532 OA
ENDBRANCH   8  11
ENDBRANCH   1   5
BRANCH   2  14
ATOM     14  C   UNL d   1      -3.862   1.501   3.487  0.00  0.00    -0.032 A 
ATOM     15  C   UNL d   1      -2.965   0.440   3.664  0.00  0.00     0.048 A 
ATOM     16  C   UNL d   1      -3.393  -0.880   3.510  0.00  0.00     0.070 A 
ATOM     17  C   UNL d   1      -4.710  -1.136   3.121  0.00  0.00     0.037 A 
ATOM     18  C   UNL d   1      -5.611  -0.083   2.957  0.00  0.00     0.004 A 
ATOM     19  C   UNL d   1      -5.191   1.233   3.146  0.00  0.00     0.011 A 
BRANCH  16  20
ATOM     20  O   UNL d   1      -2.452  -1.841   3.776  0.00  0.00    -0.347 OA
BRANCH  20  21
ATOM     21  C   UNL d   1      -2.984  -3.132   4.088  0.00  0.00     0.214 C 
BRANCH  21  22
ATOM     22  C   UNL d   1      -1.986  -3.970   4.849  0.00  0.00    -0.034 A 
ATOM     23  C   UNL d   1      -2.449  -4.863   5.829  0.00  0.00     0.009 A 
ATOM     24  C   UNL d   1      -1.560  -5.682   6.522  0.00  0.00     0.001 A 
ATOM     25  C   UNL d   1      -0.198  -5.625   6.237  0.00  0.00     0.000 A 
ATOM     26  C   UNL d   1       0.273  -4.752   5.257  0.00  0.00     0.001 A 
ATOM     27  C   UNL d   1      -0.617  -3.931   4.562  0.00  0.00     0.009 A 
ENDBRANCH  21  22
ENDBRANCH  20  21
ENDBRANCH  16  20
ENDBRANCH   2  14
TORSDOF 6
