REMARK  2 active torsions:
REMARK  status: ('A' for Active; 'I' for Inactive)
REMARK    1  A    between atoms: C_5  and  O_11 
REMARK    2  A    between atoms: O_11  and  C_12 
ROOT
ATOM      1  N   UNL d   1       1.351  -1.065  -0.015  0.00  0.00    -0.195 NA
ATOM      2  C   UNL d   1       2.324  -1.062   0.621  0.00  0.00     0.085 C 
ATOM      3  C   UNL d   1       3.547  -1.113   1.439  0.00  0.00     0.299 C 
ENDROOT
BRANCH   3   4
ATOM      4  O   UNL d   1       4.327   0.071   1.241  0.00  0.00    -0.336 OA
BRANCH   4   5
ATOM      5  C   UNL d   1       5.653  -0.003   1.582  0.00  0.00     0.091 A 
ATOM      6  C   UNL d   1       6.537   0.872   0.926  0.00  0.00     0.069 A 
ATOM      7  C   UNL d   1       7.906   0.846   1.200  0.00  0.00     0.050 A 
ATOM      8 CL   UNL d   1       5.969   1.998  -0.257  0.00  0.00    -0.081 Cl
ATOM      9  C   UNL d   1       8.397  -0.049   2.145  0.00  0.00     0.035 A 
ATOM     10  C   UNL d   1       7.530  -0.898   2.829  0.00  0.00     0.026 A 
ATOM     11 CL   UNL d   1      10.084  -0.107   2.474  0.00  0.00    -0.084 Cl
ATOM     12  C   UNL d   1       6.159  -0.871   2.556  0.00  0.00     0.040 A 
ENDBRANCH   4   5
ENDBRANCH   3   4
TORSDOF 2
