REMARK  6 active torsions:
REMARK  status: ('A' for Active; 'I' for Inactive)
REMARK       I    between atoms: N_6  and  C_1 
REMARK    1  A    between atoms: C_10  and  C_1 
REMARK    2  A    between atoms: C_2  and  C_11 
REMARK    3  A    between atoms: O_12  and  C_2 
REMARK    4  A    between atoms: C_3  and  S_7 
REMARK    5  A    between atoms: C_11  and  N_6 
REMARK    6  A    between atoms: S_7  and  C_10 
ROOT
ATOM      1  C   UNL d   1       1.019  -0.120   0.172  0.00  0.00     0.227 C 
ATOM      2  N   UNL d   1       0.343  -1.226   0.612  0.00  0.00    -0.351 N 
ATOM      3  O   UNL d   1       0.418   0.859  -0.276  0.00  0.00    -0.273 OA
ATOM      4  H   UNL d   1       0.846  -1.887   1.203  0.00  0.00     0.163 HD
ENDROOT
BRANCH   1   5
ATOM      5  C   UNL d   1       2.541  -0.110   0.231  0.00  0.00     0.183 C 
BRANCH   5   6
ATOM      6  S   UNL d   1       3.375  -1.601   0.844  0.00  0.00    -0.103 SA
BRANCH   6   7
ATOM      7  C   UNL d   1       2.824  -1.608   2.529  0.00  0.00     0.069 A 
ATOM      8  N   UNL d   1       1.738  -2.386   2.758  0.00  0.00    -0.361 N 
ATOM      9  C   UNL d   1       1.276  -2.442   4.024  0.00  0.00     0.089 A 
ATOM     10  HN  UNL d   1       1.288  -2.907   2.004  1.00  0.00     0.165 HD
ATOM     11  C   UNL d   1       1.838  -1.747   5.079  0.00  0.00     0.017 A 
ATOM     12  C   UNL d   1       2.951  -0.955   4.821  0.00  0.00     0.004 A 
ATOM     13  C   UNL d   1       3.460  -0.884   3.525  0.00  0.00     0.037 A 
ENDBRANCH   6   7
ENDBRANCH   5   6
ENDBRANCH   1   5
BRANCH   2  14
ATOM     14  C   UNL d   1      -1.109  -1.257   0.679  0.00  0.00     0.233 C 
BRANCH  14  15
ATOM     15  C   UNL d   1      -1.752  -0.656   1.932  0.00  0.00     0.276 C 
ATOM     16  O   UNL d   1      -2.964  -0.668   2.126  0.00  0.00    -0.263 OA
BRANCH  15  17
ATOM     17  O   UNL d   1      -0.842  -0.140   2.803  0.00  0.00    -0.325 OA
ATOM     18  C   UNL d   1      -1.420   0.430   3.976  0.00  0.00     0.213 C 
ENDBRANCH  15  17
ENDBRANCH  14  15
ENDBRANCH   2  14
TORSDOF 6
