REMARK  7 active torsions:
REMARK  status: ('A' for Active; 'I' for Inactive)
REMARK    1  A    between atoms: C_14  and  N_1 
REMARK    2  A    between atoms: O_24  and  C_4 
REMARK    3  A    between atoms: C_5  and  O_17 
REMARK    4  A    between atoms: C_6  and  C_7 
REMARK    5  A    between atoms: O_25  and  C_8 
REMARK    6  A    between atoms: O_26  and  C_9 
REMARK    7  A    between atoms: O_17  and  C_23 
ROOT
ATOM      1  N   UNL d   1      -0.004  -0.952  -0.204  0.00  0.00    -0.252 N 
ATOM      2  C   UNL d   1       1.210  -0.243  -0.238  0.00  0.00     0.231 C 
ATOM      3  C   UNL d   1      -1.262  -0.367  -0.001  0.00  0.00     0.231 C 
ATOM      4  C   UNL d   1      -0.162   1.867  -0.258  0.00  0.00     0.036 C 
ATOM      5  C   UNL d   1       1.157   1.227   0.127  0.00  0.00     0.113 C 
ATOM      6  C   UNL d   1      -1.273   1.078   0.414  0.00  0.00     0.113 C 
ATOM      7  O   UNL d   1      -2.341  -0.955  -0.098  0.00  0.00    -0.273 OA
ATOM      8  O   UNL d   1       2.319  -0.750  -0.433  0.00  0.00    -0.273 OA
ENDROOT
BRANCH   4   9
ATOM      9  C   UNL d   1      -0.164   3.346   0.104  0.00  0.00    -0.048 A 
ATOM     10  C   UNL d   1      -0.593   3.820   1.345  0.00  0.00     0.047 A 
ATOM     11  C   UNL d   1      -0.586   5.191   1.665  0.00  0.00     0.104 A 
ATOM     12  C   UNL d   1      -0.130   6.134   0.719  0.00  0.00     0.135 A 
ATOM     13  C   UNL d   1       0.311   5.665  -0.539  0.00  0.00     0.104 A 
ATOM     14  C   UNL d   1       0.295   4.286  -0.823  0.00  0.00     0.047 A 
BRANCH  11  15
ATOM     15  O   UNL d   1      -1.090   5.632   2.863  0.00  0.00    -0.353 OA
ATOM     16  C   UNL d   1      -1.005   4.747   3.976  0.00  0.00     0.210 C 
ENDBRANCH  11  15
BRANCH  12  17
ATOM     17  O   UNL d   1      -0.078   7.490   0.910  0.00  0.00    -0.351 OA
ATOM     18  C   UNL d   1      -0.325   8.051   2.190  0.00  0.00     0.210 C 
ENDBRANCH  12  17
BRANCH  13  19
ATOM     19  O   UNL d   1       0.786   6.382  -1.610  0.00  0.00    -0.353 OA
ATOM     20  C   UNL d   1       0.858   7.797  -1.533  0.00  0.00     0.210 C 
ENDBRANCH  13  19
ENDBRANCH   4   9
BRANCH   1  21
ATOM     21  C   UNL d   1       0.039  -2.381  -0.374  0.00  0.00     0.045 A 
ATOM     22  C   UNL d   1       0.829  -2.982  -1.363  0.00  0.00     0.033 A 
ATOM     23  C   UNL d   1       0.909  -4.379  -1.474  0.00  0.00     0.039 A 
ATOM     24  C   UNL d   1       0.237  -5.195  -0.567  0.00  0.00     0.078 A 
ATOM     25  C   UNL d   1      -0.582  -4.604   0.396  0.00  0.00     0.039 A 
ATOM     26  C   UNL d   1      -0.687  -3.213   0.488  0.00  0.00     0.033 A 
BRANCH  24  27
ATOM     27  O   UNL d   1       0.294  -6.556  -0.495  0.00  0.00    -0.255 OA
BRANCH  27  28
ATOM     28  C   UNL d   1       1.309  -7.221  -1.226  0.00  0.00     0.530 C 
ATOM     29  F   UNL d   1       2.506  -6.604  -1.120  0.00  0.00    -0.144 F 
ATOM     30  F   UNL d   1       1.445  -8.472  -0.731  0.00  0.00    -0.144 F 
ATOM     31  F   UNL d   1       0.966  -7.316  -2.528  0.00  0.00    -0.144 F 
ENDBRANCH  27  28
ENDBRANCH  24  27
ENDBRANCH   1  21
TORSDOF 7
