REMARK  4 active torsions:
REMARK  status: ('A' for Active; 'I' for Inactive)
REMARK    1  A    between atoms: C_6  and  C_1 
REMARK    2  A    between atoms: C_9  and  C_3 
REMARK    3  A    between atoms: S_10  and  C_5 
REMARK    4  A    between atoms: O_14  and  C_6 
ROOT
ATOM      1  C   UNL d   1       1.329  -1.237   0.036  0.00  0.00     0.092 A 
ATOM      2  C   UNL d   1      -0.704  -0.072  -0.037  0.00  0.00     0.081 A 
ATOM      3  C   UNL d   1      -0.060  -1.376   0.015  0.00  0.00     0.021 A 
ATOM      4  S   UNL d   1       1.802   0.414  -0.006  0.00  0.00    -0.074 SA
ATOM      5  C   UNL d   1       0.196   0.975  -0.029  0.00  0.00     0.063 A 
ATOM      6  C   UNL d   1      -2.123   0.146  -0.107  0.00  0.00     0.102 C 
ATOM      7  N   UNL d   1      -3.267   0.326  -0.116  0.00  0.00    -0.191 NA
ENDROOT
BRANCH   3   8
ATOM      8  C   UNL d   1      -0.744  -2.688   0.014  0.00  0.00    -0.023 A 
ATOM      9  C   UNL d   1      -0.276  -3.764  -0.759  0.00  0.00     0.014 A 
ATOM     10  C   UNL d   1      -0.921  -5.008  -0.733  0.00  0.00     0.024 A 
ATOM     11  C   UNL d   1      -2.076  -5.176   0.022  0.00  0.00     0.034 A 
ATOM     12  C   UNL d   1      -2.582  -4.114   0.763  0.00  0.00     0.024 A 
ATOM     13 CL   UNL d   1      -2.878  -6.696   0.042  0.00  0.00    -0.084 Cl
ATOM     14  C   UNL d   1      -1.909  -2.885   0.774  0.00  0.00     0.014 A 
ENDBRANCH   3   8
BRANCH   5  15
ATOM     15  S   UNL d   1      -0.119   2.708  -0.129  0.00  0.00    -0.126 SA
ATOM     16  C   UNL d   1      -0.935   3.034   1.451  0.00  0.00     0.096 C 
ENDBRANCH   5  15
BRANCH   1  17
ATOM     17  C   UNL d   1       2.381  -2.243   0.128  0.00  0.00     0.184 C 
ATOM     18  O   UNL d   1       2.294  -3.331   0.678  0.00  0.00    -0.646 OA
BRANCH  17  19
ATOM     19  O   UNL d   1       3.516  -1.874  -0.523  0.00  0.00    -0.772 OA
ATOM     20  H   UNL d   1       3.451  -0.983  -0.918  0.00  0.00     0.167 HD
ENDBRANCH  17  19
ENDBRANCH   1  17
TORSDOF 4
