REMARK  3 active torsions:
REMARK  status: ('A' for Active; 'I' for Inactive)
REMARK    1  A    between atoms: C_4  and  C_2 
REMARK    2  A    between atoms: C_6  and  C_12 
REMARK    3  A    between atoms: C_13  and  C_11 
ROOT
ATOM      1  C   UNL d   1      -5.476  -2.144   0.481  0.00  0.00     0.089 A 
ATOM      2  O   UNL d   1      -4.209  -2.434   0.899  0.00  0.00    -0.310 OA
ATOM      3  C   UNL d   1      -3.306  -1.933  -0.005  0.00  0.00     0.077 A 
ATOM      4  C   UNL d   1      -5.399  -1.462  -0.716  0.00  0.00     0.041 A 
ATOM      5  C   UNL d   1      -4.024  -1.342  -1.032  0.00  0.00     0.040 A 
ENDROOT
BRANCH   1   6
ATOM      6  C   UNL d   1      -6.563  -2.630   1.342  0.00  0.00     0.041 A 
ATOM      7  C   UNL d   1      -6.460  -2.623   2.753  0.00  0.00     0.049 A 
ATOM      8  C   UNL d   1      -7.488  -3.129   3.568  0.00  0.00     0.041 A 
ATOM      9 CL   UNL d   1      -5.111  -1.948   3.615  0.00  0.00    -0.083 Cl
ATOM     10  C   UNL d   1      -8.666  -3.636   3.013  0.00  0.00     0.051 A 
ATOM     11  C   UNL d   1      -8.798  -3.622   1.623  0.00  0.00     0.041 A 
ATOM     12  C   UNL d   1      -7.766  -3.136   0.801  0.00  0.00     0.049 A 
ATOM     13 CL   UNL d   1      -8.079  -3.245  -0.902  0.00  0.00    -0.083 Cl
BRANCH  10  14
ATOM     14  C   UNL d   1      -9.752  -4.185   3.904  0.00  0.00     0.417 C 
ATOM     15  F   UNL d   1     -10.850  -4.612   3.222  0.00  0.00    -0.166 F 
ATOM     16  F   UNL d   1      -9.329  -5.250   4.639  0.00  0.00    -0.166 F 
ATOM     17  F   UNL d   1     -10.202  -3.265   4.799  0.00  0.00    -0.166 F 
ENDBRANCH  10  14
ENDBRANCH   1   6
BRANCH   3  18
ATOM     18  C   UNL d   1      -1.904  -2.023   0.184  0.00  0.00     0.055 C 
ATOM     19  C   UNL d   1      -1.170  -3.028  -0.309  0.00  0.00     0.047 A 
ATOM     20  C   UNL d   1      -1.655  -4.185  -1.148  0.00  0.00     0.257 A 
ATOM     21  C   UNL d   1       0.274  -3.216  -0.116  0.00  0.00     0.006 A 
ATOM     22  N   UNL d   1      -0.524  -4.954  -1.380  0.00  0.00    -0.322 N 
ATOM     23  O   UNL d   1      -2.774  -4.414  -1.560  0.00  0.00    -0.267 OA
ATOM     24  C   UNL d   1       0.603  -4.398  -0.786  0.00  0.00     0.046 A 
ATOM     25  H   UNL d   1      -0.552  -5.804  -1.922  0.00  0.00     0.169 HD
ATOM     26  C   UNL d   1       1.886  -4.902  -0.822  0.00  0.00     0.030 A 
ATOM     27  C   UNL d   1       2.876  -4.181  -0.153  0.00  0.00     0.002 A 
ATOM     28  C   UNL d   1       2.562  -2.992   0.530  0.00  0.00     0.001 A 
ATOM     29  C   UNL d   1       1.251  -2.498   0.552  0.00  0.00     0.015 A 
ENDBRANCH   3  18
TORSDOF 3
