REMARK  5 active torsions:
REMARK  status: ('A' for Active; 'I' for Inactive)
REMARK    1  A    between atoms: C_9  and  C_3 
REMARK    2  A    between atoms: C_6  and  C_11 
REMARK    3  A    between atoms: O_8  and  C_6 
REMARK    4  A    between atoms: C_10  and  C_9 
REMARK    5  A    between atoms: C_11  and  C_10 
ROOT
ATOM      1  N   UNL d   1      -1.559   1.025  -0.038  0.00  0.00    -0.365 N 
ATOM      2  C   UNL d   1      -2.343  -0.097  -0.045  0.00  0.00     0.096 A 
ATOM      3  C   UNL d   1      -1.522  -1.206  -0.033  0.00  0.00    -0.030 A 
ATOM      4  C   UNL d   1      -0.172  -0.721  -0.016  0.00  0.00    -0.002 A 
ATOM      5  C   UNL d   1      -0.230   0.673  -0.034  0.00  0.00     0.042 A 
ATOM      6  C   UNL d   1       1.097  -1.337   0.007  0.00  0.00     0.014 A 
ATOM      7  C   UNL d   1       0.913   1.482  -0.040  0.00  0.00     0.030 A 
ATOM      8  C   UNL d   1       2.251  -0.544  -0.002  0.00  0.00     0.001 A 
ATOM      9  C   UNL d   1       2.157   0.845  -0.027  0.00  0.00     0.002 A 
ATOM     10  H   UNL d   1      -1.900   1.975  -0.035  0.00  0.00     0.165 HD
ENDROOT
BRANCH   3  11
ATOM     11  C   UNL d   1      -1.974  -2.633  -0.028  0.00  0.00     0.041 C 
BRANCH  11  12
ATOM     12  C   UNL d   1      -2.261  -3.196  -1.422  0.00  0.00     0.015 C 
BRANCH  12  13
ATOM     13  C   UNL d   1      -1.029  -3.278  -2.323  0.00  0.00     0.110 C 
BRANCH  13  14
ATOM     14  C   UNL d   1      -1.385  -3.875  -3.665  0.00  0.00     0.139 C 
ATOM     15  O   UNL d   1      -2.265  -4.699  -3.850  0.00  0.00    -0.650 OA
BRANCH  14  16
ATOM     16  O   UNL d   1      -0.589  -3.437  -4.669  0.00  0.00    -0.776 OA
ATOM     17  H   UNL d   1       0.074  -2.779  -4.390  0.00  0.00     0.167 HD
ENDBRANCH  14  16
ENDBRANCH  13  14
ENDBRANCH  12  13
ENDBRANCH  11  12
ENDBRANCH   3  11
TORSDOF 5
