REMARK  8 active torsions:
REMARK  status: ('A' for Active; 'I' for Inactive)
REMARK    1  A    between atoms: C_3  and  C_1 
REMARK       I    between atoms: N_5  and  C_1 
REMARK       I    between atoms: C_2  and  N_6 
REMARK    2  A    between atoms: C_4  and  C_2 
REMARK    3  A    between atoms: C_8  and  N_5 
REMARK    4  A    between atoms: N_6  and  C_7 
REMARK    5  A    between atoms: O_16  and  C_11 
REMARK    6  A    between atoms: O_15  and  C_12 
REMARK    7  A    between atoms: O_17  and  C_13 
REMARK    8  A    between atoms: O_18  and  C_14 
ROOT
ATOM      1  C   UNL d   1      -1.888  -0.961  -0.020  0.00  0.00     0.062 C 
ATOM      2  C   UNL d   1      -1.355  -0.469   1.194  0.00  0.00     0.062 C 
ATOM      3  C   UNL d   1      -2.215  -0.310   2.291  0.00  0.00     0.032 C 
ATOM      4  C   UNL d   1      -3.288  -1.072  -0.162  0.00  0.00     0.032 C 
ATOM      5  C   UNL d   1      -4.125  -0.837   0.925  0.00  0.00     0.002 C 
ATOM      6  C   UNL d   1      -3.592  -0.492   2.156  0.00  0.00     0.002 C 
ENDROOT
BRANCH   1   7
ATOM      7  N   UNL d   1      -1.126  -1.413  -1.108  0.00  0.00    -0.321 N 
ATOM      8  C   UNL d   1      -0.019  -2.229  -0.998  0.00  0.00     0.261 C 
ATOM      9  O   UNL d   1       0.237  -2.837   0.039  0.00  0.00    -0.267 OA
ATOM     10  H   UNL d   1      -1.477  -1.221  -2.036  0.00  0.00     0.169 HD
BRANCH   8  11
ATOM     11  C   UNL d   1       0.769  -2.483  -2.268  0.00  0.00     0.098 C 
ATOM     12  C   UNL d   1       0.469  -1.851  -3.497  0.00  0.00     0.086 C 
ATOM     13  C   UNL d   1       1.101  -2.251  -4.685  0.00  0.00     0.038 C 
ATOM     14  C   UNL d   1       2.074  -3.245  -4.671  0.00  0.00     0.005 C 
ATOM     15  C   UNL d   1       2.464  -3.800  -3.459  0.00  0.00     0.038 C 
ATOM     16  C   UNL d   1       1.839  -3.409  -2.265  0.00  0.00     0.086 C 
BRANCH  12  17
ATOM     17  O   UNL d   1      -0.487  -0.861  -3.559  0.00  0.00    -0.355 OA
ATOM     18  C   UNL d   1      -0.017   0.329  -4.208  0.00  0.00     0.210 C 
ENDBRANCH  12  17
BRANCH  16  19
ATOM     19  O   UNL d   1       2.483  -3.767  -1.106  0.00  0.00    -0.355 OA
ATOM     20  C   UNL d   1       2.172  -5.083  -0.665  0.00  0.00     0.210 C 
ENDBRANCH  16  19
ENDBRANCH   8  11
ENDBRANCH   1   7
BRANCH   2  21
ATOM     21  N   UNL d   1      -0.023   0.027   1.359  0.00  0.00    -0.321 N 
ATOM     22  C   UNL d   1       0.706   0.644   0.352  0.00  0.00     0.261 C 
ATOM     23  O   UNL d   1       0.341   0.811  -0.812  0.00  0.00    -0.267 OA
ATOM     24  H   UNL d   1       0.275   0.209   2.305  0.00  0.00     0.169 HD
BRANCH  22  25
ATOM     25  C   UNL d   1       1.984   1.310   0.727  0.00  0.00     0.098 A 
ATOM     26  C   UNL d   1       3.198   0.653   0.996  0.00  0.00     0.086 A 
ATOM     27  C   UNL d   1       4.392   1.393   0.902  0.00  0.00     0.038 A 
ATOM     28  C   UNL d   1       4.410   2.751   0.618  0.00  0.00     0.005 A 
ATOM     29  C   UNL d   1       3.212   3.424   0.463  0.00  0.00     0.038 A 
ATOM     30  C   UNL d   1       1.999   2.723   0.507  0.00  0.00     0.086 A 
BRANCH  26  31
ATOM     31  O   UNL d   1       3.526  -0.615   1.356  0.00  0.00    -0.355 OA
ATOM     32  C   UNL d   1       2.592  -1.657   1.472  0.00  0.00     0.210 C 
ENDBRANCH  26  31
BRANCH  30  33
ATOM     33  O   UNL d   1       0.784   3.365   0.391  0.00  0.00    -0.355 OA
ATOM     34  C   UNL d   1       0.793   4.657  -0.211  0.00  0.00     0.210 C 
ENDBRANCH  30  33
ENDBRANCH  22  25
ENDBRANCH   2  21
TORSDOF 8
