REMARK  7 active torsions:
REMARK  status: ('A' for Active; 'I' for Inactive)
REMARK    1  A    between atoms: C_2  and  S_1 
REMARK    2  A    between atoms: N_4  and  S_1 
REMARK    3  A    between atoms: C_8  and  N_4 
REMARK    4  A    between atoms: C_9  and  C_13 
REMARK    5  A    between atoms: O_19  and  C_14 
REMARK    6  A    between atoms: C_27  and  O_19 
REMARK    7  A    between atoms: O_33  and  C_28 
ROOT
ATOM      1  C   UNL d   1       0.751   0.236  -2.679  0.00  0.00     0.077 A 
ATOM      2  C   UNL d   1       0.387   1.009  -4.971  0.00  0.00     0.050 A 
ATOM      3  C   UNL d   1       2.138   0.354  -2.852  0.00  0.00     0.103 A 
ATOM      4  C   UNL d   1      -0.104   0.521  -3.751  0.00  0.00     0.049 A 
ATOM      5  C   UNL d   1       1.759   1.234  -5.097  0.00  0.00     0.019 A 
ATOM      6  C   UNL d   1       2.625   0.904  -4.050  0.00  0.00     0.040 A 
ENDROOT
BRANCH   1   7
ATOM      7  N   UNL d   1       0.084  -0.269  -1.532  0.00  0.00    -0.278 N 
ATOM      8  H   UNL d   1       0.023  -1.271  -1.390  0.00  0.00     0.179 HD
BRANCH   7   9
ATOM      9  S   UNL d   1      -0.086   0.618  -0.129  0.00  0.00     0.265 S 
ATOM     10  O   UNL d   1      -0.741  -0.296   0.796  0.00  0.00    -0.200 OA
ATOM     11  O   UNL d   1       1.151   1.264   0.244  0.00  0.00    -0.200 OA
BRANCH   9  12
ATOM     12  C   UNL d   1      -1.263   1.862  -0.504  0.00  0.00     0.110 A 
ATOM     13  C   UNL d   1      -0.907   3.088  -1.094  0.00  0.00     0.108 A 
ATOM     14  C   UNL d   1      -1.855   4.195  -1.178  0.00  0.00     0.086 A 
ATOM     15  N   UNL d   1       0.241   3.497  -1.649  0.00  0.00    -0.238 N 
ATOM     16  N   UNL d   1      -1.244   5.234  -1.757  0.00  0.00    -0.239 N 
ATOM     17  C   UNL d   1      -3.172   4.108  -0.690  0.00  0.00     0.034 A 
ATOM     18  O   UNL d   1       0.040   4.806  -2.042  0.00  0.00    -0.156 OA
ATOM     19  HN  UNL d   1      -1.642   6.153  -1.948  1.00  0.00     0.197 HD
ATOM     20  C   UNL d   1      -3.518   2.858  -0.144  0.00  0.00     0.004 A 
ATOM     21  C   UNL d   1      -2.602   1.778  -0.051  0.00  0.00     0.028 A 
ATOM     22  HN  UNL d   1       1.094   2.950  -1.760  1.00  0.00     0.197 HD
ENDBRANCH   9  12
ENDBRANCH   7   9
ENDBRANCH   1   7
BRANCH   3  23
ATOM     23  O   UNL d   1       3.144   0.046  -1.965  0.00  0.00    -0.308 OA
BRANCH  23  24
ATOM     24  C   UNL d   1       3.039  -1.022  -1.112  0.00  0.00     0.076 C 
ATOM     25  C   UNL d   1       2.410  -2.228  -1.416  0.00  0.00     0.040 C 
ATOM     26  C   UNL d   1       2.216  -3.179  -0.411  0.00  0.00     0.039 C 
ATOM     27  C   UNL d   1       2.712  -2.947   0.873  0.00  0.00     0.068 C 
ATOM     28  C   UNL d   1       3.488  -1.819   1.126  0.00  0.00     0.039 C 
ATOM     29  C   UNL d   1       3.647  -0.854   0.134  0.00  0.00     0.040 C 
BRANCH  27  30
ATOM     30  O   UNL d   1       2.517  -3.804   1.922  0.00  0.00    -0.356 OA
ATOM     31  C   UNL d   1       1.157  -4.216   2.056  0.00  0.00     0.210 C 
ENDBRANCH  27  30
ENDBRANCH  23  24
ENDBRANCH   3  23
BRANCH   2  32
ATOM     32  C   UNL d   1      -0.548   1.273  -6.123  0.00  0.00     0.417 C 
ATOM     33  F   UNL d   1      -1.837   0.917  -5.863  0.00  0.00    -0.166 F 
ATOM     34  F   UNL d   1      -0.585   2.583  -6.481  0.00  0.00    -0.166 F 
ATOM     35  F   UNL d   1      -0.193   0.583  -7.241  0.00  0.00    -0.166 F 
ENDBRANCH   2  32
TORSDOF 7
