REMARK  13 active torsions:
REMARK  status: ('A' for Active; 'I' for Inactive)
REMARK    1  A    between atoms: O_8  and  N_1 
REMARK    2  A    between atoms: N_2  and  O_7 
REMARK    3  A    between atoms: O_7  and  C_10 
REMARK    4  A    between atoms: C_9  and  O_8 
REMARK    5  A    between atoms: C_27  and  C_9 
REMARK    6  A    between atoms: C_10  and  C_28 
REMARK    7  A    between atoms: C_11  and  C_30 
REMARK       I    between atoms: N_13  and  C_11 
REMARK       I    between atoms: C_12  and  N_14 
REMARK    8  A    between atoms: C_29  and  C_12 
REMARK    9  A    between atoms: C_28  and  N_13 
REMARK   10  A    between atoms: N_14  and  C_27 
REMARK   11  A    between atoms: C_32  and  C_29 
REMARK   12  A    between atoms: C_30  and  C_31 
REMARK   13  A    between atoms: C_31  and  C_32 
ROOT
ATOM      1  C   UNL d   1      -5.495   8.966  -0.616  0.00  0.00     0.010 C 
ENDROOT
BRANCH   1   2
ATOM      2  C   UNL d   1      -5.707  10.479  -0.725  0.00  0.00     0.103 C 
BRANCH   2   3
ATOM      3  C   UNL d   1      -7.176  10.852  -0.709  0.00  0.00     0.217 C 
ATOM      4  N   UNL d   1      -7.398  12.206  -0.845  0.00  0.00    -0.352 N 
ATOM      5  H   UNL d   1      -6.624  12.816  -1.078  0.00  0.00     0.162 HD
ATOM      6  O   UNL d   1      -8.077  10.038  -0.549  0.00  0.00    -0.274 OA
BRANCH   4   7
ATOM      7  C   UNL d   1      -8.748  12.759  -0.806  0.00  0.00     0.235 C 
BRANCH   7   8
ATOM      8  C   UNL d   1      -9.492  12.820  -2.139  0.00  0.00     0.299 C 
ATOM      9  O   UNL d   1     -10.623  13.273  -2.275  0.00  0.00    -0.261 OA
BRANCH   8  10
ATOM     10  O   UNL d   1      -8.761  12.253  -3.144  0.00  0.00    -0.185 OA
BRANCH  10  11
ATOM     11  N   UNL d   1      -9.578  11.646  -4.090  0.00  0.00    -0.145 N 
ATOM     12  C   UNL d   1     -10.232  10.498  -3.781  0.00  0.00     0.251 C 
ATOM     13  C   UNL d   1     -10.814   9.948  -5.044  0.00  0.00     0.115 C 
ATOM     14  O   UNL d   1     -10.322   9.953  -2.695  0.00  0.00    -0.271 OA
ATOM     15  C   UNL d   1     -10.514  11.017  -6.091  0.00  0.00     0.115 C 
ATOM     16  C   UNL d   1      -9.597  11.987  -5.397  0.00  0.00     0.251 C 
ATOM     17  O   UNL d   1      -8.999  12.896  -5.954  0.00  0.00    -0.271 OA
ENDBRANCH  10  11
ENDBRANCH   8  10
ENDBRANCH   7   8
ENDBRANCH   4   7
ENDBRANCH   2   3
ENDBRANCH   1   2
BRANCH   1  18
ATOM     18  C   UNL d   1      -4.020   8.559  -0.559  0.00  0.00     0.010 C 
BRANCH  18  19
ATOM     19  C   UNL d   1      -3.310   9.101   0.674  0.00  0.00     0.103 C 
BRANCH  19  20
ATOM     20  C   UNL d   1      -1.875   8.641   0.729  0.00  0.00     0.217 C 
ATOM     21  N   UNL d   1      -1.685   7.451   1.384  0.00  0.00    -0.352 N 
ATOM     22  H   UNL d   1      -2.475   6.837   1.547  0.00  0.00     0.162 HD
ATOM     23  O   UNL d   1      -0.960   9.292   0.235  0.00  0.00    -0.274 OA
BRANCH  21  24
ATOM     24  C   UNL d   1      -0.351   6.926   1.576  0.00  0.00     0.235 C 
BRANCH  24  25
ATOM     25  C   UNL d   1       0.078   5.921   0.511  0.00  0.00     0.299 C 
ATOM     26  O   UNL d   1      -0.659   5.131  -0.060  0.00  0.00    -0.261 OA
BRANCH  25  27
ATOM     27  O   UNL d   1       1.443   5.928   0.456  0.00  0.00    -0.185 OA
BRANCH  27  28
ATOM     28  N   UNL d   1       1.966   4.678   0.117  0.00  0.00    -0.145 N 
ATOM     29  C   UNL d   1       2.957   4.565  -0.797  0.00  0.00     0.251 C 
ATOM     30  C   UNL d   1       3.548   3.189  -0.650  0.00  0.00     0.115 C 
ATOM     31  O   UNL d   1       3.389   5.421  -1.556  0.00  0.00    -0.271 OA
ATOM     32  C   UNL d   1       2.838   2.592   0.561  0.00  0.00     0.115 C 
ATOM     33  C   UNL d   1       1.992   3.716   1.076  0.00  0.00     0.251 C 
ATOM     34  O   UNL d   1       1.478   3.757   2.185  0.00  0.00    -0.271 OA
ENDBRANCH  27  28
ENDBRANCH  25  27
ENDBRANCH  24  25
ENDBRANCH  21  24
ENDBRANCH  19  20
ENDBRANCH  18  19
ENDBRANCH   1  18
TORSDOF 13
