REMARK  7 active torsions:
REMARK  status: ('A' for Active; 'I' for Inactive)
REMARK    1  A    between atoms: C_8  and  C_1 
REMARK    2  A    between atoms: C_12  and  N_6 
REMARK    3  A    between atoms: C_9  and  C_10 
REMARK       I    between atoms: C_10  and  N_14 
REMARK    4  A    between atoms: C_13  and  C_12 
REMARK       I    between atoms: N_15  and  C_13 
REMARK    5  A    between atoms: N_14  and  N_15 
REMARK    6  A    between atoms: O_27  and  C_16 
REMARK    7  A    between atoms: O_28  and  C_23 
ROOT
ATOM      1  C   UNL d   1       3.116   0.876  -0.388  0.00  0.00     0.257 C 
ATOM      2  N   UNL d   1       3.361  -0.448  -0.640  0.00  0.00    -0.266 N 
ATOM      3  O   UNL d   1       1.987   1.353  -0.558  0.00  0.00    -0.270 OA
ATOM      4  H   UNL d   1       4.244  -0.899  -0.365  0.00  0.00     0.190 HD
ENDROOT
BRANCH   1   5
ATOM      5  C   UNL d   1       4.255   1.775   0.031  0.00  0.00     0.271 C 
BRANCH   5   6
ATOM      6  N   UNL d   1       5.486   1.163   0.489  0.00  0.00    -0.207 N 
ATOM      7  N   UNL d   1       5.788  -0.141   0.352  0.00  0.00    -0.268 N 
ATOM      8  C   UNL d   1       7.003  -0.186   0.935  0.00  0.00     0.146 A 
ATOM      9  HN  UNL d   1       5.246  -0.892  -0.076  1.00  0.00     0.190 HD
ATOM     10  N   UNL d   1       7.399   1.053   1.382  0.00  0.00    -0.266 N 
ATOM     11  N   UNL d   1       6.434   1.908   1.076  0.00  0.00    -0.002 NA
ATOM     12  HN  UNL d   1       8.273   1.272   1.860  1.00  0.00     0.186 HD
BRANCH   8  13
ATOM     13  C   UNL d   1       7.761  -1.421   1.120  0.00  0.00     0.034 A 
ATOM     14  C   UNL d   1       9.155  -1.477   1.322  0.00  0.00     0.069 A 
ATOM     15  C   UNL d   1       9.781  -2.730   1.491  0.00  0.00     0.056 A 
ATOM     16 CL   UNL d   1      10.136  -0.042   1.327  0.00  0.00    -0.082 Cl
ATOM     17 CL   UNL d   1      11.489  -2.898   1.735  0.00  0.00    -0.083 Cl
ATOM     18  C   UNL d   1       9.037  -3.913   1.460  0.00  0.00     0.026 A 
ATOM     19  C   UNL d   1       7.664  -3.866   1.259  0.00  0.00     0.003 A 
ATOM     20  C   UNL d   1       7.036  -2.634   1.090  0.00  0.00     0.017 A 
ENDBRANCH   8  13
ENDBRANCH   5   6
ENDBRANCH   1   5
BRANCH   2  21
ATOM     21  N   UNL d   1       2.282  -1.298  -0.900  0.00  0.00    -0.263 N 
ATOM     22  C   UNL d   1       2.502  -2.660  -0.880  0.00  0.00     0.273 C 
ATOM     23  O   UNL d   1       3.591  -3.148  -0.587  0.00  0.00    -0.266 OA
ATOM     24  H   UNL d   1       1.376  -0.873  -1.098  0.00  0.00     0.190 HD
BRANCH  22  25
ATOM     25  C   UNL d   1       1.347  -3.532  -1.192  0.00  0.00     0.069 A 
ATOM     26  C   UNL d   1       0.405  -3.285  -2.199  0.00  0.00     0.084 A 
ATOM     27  C   UNL d   1      -0.665  -4.175  -2.362  0.00  0.00     0.040 A 
ATOM     28  C   UNL d   1      -0.795  -5.308  -1.547  0.00  0.00     0.039 A 
ATOM     29  C   UNL d   1       0.145  -5.560  -0.552  0.00  0.00     0.069 A 
ATOM     30  C   UNL d   1       1.216  -4.678  -0.390  0.00  0.00     0.056 A 
BRANCH  26  31
ATOM     31  O   UNL d   1       0.365  -2.178  -3.002  0.00  0.00    -0.355 OA
ATOM     32  C   UNL d   1       1.530  -1.955  -3.798  0.00  0.00     0.210 C 
ENDBRANCH  26  31
BRANCH  29  33
ATOM     33  O   UNL d   1       0.135  -6.604   0.329  0.00  0.00    -0.356 OA
ATOM     34  C   UNL d   1      -0.952  -7.518   0.248  0.00  0.00     0.210 C 
ENDBRANCH  29  33
ENDBRANCH  22  25
ENDBRANCH   2  21
TORSDOF 7
