REMARK  3 active torsions:
REMARK  status: ('A' for Active; 'I' for Inactive)
REMARK    1  A    between atoms: N_10  and  C_1 
REMARK    2  A    between atoms: N_8  and  N_10 
REMARK    3  A    between atoms: C_12  and  C_11 
ROOT
ATOM      1  N   UNL d   1       1.373   3.178  -0.139  0.00  0.00    -0.297 N 
ATOM      2  HN  UNL d   1       2.236   2.684  -0.364  1.00  0.00     0.186 HD
ATOM      3  C   UNL d   1       1.352   4.453   0.069  0.00  0.00     0.119 C 
ENDROOT
BRANCH   1   4
ATOM      4  N   UNL d   1       0.182   2.529  -0.040  0.00  0.00    -0.131 N 
ATOM      5  H   UNL d   1      -0.668   3.033   0.183  0.00  0.00     0.205 HD
BRANCH   4   6
ATOM      6  C   UNL d   1       0.041   1.198  -0.229  0.00  0.00     0.712 A 
ATOM      7  N   UNL d   1       1.116   0.404  -0.547  0.00  0.00    -0.184 N 
ATOM      8  C   UNL d   1       0.599  -0.793  -0.647  0.00  0.00     0.215 A 
ATOM      9  HN  UNL d   1       2.089   0.683  -0.674  1.00  0.00     0.185 HD
ATOM     10  N   UNL d   1      -0.731  -0.724  -0.399  0.00  0.00    -0.281 N 
ATOM     11  N   UNL d   1      -1.117   0.533  -0.132  0.00  0.00    -0.130 N 
ATOM     12  H   UNL d   1      -1.420  -1.467  -0.393  0.00  0.00     0.188 HD
ATOM     13  HN  UNL d   1      -2.048   0.888   0.087  1.00  0.00     0.205 HD
ENDBRANCH   4   6
ENDBRANCH   1   4
BRANCH   3  14
ATOM     14  C   UNL d   1       2.594   5.247  -0.024  0.00  0.00    -0.019 A 
ATOM     15  C   UNL d   1       3.812   4.618  -0.312  0.00  0.00     0.014 A 
ATOM     16  C   UNL d   1       4.980   5.374  -0.416  0.00  0.00     0.024 A 
ATOM     17  C   UNL d   1       4.926   6.754  -0.232  0.00  0.00     0.034 A 
ATOM     18  C   UNL d   1       3.715   7.384   0.062  0.00  0.00     0.024 A 
ATOM     19 CL   UNL d   1       6.364   7.689  -0.371  0.00  0.00    -0.084 Cl
ATOM     20  C   UNL d   1       2.542   6.630   0.168  0.00  0.00     0.014 A 
ENDBRANCH   3  14
TORSDOF 3
