REMARK  4 active torsions:
REMARK  status: ('A' for Active; 'I' for Inactive)
REMARK    1  A    between atoms: C_10  and  N_8 
REMARK    2  A    between atoms: C_11  and  C_10 
REMARK    3  A    between atoms: C_15  and  C_11 
REMARK    4  A    between atoms: O_21  and  C_11 
ROOT
ATOM      1  C   UNL d   1      -3.023   0.297  -0.119  0.00  0.00     0.148 A 
ATOM      2  N   UNL d   1      -2.275  -0.694   0.319  0.00  0.00    -0.336 N 
ATOM      3  HN  UNL d   1      -2.636  -1.529   0.781  1.00  0.00     0.168 HD
ATOM      4  S   UNL d   1      -2.119   1.620  -0.772  0.00  0.00    -0.052 SA
ATOM      5  N   UNL d   1      -4.377   0.296  -0.039  0.00  0.00    -0.358 N 
ATOM      6  C   UNL d   1      -0.649   0.780  -0.501  0.00  0.00     0.036 A 
ATOM      7  C   UNL d   1      -0.939  -0.455   0.073  0.00  0.00     0.051 A 
ATOM      8  N   UNL d   1      -7.114  -0.655  -0.509  0.00  0.00     0.094 N 
ATOM      9  C   UNL d   1       0.666   1.183  -0.785  0.00  0.00     0.045 A 
ATOM     10  C   UNL d   1      -5.047  -0.512   0.985  0.00  0.00     0.155 C 
ATOM     11  C   UNL d   1      -5.232   1.000  -0.994  0.00  0.00     0.155 C 
ATOM     12  C   UNL d   1       0.123  -1.341   0.352  0.00  0.00     0.032 A 
ATOM     13  C   UNL d   1       1.697   0.287  -0.497  0.00  0.00     0.035 A 
ATOM     14  C   UNL d   1      -6.328   0.055  -1.540  0.00  0.00     0.292 C 
ATOM     15  C   UNL d   1      -6.168  -1.380   0.373  0.00  0.00     0.292 C 
ATOM     16  C   UNL d   1       1.437  -0.963   0.057  0.00  0.00     0.026 A 
ATOM     17 CL   UNL d   1       3.323   0.739  -0.842  0.00  0.00    -0.084 Cl
ENDROOT
BRANCH   8  18
ATOM     18  C   UNL d   1      -7.992   0.240   0.274  0.00  0.00     0.309 C 
BRANCH  18  19
ATOM     19  C   UNL d   1      -9.097   1.008  -0.508  0.00  0.00     0.179 C 
BRANCH  19  20
ATOM     20  C   UNL d   1     -10.103   0.200  -1.308  0.00  0.00    -0.028 A 
ATOM     21  C   UNL d   1     -10.168  -1.200  -1.282  0.00  0.00     0.010 A 
ATOM     22  C   UNL d   1     -11.094  -1.890  -2.068  0.00  0.00     0.001 A 
ATOM     23  C   UNL d   1     -11.982  -1.190  -2.880  0.00  0.00     0.000 A 
ATOM     24  C   UNL d   1     -11.948   0.201  -2.905  0.00  0.00     0.001 A 
ATOM     25  C   UNL d   1     -11.017   0.890  -2.125  0.00  0.00     0.010 A 
ENDBRANCH  19  20
BRANCH  19  26
ATOM     26  O   UNL d   1      -9.808   1.811   0.449  0.00  0.00    -0.389 OA
ATOM     27  H   UNL d   1     -10.635   1.340   0.655  0.00  0.00     0.210 HD
ENDBRANCH  19  26
ENDBRANCH  18  19
ENDBRANCH   8  18
TORSDOF 4
