REMARK  5 active torsions:
REMARK  status: ('A' for Active; 'I' for Inactive)
REMARK    1  A    between atoms: C_8  and  N_1 
REMARK    2  A    between atoms: C_12  and  C_2 
REMARK    3  A    between atoms: S_15  and  C_5 
REMARK    4  A    between atoms: C_9  and  C_10 
REMARK    5  A    between atoms: C_13  and  C_14 
ROOT
ATOM      1  N   UNL d   1      -0.330  -1.274  -0.022  0.00  0.00    -0.275 N 
ATOM      2  C   UNL d   1       0.925  -0.645  -0.008  0.00  0.00     0.139 A 
ATOM      3  N   UNL d   1       0.742   0.665   0.060  0.00  0.00    -0.282 N 
ATOM      4  HN  UNL d   1       1.480   1.363   0.152  1.00  0.00     0.188 HD
ATOM      5  C   UNL d   1      -1.228  -0.216  -0.095  0.00  0.00     0.167 A 
ATOM      6  N   UNL d   1      -0.593   0.928  -0.012  0.00  0.00    -0.278 N 
ATOM      7  HN  UNL d   1      -1.022   1.853  -0.003  1.00  0.00     0.189 HD
ENDROOT
BRANCH   1   8
ATOM      8  C   UNL d   1      -0.593  -2.680   0.040  0.00  0.00     0.044 A 
ATOM      9  C   UNL d   1       0.225  -3.513   0.826  0.00  0.00     0.046 A 
ATOM     10  C   UNL d   1       0.068  -4.910   0.804  0.00  0.00     0.050 A 
ATOM     11  C   UNL d   1      -0.967  -5.463   0.039  0.00  0.00     0.016 A 
ATOM     12  C   UNL d   1      -1.809  -4.642  -0.709  0.00  0.00     0.003 A 
ATOM     13  C   UNL d   1      -1.615  -3.258  -0.721  0.00  0.00     0.030 A 
BRANCH  10  14
ATOM     14  C   UNL d   1       1.011  -5.814   1.561  0.00  0.00     0.417 C 
ATOM     15  F   UNL d   1       2.019  -5.150   2.190  0.00  0.00    -0.166 F 
ATOM     16  F   UNL d   1       0.378  -6.538   2.525  0.00  0.00    -0.166 F 
ATOM     17  F   UNL d   1       1.618  -6.723   0.747  0.00  0.00    -0.166 F 
ENDBRANCH  10  14
ENDBRANCH   1   8
BRANCH   2  18
ATOM     18  C   UNL d   1       2.256  -1.263  -0.102  0.00  0.00     0.010 A 
ATOM     19  C   UNL d   1       2.523  -2.374  -0.910  0.00  0.00     0.016 A 
ATOM     20  C   UNL d   1       3.786  -2.979  -0.906  0.00  0.00     0.009 A 
ATOM     21  C   UNL d   1       4.849  -2.464  -0.144  0.00  0.00    -0.051 A 
ATOM     22  C   UNL d   1       4.591  -1.303   0.603  0.00  0.00     0.009 A 
ATOM     23  C   UNL d   1       3.318  -0.716   0.624  0.00  0.00     0.016 A 
BRANCH  21  24
ATOM     24  C   UNL d   1       6.219  -3.165  -0.145  0.00  0.00    -0.024 C 
ATOM     25  C   UNL d   1       7.292  -2.430   0.688  0.00  0.00     0.019 C 
ATOM     26  C   UNL d   1       6.072  -4.585   0.446  0.00  0.00     0.019 C 
ATOM     27  C   UNL d   1       6.760  -3.275  -1.588  0.00  0.00     0.019 C 
ENDBRANCH  21  24
ENDBRANCH   2  18
BRANCH   5  28
ATOM     28  S   UNL d   1      -2.963  -0.347  -0.113  0.00  0.00    -0.096 SA
ATOM     29  C   UNL d   1      -3.452   1.390  -0.231  0.00  0.00     0.099 C 
ENDBRANCH   5  28
TORSDOF 5
