REMARK  5 active torsions:
REMARK  status: ('A' for Active; 'I' for Inactive)
REMARK    1  A    between atoms: C_10  and  C_1 
REMARK    2  A    between atoms: C_15  and  C_7 
REMARK    3  A    between atoms: C_8  and  C_13 
REMARK    4  A    between atoms: C_9  and  C_12 
REMARK    5  A    between atoms: C_14  and  C_10 
ROOT
ATOM      1  C   UNL d   1      -4.490   2.941  -1.678  0.00  0.00     0.086 A 
ATOM      2  O   UNL d   1      -4.294   1.808  -0.949  0.00  0.00    -0.310 OA
ATOM      3  C   UNL d   1      -3.073   1.268  -1.283  0.00  0.00     0.077 A 
ATOM      4  C   UNL d   1      -3.397   3.157  -2.488  0.00  0.00     0.041 A 
ATOM      5  C   UNL d   1      -2.489   2.104  -2.223  0.00  0.00     0.040 A 
ENDROOT
BRANCH   1   6
ATOM      6  C   UNL d   1      -5.711   3.687  -1.394  0.00  0.00    -0.001 A 
ATOM      7  C   UNL d   1      -5.739   5.072  -1.605  0.00  0.00     0.030 A 
ATOM      8  C   UNL d   1      -6.859   5.845  -1.256  0.00  0.00     0.049 A 
ATOM      9  C   UNL d   1      -7.980   5.205  -0.710  0.00  0.00     0.032 A 
ATOM     10  C   UNL d   1      -7.982   3.818  -0.491  0.00  0.00     0.049 A 
ATOM     11  C   UNL d   1      -6.846   3.068  -0.850  0.00  0.00     0.030 A 
BRANCH   8  12
ATOM     12  C   UNL d   1      -6.806   7.344  -1.422  0.00  0.00     0.417 C 
ATOM     13  F   UNL d   1      -7.932   7.979  -0.995  0.00  0.00    -0.166 F 
ATOM     14  F   UNL d   1      -5.777   7.899  -0.724  0.00  0.00    -0.166 F 
ATOM     15  F   UNL d   1      -6.627   7.721  -2.717  0.00  0.00    -0.166 F 
ENDBRANCH   8  12
BRANCH  10  16
ATOM     16  C   UNL d   1      -9.162   3.142   0.169  0.00  0.00     0.417 C 
ATOM     17  F   UNL d   1     -10.130   4.018   0.564  0.00  0.00    -0.166 F 
ATOM     18  F   UNL d   1      -9.782   2.242  -0.641  0.00  0.00    -0.166 F 
ATOM     19  F   UNL d   1      -8.806   2.459   1.293  0.00  0.00    -0.166 F 
ENDBRANCH  10  16
ENDBRANCH   1   6
BRANCH   3  20
ATOM     20  C   UNL d   1      -2.534   0.104  -0.673  0.00  0.00     0.061 C 
BRANCH  20  21
ATOM     21  C   UNL d   1      -3.279  -0.946  -0.278  0.00  0.00     0.117 C 
ATOM     22  C   UNL d   1      -2.594  -1.982   0.501  0.00  0.00     0.302 C 
ATOM     23  O   UNL d   1      -3.399  -2.712   1.301  0.00  0.00    -0.280 OA
ATOM     24  O   UNL d   1      -1.385  -2.173   0.454  0.00  0.00    -0.259 OA
ATOM     25  C   UNL d   1      -4.721  -2.230   1.556  0.00  0.00     0.175 C 
ATOM     26  O   UNL d   1      -5.398  -1.784   0.381  0.00  0.00    -0.280 OA
ATOM     27  C   UNL d   1      -4.700  -1.126   2.616  0.00  0.00     0.080 C 
ATOM     28  C   UNL d   1      -5.527  -3.420   2.076  0.00  0.00     0.080 C 
ATOM     29  C   UNL d   1      -4.708  -1.113  -0.562  0.00  0.00     0.302 C 
ATOM     30  O   UNL d   1      -5.248  -0.743  -1.597  0.00  0.00    -0.259 OA
ENDBRANCH  20  21
ENDBRANCH   3  20
TORSDOF 5
