REMARK  7 active torsions:
REMARK  status: ('A' for Active; 'I' for Inactive)
REMARK    1  A    between atoms: N_2  and  C_1 
REMARK    2  A    between atoms: C_3  and  C_6 
REMARK    3  A    between atoms: O_9  and  C_5 
REMARK    4  A    between atoms: N_7  and  O_9 
REMARK    5  A    between atoms: C_11  and  C_14 
REMARK    6  A    between atoms: C_15  and  C_12 
REMARK    7  A    between atoms: C_28  and  C_12 
ROOT
ATOM      1  N   UNL d   1       3.091   2.010  -0.370  0.00  0.00    -0.264 N 
ATOM      2  HN  UNL d   1       2.121   2.216  -0.134  1.00  0.00     0.194 HD
ATOM      3  C   UNL d   1       3.969   2.934  -0.624  0.00  0.00     0.042 C 
ENDROOT
BRANCH   1   4
ATOM      4  O   UNL d   1       3.592   0.710  -0.450  0.00  0.00    -0.235 OA
BRANCH   4   5
ATOM      5  C   UNL d   1       2.639  -0.183  -0.015  0.00  0.00     0.131 A 
ATOM      6  C   UNL d   1       2.586  -1.487  -0.523  0.00  0.00     0.139 A 
ATOM      7  C   UNL d   1       1.563  -2.366  -0.101  0.00  0.00     0.055 A 
ATOM      8  C   UNL d   1       0.609  -1.958   0.846  0.00  0.00     0.050 A 
ATOM      9  C   UNL d   1       0.715  -0.678   1.399  0.00  0.00     0.019 A 
ATOM     10  C   UNL d   1       1.719   0.193   0.977  0.00  0.00     0.043 A 
BRANCH   6  11
ATOM     11  N   UNL d   1       3.575  -1.992  -1.487  0.00  0.00    -0.113 N 
ATOM     12  O   UNL d   1       3.488  -3.183  -1.819  0.00  0.00    -0.532 OA
ATOM     13  O   UNL d   1       4.452  -1.223  -1.913  0.00  0.00    -0.532 OA
ENDBRANCH   6  11
BRANCH   8  14
ATOM     14  C   UNL d   1      -0.525  -2.859   1.272  0.00  0.00     0.417 C 
ATOM     15  F   UNL d   1      -0.528  -4.065   0.643  0.00  0.00    -0.166 F 
ATOM     16  F   UNL d   1      -0.500  -3.128   2.606  0.00  0.00    -0.166 F 
ATOM     17  F   UNL d   1      -1.743  -2.303   1.024  0.00  0.00    -0.166 F 
ENDBRANCH   8  14
ENDBRANCH   4   5
ENDBRANCH   1   4
BRANCH   3  18
ATOM     18  C   UNL d   1       3.437   4.340  -0.691  0.00  0.00    -0.012 A 
ATOM     19  C   UNL d   1       2.319   4.687   0.075  0.00  0.00     0.014 A 
ATOM     20  C   UNL d   1       1.726   5.951  -0.058  0.00  0.00     0.013 A 
ATOM     21  C   UNL d   1       2.210   6.902  -0.973  0.00  0.00    -0.023 A 
ATOM     22  C   UNL d   1       3.344   6.535  -1.724  0.00  0.00     0.013 A 
ATOM     23  C   UNL d   1       3.952   5.276  -1.588  0.00  0.00     0.014 A 
BRANCH  21  24
ATOM     24  C   UNL d   1       1.553   8.225  -1.147  0.00  0.00     0.013 A 
ATOM     25  C   UNL d   1       0.159   8.397  -1.032  0.00  0.00     0.127 A 
ATOM     26  F   UNL d   1      -0.643   7.349  -0.792  0.00  0.00    -0.205 F 
ATOM     27  C   UNL d   1      -0.451   9.646  -1.174  0.00  0.00     0.043 A 
ATOM     28  C   UNL d   1       0.320  10.768  -1.455  0.00  0.00     0.003 A 
ATOM     29  C   UNL d   1       1.697  10.635  -1.593  0.00  0.00     0.001 A 
ATOM     30  C   UNL d   1       2.303   9.382  -1.436  0.00  0.00     0.015 A 
ENDBRANCH  21  24
ENDBRANCH   3  18
BRANCH   3  31
ATOM     31  C   UNL d   1       5.447   2.707  -0.954  0.00  0.00     0.055 C 
ATOM     32  C   UNL d   1       6.219   1.730  -0.079  0.00  0.00     0.011 C 
ENDBRANCH   3  31
TORSDOF 7
