REMARK  8 active torsions:
REMARK  status: ('A' for Active; 'I' for Inactive)
REMARK    1  A    between atoms: N_2  and  C_1 
REMARK    2  A    between atoms: C_3  and  C_1 
REMARK    3  A    between atoms: C_4  and  C_1 
REMARK    4  A    between atoms: N_7  and  C_1 
REMARK       I    between atoms: C_5  and  N_2 
REMARK    5  A    between atoms: C_6  and  C_5 
REMARK    6  A    between atoms: C_16  and  N_7 
REMARK    7  A    between atoms: O_22  and  C_9 
REMARK    8  A    between atoms: C_26  and  O_22 
ROOT
ATOM      1  C   UNL d   1       1.397   0.064  -0.643  0.00  0.00     0.306 C 
ENDROOT
BRANCH   1   2
ATOM      2  N   UNL d   1       0.241  -0.749  -0.222  0.00  0.00    -0.315 N 
ATOM      3  C   UNL d   1       0.229  -1.451   0.956  0.00  0.00     0.256 C 
ATOM      4  O   UNL d   1       1.269  -1.778   1.512  0.00  0.00    -0.267 OA
ATOM      5  H   UNL d   1      -0.653  -0.428  -0.571  0.00  0.00     0.165 HD
BRANCH   3   6
ATOM      6  C   UNL d   1      -1.088  -1.798   1.574  0.00  0.00     0.065 A 
ATOM      7  C   UNL d   1      -2.331  -1.312   1.131  0.00  0.00     0.084 A 
ATOM      8  C   UNL d   1      -3.483  -1.596   1.878  0.00  0.00     0.038 A 
ATOM      9  C   UNL d   1      -3.416  -2.403   3.017  0.00  0.00     0.003 A 
ATOM     10  C   UNL d   1      -2.196  -2.927   3.429  0.00  0.00     0.001 A 
ATOM     11  C   UNL d   1      -1.038  -2.621   2.715  0.00  0.00     0.020 A 
BRANCH   7  12
ATOM     12  O   UNL d   1      -2.363  -0.488   0.036  0.00  0.00    -0.350 OA
BRANCH  12  13
ATOM     13  C   UNL d   1      -3.479  -0.633  -0.851  0.00  0.00     0.171 C 
ATOM     14  C   UNL d   1      -4.245   0.675  -0.893  0.00  0.00     0.034 C 
ENDBRANCH  12  13
ENDBRANCH   7  12
ENDBRANCH   3   6
ENDBRANCH   1   2
BRANCH   1  15
ATOM     15  C   UNL d   1       2.839  -0.537  -0.407  0.00  0.00     0.441 C 
ATOM     16  F   UNL d   1       3.291  -0.539   0.859  0.00  0.00    -0.166 F 
ATOM     17  F   UNL d   1       2.906  -1.811  -0.885  0.00  0.00    -0.166 F 
ATOM     18  F   UNL d   1       3.762   0.160  -1.131  0.00  0.00    -0.166 F 
ENDBRANCH   1  15
BRANCH   1  19
ATOM     19  C   UNL d   1       1.514   1.416   0.116  0.00  0.00     0.441 C 
ATOM     20  F   UNL d   1       1.815   1.254   1.427  0.00  0.00    -0.166 F 
ATOM     21  F   UNL d   1       2.447   2.240  -0.410  0.00  0.00    -0.166 F 
ATOM     22  F   UNL d   1       0.343   2.104   0.115  0.00  0.00    -0.166 F 
ENDBRANCH   1  19
BRANCH   1  23
ATOM     23  N   UNL d   1       1.186   0.119  -2.137  0.00  0.00    -0.349 N 
ATOM     24  H   UNL d   1       1.597  -0.718  -2.555  0.00  0.00     0.162 HD
BRANCH  23  25
ATOM     25  C   UNL d   1       0.257   0.701  -2.965  0.00  0.00     0.030 A 
ATOM     26  C   UNL d   1      -0.694   1.650  -2.595  0.00  0.00     0.031 A 
ATOM     27  C   UNL d   1      -1.541   2.249  -3.542  0.00  0.00     0.026 A 
ATOM     28  C   UNL d   1      -1.448   1.903  -4.881  0.00  0.00     0.034 A 
ATOM     29  C   UNL d   1      -0.509   0.969  -5.289  0.00  0.00     0.026 A 
ATOM     30 CL   UNL d   1      -2.490   2.634  -6.040  0.00  0.00    -0.084 Cl
ATOM     31  C   UNL d   1       0.338   0.391  -4.338  0.00  0.00     0.031 A 
ENDBRANCH  23  25
ENDBRANCH   1  23
TORSDOF 8
