REMARK  3 active torsions:
REMARK  status: ('A' for Active; 'I' for Inactive)
REMARK    1  A    between atoms: N_4  and  C_1 
REMARK       I    between atoms: C_6  and  N_4 
REMARK    2  A    between atoms: C_7  and  C_5 
REMARK    3  A    between atoms: C_15  and  C_6 
ROOT
ATOM      1  C   UNL d   1       1.065  -3.214  -0.038  0.00  0.00     0.153 C 
ATOM      2  N   UNL d   1       2.203  -2.933  -0.643  0.00  0.00    -0.335 N 
ATOM      3  HN  UNL d   1       2.339  -2.167  -1.302  1.00  0.00     0.168 HD
ATOM      4  C   UNL d   1       3.188  -3.833  -0.253  0.00  0.00     0.058 C 
ATOM      5  S   UNL d   1       1.185  -4.425   1.177  0.00  0.00    -0.063 SA
ATOM      6  C   UNL d   1       2.812  -4.705   0.746  0.00  0.00     0.084 C 
ENDROOT
BRANCH   1   7
ATOM      7  N   UNL d   1      -0.129  -2.498  -0.226  0.00  0.00    -0.302 N 
ATOM      8  C   UNL d   1      -1.361  -3.131   0.014  0.00  0.00     0.229 C 
ATOM      9  O   UNL d   1      -1.482  -4.341   0.222  0.00  0.00    -0.273 OA
ATOM     10  C   UNL d   1      -0.042  -1.168  -0.826  0.00  0.00     0.161 C 
BRANCH   8  11
ATOM     11  C   UNL d   1      -2.641  -2.271  -0.050  0.00  0.00     0.078 C 
ATOM     12  C   UNL d   1      -3.694  -2.751   0.971  0.00  0.00     0.014 C 
ATOM     13  C   UNL d   1      -4.479  -3.993   0.547  0.00  0.00     0.001 C 
ATOM     14  C   UNL d   1      -5.057  -3.852  -0.854  0.00  0.00     0.000 C 
ATOM     15  C   UNL d   1      -3.979  -3.489  -1.866  0.00  0.00     0.001 C 
ATOM     16  C   UNL d   1      -3.227  -2.220  -1.468  0.00  0.00     0.014 C 
ENDBRANCH   8  11
ENDBRANCH   1   7
BRANCH   4  17
ATOM     17  C   UNL d   1       4.542  -3.854  -0.902  0.00  0.00     0.033 A 
ATOM     18  S   UNL d   1       5.777  -4.988  -0.542  0.00  0.00    -0.076 SA
ATOM     19  C   UNL d   1       6.789  -4.343  -1.730  0.00  0.00     0.075 A 
ATOM     20 CL   UNL d   1       8.324  -5.056  -2.019  0.00  0.00    -0.076 Cl
ATOM     21  C   UNL d   1       6.250  -3.263  -2.379  0.00  0.00     0.033 A 
ATOM     22  C   UNL d   1       4.937  -2.973  -1.891  0.00  0.00     0.023 A 
ENDBRANCH   4  17
TORSDOF 3
