REMARK  4 active torsions:
REMARK  status: ('A' for Active; 'I' for Inactive)
REMARK    1  A    between atoms: C_8  and  C_3 
REMARK    2  A    between atoms: C_7  and  C_4 
REMARK       I    between atoms: N_12  and  C_7 
REMARK    3  A    between atoms: N_10  and  N_12 
REMARK    4  A    between atoms: C_17  and  C_16 
ROOT
ATOM      1  N   UNL d   1      -0.726  -0.710  -0.108  0.00  0.00    -0.314 N 
ATOM      2  HN  UNL d   1      -1.546  -1.313  -0.169  1.00  0.00     0.169 HD
ATOM      3  C   UNL d   1      -0.668   0.674  -0.078  0.00  0.00     0.143 A 
ATOM      4  C   UNL d   1       0.546  -1.050  -0.037  0.00  0.00     0.241 A 
ATOM      5  N   UNL d   1       0.584   1.157  -0.008  0.00  0.00    -0.242 N 
ATOM      6  HN  UNL d   1       0.878   2.133   0.024  1.00  0.00     0.196 HD
ATOM      7  O   UNL d   1       1.385   0.022   0.011  0.00  0.00    -0.212 OA
ENDROOT
BRANCH   4   8
ATOM      8  C   UNL d   1       1.117  -2.380  -0.003  0.00  0.00     0.313 C 
ATOM      9  N   UNL d   1       0.170  -3.409   0.007  0.00  0.00    -0.263 N 
ATOM     10  H   UNL d   1      -0.822  -3.184  -0.005  0.00  0.00     0.190 HD
ATOM     11  O   UNL d   1       2.330  -2.586   0.023  0.00  0.00    -0.262 OA
BRANCH   9  12
ATOM     12  N   UNL d   1       0.602  -4.705   0.012  0.00  0.00    -0.312 N 
ATOM     13  C   UNL d   1      -0.295  -5.637   0.029  0.00  0.00     0.088 C 
ATOM     14  HN  UNL d   1       1.596  -4.929   0.003  1.00  0.00     0.185 HD
BRANCH  13  15
ATOM     15  C   UNL d   1       0.117  -7.111   0.053  0.00  0.00    -0.018 C 
ATOM     16  C   UNL d   1       0.224  -7.561   1.515  0.00  0.00     0.020 C 
ATOM     17  C   UNL d   1      -0.958  -7.938  -0.663  0.00  0.00     0.020 C 
ATOM     18  C   UNL d   1       1.465  -7.316  -0.652  0.00  0.00     0.020 C 
ENDBRANCH  13  15
ENDBRANCH   9  12
ENDBRANCH   4   8
BRANCH   3  19
ATOM     19  C   UNL d   1      -1.850   1.529  -0.119  0.00  0.00     0.070 A 
ATOM     20  C   UNL d   1      -3.074   1.172   0.469  0.00  0.00     0.051 A 
ATOM     21 CL   UNL d   1      -3.318  -0.299   1.352  0.00  0.00    -0.083 Cl
ATOM     22  C   UNL d   1      -4.181   2.035   0.398  0.00  0.00     0.025 A 
ATOM     23  C   UNL d   1      -4.086   3.265  -0.250  0.00  0.00     0.005 A 
ATOM     24  C   UNL d   1      -2.879   3.636  -0.829  0.00  0.00     0.043 A 
ATOM     25  C   UNL d   1      -1.782   2.776  -0.762  0.00  0.00     0.132 A 
ATOM     26  F   UNL d   1      -0.652   3.183  -1.362  0.00  0.00    -0.205 F 
ENDBRANCH   3  19
TORSDOF 4
