REMARK  6 active torsions:
REMARK  status: ('A' for Active; 'I' for Inactive)
REMARK    1  A    between atoms: C_5  and  C_1 
REMARK    2  A    between atoms: C_8  and  C_2 
REMARK    3  A    between atoms: C_12  and  C_7 
REMARK    4  A    between atoms: O_21  and  C_7 
REMARK    5  A    between atoms: O_13  and  C_8 
REMARK    6  A    between atoms: N_10  and  O_13 
ROOT
ATOM      1  C   UNL d   1       0.694  -2.499  -0.385  0.00  0.00     0.087 A 
ATOM      2  C   UNL d   1       0.045  -1.317   0.091  0.00  0.00     0.102 A 
ATOM      3  N   UNL d   1       1.915  -2.200  -0.858  0.00  0.00    -0.259 N 
ATOM      4  HN  UNL d   1       2.580  -2.849  -1.278  1.00  0.00     0.195 HD
ATOM      5  O   UNL d   1       2.092  -0.853  -0.667  0.00  0.00    -0.241 OA
ATOM      6  C   UNL d   1       0.976  -0.316  -0.113  0.00  0.00     0.091 A 
ATOM      7  C   UNL d   1       1.053   1.133   0.165  0.00  0.00     0.080 C 
ENDROOT
BRANCH   2   8
ATOM      8  C   UNL d   1      -1.266  -1.177   0.683  0.00  0.00     0.320 C 
ATOM      9  O   UNL d   1      -1.792  -2.059   1.351  0.00  0.00    -0.257 OA
BRANCH   8  10
ATOM     10  O   UNL d   1      -1.843   0.035   0.365  0.00  0.00    -0.193 OA
BRANCH  10  11
ATOM     11  N   UNL d   1      -2.828   0.380   1.311  0.00  0.00    -0.233 N 
ATOM     12  C   UNL d   1      -3.619   1.296   0.864  0.00  0.00     0.195 C 
ATOM     13  HN  UNL d   1      -2.906  -0.042   2.236  1.00  0.00     0.197 HD
BRANCH  12  14
ATOM     14  C   UNL d   1      -4.631   1.927   1.662  0.00  0.00     0.127 A 
ATOM     15  O   UNL d   1      -5.534   2.780   1.083  0.00  0.00    -0.318 OA
ATOM     16  C   UNL d   1      -6.354   3.231   2.069  0.00  0.00     0.142 A 
ATOM     17  C   UNL d   1      -5.991   2.695   3.281  0.00  0.00     0.027 A 
ATOM     18  C   UNL d   1      -4.887   1.850   3.020  0.00  0.00     0.043 A 
ENDBRANCH  12  14
BRANCH  12  19
ATOM     19  O   UNL d   1      -3.553   1.765  -0.402  0.00  0.00    -0.343 OA
ATOM     20  H   UNL d   1      -2.885   1.258  -0.885  0.00  0.00     0.219 HD
ENDBRANCH  12  19
ENDBRANCH  10  11
ENDBRANCH   8  10
ENDBRANCH   2   8
BRANCH   1  21
ATOM     21  C   UNL d   1       0.197  -3.872  -0.486  0.00  0.00     0.037 A 
ATOM     22  C   UNL d   1      -0.926  -4.179  -1.279  0.00  0.00     0.048 A 
ATOM     23 CL   UNL d   1      -1.819  -2.973  -2.150  0.00  0.00    -0.083 Cl
ATOM     24  C   UNL d   1      -1.351  -5.505  -1.442  0.00  0.00     0.025 A 
ATOM     25  C   UNL d   1      -0.655  -6.547  -0.837  0.00  0.00     0.003 A 
ATOM     26  C   UNL d   1       0.457  -6.264  -0.050  0.00  0.00     0.025 A 
ATOM     27  C   UNL d   1       0.876  -4.939   0.135  0.00  0.00     0.048 A 
ATOM     28 CL   UNL d   1       2.245  -4.703   1.172  0.00  0.00    -0.083 Cl
ENDBRANCH   1  21
TORSDOF 6
