REMARK  3 active torsions:
REMARK  status: ('A' for Active; 'I' for Inactive)
REMARK    1  A    between atoms: C_15  and  N_9 
REMARK    2  A    between atoms: C_16  and  C_15 
REMARK    3  A    between atoms: C_17  and  C_16 
ROOT
ATOM      1  C   UNL d   1       0.064  -0.741   0.086  0.00  0.00     0.101 A 
ATOM      2  C   UNL d   1       0.056   0.602   0.109  0.00  0.00     0.077 A 
ATOM      3  N   UNL d   1       1.269  -1.409  -0.029  0.00  0.00    -0.293 N 
ATOM      4  N   UNL d   1       2.474   0.624   0.011  0.00  0.00    -0.270 N 
ATOM      5  C   UNL d   1       2.505  -0.757  -0.072  0.00  0.00     0.332 A 
ATOM      6  C   UNL d   1       1.315   1.363   0.094  0.00  0.00     0.262 A 
ATOM      7  N   UNL d   1      -1.158  -1.406   0.173  0.00  0.00    -0.252 NA
ATOM      8  C   UNL d   1      -1.211   1.413   0.109  0.00  0.00     0.321 C 
ATOM      9  N   UNL d   1      -2.401   0.661  -0.337  0.00  0.00     0.106 N 
ATOM     10  C   UNL d   1      -2.384  -0.635   0.329  0.00  0.00     0.368 C 
ATOM     11  O   UNL d   1       3.563  -1.384  -0.171  0.00  0.00    -0.246 OA
ATOM     12  O   UNL d   1       1.294   2.591   0.165  0.00  0.00    -0.267 OA
ATOM     13  C   UNL d   1       1.331  -2.862  -0.070  0.00  0.00     0.162 C 
ATOM     14  C   UNL d   1       3.721   1.365   0.016  0.00  0.00     0.164 C 
ATOM     15  H   UNL d   1      -1.243  -2.102  -0.561  0.00  0.00     0.130 HD
ENDROOT
BRANCH   9  16
ATOM     16  C   UNL d   1      -3.651   1.395  -0.081  0.00  0.00     0.279 C 
BRANCH  16  17
ATOM     17  C   UNL d   1      -3.743   2.696  -0.898  0.00  0.00     0.068 C 
BRANCH  17  18
ATOM     18  C   UNL d   1      -5.039   3.432  -0.671  0.00  0.00    -0.057 A 
ATOM     19  C   UNL d   1      -5.156   4.346   0.385  0.00  0.00     0.007 A 
ATOM     20  C   UNL d   1      -6.347   5.045   0.584  0.00  0.00     0.001 A 
ATOM     21  C   UNL d   1      -7.430   4.832  -0.267  0.00  0.00     0.000 A 
ATOM     22  C   UNL d   1      -7.325   3.918  -1.314  0.00  0.00     0.001 A 
ATOM     23  C   UNL d   1      -6.136   3.217  -1.515  0.00  0.00     0.007 A 
ENDBRANCH  17  18
ENDBRANCH  16  17
ENDBRANCH   9  16
TORSDOF 3
