REMARK  5 active torsions:
REMARK  status: ('A' for Active; 'I' for Inactive)
REMARK    1  A    between atoms: C_7  and  N_1 
REMARK    2  A    between atoms: S_8  and  C_2 
REMARK    3  A    between atoms: C_12  and  S_8 
REMARK    4  A    between atoms: C_10  and  C_12 
REMARK    5  A    between atoms: C_11  and  C_10 
ROOT
ATOM      1  N   UNL d   1       0.577   0.463  -0.154  0.00  0.00    -0.219 N 
ATOM      2  C   UNL d   1       0.977  -0.859  -0.020  0.00  0.00     0.177 A 
ATOM      3  N   UNL d   1       0.204  -1.459   0.859  0.00  0.00    -0.264 N 
ATOM      4  HN  UNL d   1       0.234  -2.440   1.137  1.00  0.00     0.186 HD
ATOM      5  N   UNL d   1      -0.650  -0.495   1.324  0.00  0.00    -0.006 NA
ATOM      6  N   UNL d   1      -0.399   0.680   0.767  0.00  0.00     0.001 NA
ENDROOT
BRANCH   2   7
ATOM      7  S   UNL d   1       2.413  -1.528  -0.711  0.00  0.00    -0.084 SA
BRANCH   7   8
ATOM      8  C   UNL d   1       2.461  -3.192   0.010  0.00  0.00     0.166 C 
BRANCH   8   9
ATOM      9  C   UNL d   1       3.737  -3.910  -0.405  0.00  0.00     0.169 C 
ATOM     10  O   UNL d   1       4.628  -3.400  -1.082  0.00  0.00    -0.291 OA
BRANCH   9  11
ATOM     11  C   UNL d   1       3.917  -5.329   0.011  0.00  0.00     0.011 A 
ATOM     12  C   UNL d   1       4.790  -6.128  -0.744  0.00  0.00     0.017 A 
ATOM     13  C   UNL d   1       5.019  -7.459  -0.389  0.00  0.00     0.025 A 
ATOM     14  C   UNL d   1       4.384  -7.990   0.731  0.00  0.00     0.034 A 
ATOM     15  C   UNL d   1       3.518  -7.205   1.490  0.00  0.00     0.025 A 
ATOM     16 CL   UNL d   1       4.677  -9.624   1.182  0.00  0.00    -0.084 Cl
ATOM     17  C   UNL d   1       3.278  -5.874   1.131  0.00  0.00     0.017 A 
ENDBRANCH   9  11
ENDBRANCH   8   9
ENDBRANCH   7   8
ENDBRANCH   2   7
BRANCH   1  18
ATOM     18  C   UNL d   1       1.014   1.502  -1.016  0.00  0.00     0.058 A 
ATOM     19  C   UNL d   1       1.587   1.225  -2.265  0.00  0.00     0.055 A 
ATOM     20  C   UNL d   1       2.049   2.267  -3.067  0.00  0.00     0.036 A 
ATOM     21 CL   UNL d   1       2.745   1.915  -4.601  0.00  0.00    -0.084 Cl
ATOM     22  C   UNL d   1       1.947   3.589  -2.642  0.00  0.00     0.024 A 
ATOM     23  C   UNL d   1       1.346   3.873  -1.416  0.00  0.00     0.004 A 
ATOM     24  C   UNL d   1       0.863   2.838  -0.612  0.00  0.00     0.031 A 
ENDBRANCH   1  18
TORSDOF 5
