REMARK  4 active torsions:
REMARK  status: ('A' for Active; 'I' for Inactive)
REMARK    1  A    between atoms: C_4  and  S_1 
REMARK    2  A    between atoms: N_15  and  S_1 
REMARK    3  A    between atoms: C_26  and  C_6 
REMARK    4  A    between atoms: C_7  and  C_13 
ROOT
ATOM      1  N   UNL d   1      -3.838  -1.117   3.607  0.00  0.00    -0.321 N 
ATOM      2  HN  UNL d   1      -3.764  -0.135   3.341  1.00  0.00     0.169 HD
ATOM      3  C   UNL d   1      -2.813  -1.909   3.852  0.00  0.00     0.164 A 
ATOM      4  C   UNL d   1      -5.044  -1.814   3.763  0.00  0.00     0.123 A 
ATOM      5  N   UNL d   1      -4.981  -3.108   4.097  0.00  0.00    -0.309 N 
ATOM      6  HN  UNL d   1      -5.773  -3.734   4.242  1.00  0.00     0.176 HD
ATOM      7  S   UNL d   1      -3.378  -3.505   4.230  0.00  0.00     0.024 SA
ATOM      8  N   UNL d   1       0.243  -0.682   1.524  0.00  0.00    -0.204 NA
ATOM      9  N   UNL d   1      -1.506  -1.517   3.814  0.00  0.00    -0.359 N 
ATOM     10  C   UNL d   1      -0.921   0.120   2.028  0.00  0.00     0.127 C 
ATOM     11  C   UNL d   1      -1.179  -0.117   3.522  0.00  0.00     0.140 C 
ATOM     12  C   UNL d   1       0.313  -2.862   2.756  0.00  0.00     0.035 C 
ATOM     13  C   UNL d   1      -0.043  -2.143   1.460  0.00  0.00     0.109 C 
ATOM     14  C   UNL d   1      -0.378  -2.406   4.040  0.00  0.00     0.126 C 
ENDROOT
BRANCH   8  15
ATOM     15  S   UNL d   1       0.999  -0.032   0.127  0.00  0.00     0.250 S 
ATOM     16  O   UNL d   1       1.131   1.401   0.293  0.00  0.00    -0.205 OA
ATOM     17  O   UNL d   1       2.151  -0.856  -0.167  0.00  0.00    -0.205 OA
BRANCH  15  18
ATOM     18  C   UNL d   1      -0.088  -0.299  -1.268  0.00  0.00     0.116 A 
ATOM     19  S   UNL d   1      -1.238   0.914  -1.637  0.00  0.00    -0.075 SA
ATOM     20  C   UNL d   1      -1.853   0.033  -2.966  0.00  0.00     0.033 A 
ATOM     21  C   UNL d   1      -1.208  -1.177  -3.116  0.00  0.00     0.023 A 
ATOM     22  C   UNL d   1      -0.174  -1.357  -2.155  0.00  0.00     0.034 A 
BRANCH  20  23
ATOM     23  C   UNL d   1      -2.952   0.474  -3.889  0.00  0.00     0.056 A 
ATOM     24  N   UNL d   1      -3.450  -0.397  -4.849  0.00  0.00    -0.353 N 
ATOM     25  C   UNL d   1      -4.406   0.186  -5.539  0.00  0.00     0.047 A 
ATOM     26  HN  UNL d   1      -3.121  -1.351  -4.998  1.00  0.00     0.166 HD
ATOM     27  C   UNL d   1      -5.175  -0.473  -6.630  0.00  0.00     0.076 C 
ATOM     28  S   UNL d   1      -4.734   1.817  -5.109  0.00  0.00    -0.087 SA
ATOM     29  C   UNL d   1      -3.535   1.724  -3.884  0.00  0.00     0.082 A 
ENDBRANCH  20  23
ENDBRANCH  15  18
ENDBRANCH   8  15
BRANCH   4  30
ATOM     30  C   UNL d   1      -6.332  -1.143   3.534  0.00  0.00     0.009 A 
ATOM     31  C   UNL d   1      -6.383   0.218   3.198  0.00  0.00     0.015 A 
ATOM     32  C   UNL d   1      -7.606   0.845   2.939  0.00  0.00     0.001 A 
ATOM     33  C   UNL d   1      -8.794   0.120   3.015  0.00  0.00     0.000 A 
ATOM     34  C   UNL d   1      -8.764  -1.227   3.365  0.00  0.00     0.001 A 
ATOM     35  C   UNL d   1      -7.542  -1.854   3.625  0.00  0.00     0.015 A 
ENDBRANCH   4  30
TORSDOF 4
