REMARK  3 active torsions:
REMARK  status: ('A' for Active; 'I' for Inactive)
REMARK    1  A    between atoms: N_4  and  N_1 
REMARK       I    between atoms: C_3  and  N_4 
REMARK       I    between atoms: N_10  and  C_3 
REMARK    2  A    between atoms: C_6  and  C_5 
REMARK    3  A    between atoms: O_14  and  C_11 
ROOT
ATOM      1  N   UNL d   1       1.335   0.730  -0.130  0.00  0.00    -0.300 N 
ATOM      2  HN  UNL d   1       1.072   0.984  -1.082  1.00  0.00     0.186 HD
ATOM      3  C   UNL d   1       2.369  -0.038   0.075  0.00  0.00     0.032 C 
ATOM      4  C   UNL d   1       2.877  -0.485   1.433  0.00  0.00     0.070 C 
ENDROOT
BRANCH   3   5
ATOM      5  C   UNL d   1       3.134  -0.518  -1.134  0.00  0.00    -0.012 A 
ATOM      6  C   UNL d   1       2.726  -0.113  -2.414  0.00  0.00     0.016 A 
ATOM      7  C   UNL d   1       3.425  -0.527  -3.557  0.00  0.00     0.037 A 
ATOM      8  C   UNL d   1       4.540  -1.353  -3.430  0.00  0.00     0.068 A 
ATOM      9  C   UNL d   1       4.957  -1.749  -2.160  0.00  0.00     0.037 A 
ATOM     10  C   UNL d   1       4.255  -1.347  -1.018  0.00  0.00     0.016 A 
BRANCH   8  11
ATOM     11  O   UNL d   1       5.319  -1.797  -4.461  0.00  0.00    -0.356 OA
ATOM     12  C   UNL d   1       4.664  -1.936  -5.716  0.00  0.00     0.210 C 
ENDBRANCH   8  11
ENDBRANCH   3   5
BRANCH   1  13
ATOM     13  N   UNL d   1       0.604   1.195   0.923  0.00  0.00    -0.252 N 
ATOM     14  C   UNL d   1      -0.464   2.040   0.745  0.00  0.00     0.332 C 
ATOM     15  O   UNL d   1      -1.147   2.455   1.674  0.00  0.00    -0.246 OA
ATOM     16  N   UNL d   1      -0.696   2.383  -0.543  0.00  0.00    -0.351 N 
ATOM     17  H   UNL d   1      -0.131   1.924  -1.242  0.00  0.00     0.160 HD
ATOM     18  H   UNL d   1      -1.492   2.953  -0.781  0.00  0.00     0.160 HD
ATOM     19  H   UNL d   1       0.796   0.934   1.879  0.00  0.00     0.191 HD
ENDBRANCH   1  13
TORSDOF 3
