REMARK  10 active torsions:
REMARK  status: ('A' for Active; 'I' for Inactive)
REMARK    1  A    between atoms: C_1  and  O_7 
REMARK    2  A    between atoms: C_2  and  O_8 
REMARK    3  A    between atoms: C_3  and  O_9 
REMARK    4  A    between atoms: C_4  and  O_20 
REMARK    5  A    between atoms: C_6  and  C_14 
REMARK    6  A    between atoms: C_10  and  O_7 
REMARK    7  A    between atoms: C_11  and  O_8 
REMARK    8  A    between atoms: C_12  and  O_9 
REMARK    9  A    between atoms: C_13  and  O_15 
REMARK   10  A    between atoms: O_15  and  C_14 
ROOT
ATOM      1  C   UNL d   1       1.657   0.010   0.039  0.00  0.00     0.198 C 
ATOM      2  C   UNL d   1       0.862  -1.288  -0.222  0.00  0.00     0.219 C 
ATOM      3  C   UNL d   1       0.875   1.292  -0.316  0.00  0.00     0.195 C 
ATOM      4  C   UNL d   1      -0.572  -1.146   0.344  0.00  0.00     0.291 C 
ATOM      5  O   UNL d   1      -1.200   0.029  -0.179  0.00  0.00    -0.348 OA
ATOM      6  C   UNL d   1      -0.546   1.234   0.254  0.00  0.00     0.181 C 
ENDROOT
BRANCH   6   7
ATOM      7  C   UNL d   1      -1.406   2.424  -0.207  0.00  0.00     0.213 C 
BRANCH   7   8
ATOM      8  O   UNL d   1      -0.870   3.698   0.190  0.00  0.00    -0.319 OA
BRANCH   8   9
ATOM      9  C   UNL d   1      -1.053   4.034   1.495  0.00  0.00     0.254 C 
ATOM     10  O   UNL d   1      -1.645   3.360   2.324  0.00  0.00    -0.266 OA
ATOM     11  C   UNL d   1      -0.379   5.337   1.804  0.00  0.00     0.126 C 
ENDBRANCH   8   9
ENDBRANCH   7   8
ENDBRANCH   6   7
BRANCH   3  12
ATOM     12  O   UNL d   1       1.593   2.421   0.241  0.00  0.00    -0.311 OA
BRANCH  12  13
ATOM     13  C   UNL d   1       2.184   3.264  -0.649  0.00  0.00     0.255 C 
ATOM     14  O   UNL d   1       2.142   3.163  -1.867  0.00  0.00    -0.266 OA
ATOM     15  C   UNL d   1       2.891   4.380   0.057  0.00  0.00     0.126 C 
ENDBRANCH  12  13
ENDBRANCH   3  12
BRANCH   4  16
ATOM     16  O   UNL d   1      -0.568  -1.115   1.776  0.00  0.00    -0.363 OA
ATOM     17  C   UNL d   1      -1.891  -1.147   2.310  0.00  0.00     0.204 C 
ENDBRANCH   4  16
BRANCH   1  18
ATOM     18  O   UNL d   1       2.965   0.021  -0.599  0.00  0.00    -0.311 OA
BRANCH  18  19
ATOM     19  C   UNL d   1       3.019   0.000  -1.963  0.00  0.00     0.255 C 
ATOM     20  O   UNL d   1       2.051  -0.054  -2.709  0.00  0.00    -0.266 OA
ATOM     21  C   UNL d   1       4.436   0.122  -2.426  0.00  0.00     0.126 C 
ENDBRANCH  18  19
ENDBRANCH   1  18
BRANCH   2  22
ATOM     22  O   UNL d   1       1.515  -2.423   0.414  0.00  0.00    -0.308 OA
BRANCH  22  23
ATOM     23  C   UNL d   1       2.485  -3.066  -0.288  0.00  0.00     0.255 C 
ATOM     24  O   UNL d   1       2.858  -2.789  -1.417  0.00  0.00    -0.266 OA
ATOM     25  C   UNL d   1       3.083  -4.170   0.530  0.00  0.00     0.126 C 
ENDBRANCH  22  23
ENDBRANCH   2  22
TORSDOF 10
