REMARK  6 active torsions:
REMARK  status: ('A' for Active; 'I' for Inactive)
REMARK    1  A    between atoms: C_3  and  N_1 
REMARK    2  A    between atoms: C_5  and  O_8 
REMARK    3  A    between atoms: C_7  and  C_5 
REMARK    4  A    between atoms: O_8  and  C_16 
REMARK    5  A    between atoms: N_14  and  N_9 
REMARK    6  A    between atoms: C_18  and  C_21 
ROOT
ATOM      1  N   UNL d   1      -0.424   1.273   1.949  0.00  0.00    -0.260 N 
ATOM      2  C   UNL d   1       0.928   0.983   1.994  0.00  0.00     0.169 C 
ATOM      3  C   UNL d   1      -1.229   0.599   2.857  0.00  0.00     0.240 C 
ATOM      4  S   UNL d   1       1.259  -0.230   3.217  0.00  0.00    -0.083 SA
ATOM      5  N   UNL d   1       1.813   1.499   1.195  0.00  0.00    -0.280 N 
ATOM      6  HN  UNL d   1       1.626   2.331   0.635  1.00  0.00     0.189 HD
ATOM      7  C   UNL d   1      -0.428  -0.233   3.819  0.00  0.00     0.186 C 
ATOM      8  O   UNL d   1      -2.451   0.672   2.952  0.00  0.00    -0.272 OA
ENDROOT
BRANCH   5   9
ATOM      9  N   UNL d   1       3.034   0.834   1.161  0.00  0.00    -0.309 N 
ATOM     10  C   UNL d   1       4.062   1.618   1.100  0.00  0.00     0.121 C 
ATOM     11  HN  UNL d   1       3.112  -0.183   1.182  1.00  0.00     0.186 HD
BRANCH  10  12
ATOM     12  C   UNL d   1       5.402   1.060   0.819  0.00  0.00     0.015 A 
ATOM     13  C   UNL d   1       6.582   1.778   1.023  0.00  0.00     0.090 A 
ATOM     14  C   UNL d   1       7.812   1.252   0.600  0.00  0.00     0.038 A 
ATOM     15  C   UNL d   1       7.867   0.003  -0.021  0.00  0.00     0.003 A 
ATOM     16  C   UNL d   1       6.698  -0.728  -0.213  0.00  0.00     0.001 A 
ATOM     17  C   UNL d   1       5.474  -0.206   0.212  0.00  0.00     0.015 A 
BRANCH  13  18
ATOM     18  O   UNL d   1       6.637   3.079   1.536  0.00  0.00    -0.278 OA
BRANCH  18  19
ATOM     19  C   UNL d   1       6.464   3.184   2.911  0.00  0.00     0.268 C 
ATOM     20  O   UNL d   1       5.869   2.399   3.633  0.00  0.00    -0.264 OA
BRANCH  19  21
ATOM     21  C   UNL d   1       7.137   4.409   3.425  0.00  0.00     0.086 A 
ATOM     22  C   UNL d   1       7.387   4.582   4.907  0.00  0.00     0.015 A 
ATOM     23  C   UNL d   1       6.387   5.458   4.208  0.00  0.00     0.015 A 
ENDBRANCH  19  21
ENDBRANCH  18  19
ENDBRANCH  13  18
ENDBRANCH  10  12
ENDBRANCH   5   9
BRANCH   1  24
ATOM     24  C   UNL d   1      -1.000   2.051   0.901  0.00  0.00     0.047 A 
ATOM     25  C   UNL d   1      -2.149   1.599   0.232  0.00  0.00     0.072 A 
ATOM     26  C   UNL d   1      -2.698   2.347  -0.805  0.00  0.00     0.118 A 
ATOM     27  F   UNL d   1      -3.769   1.878  -1.457  0.00  0.00    -0.206 F 
ATOM     28  C   UNL d   1      -2.146   3.562  -1.183  0.00  0.00     0.042 A 
ATOM     29  C   UNL d   1      -1.012   4.030  -0.524  0.00  0.00     0.005 A 
ATOM     30  C   UNL d   1      -0.434   3.272   0.501  0.00  0.00     0.030 A 
ENDBRANCH   1  24
TORSDOF 6
