REMARK  1 active torsions:
REMARK  status: ('A' for Active; 'I' for Inactive)
REMARK    1  A    between atoms: C_4  and  N_1 
ROOT
ATOM      1  N   UNL d   1       0.043   0.875  -0.090  0.00  0.00    -0.237 N 
ATOM      2  C   UNL d   1      -1.100   0.142   0.133  0.00  0.00     0.232 A 
ATOM      3  C   UNL d   1       1.149   0.073  -0.220  0.00  0.00     0.232 A 
ATOM      4  C   UNL d   1      -0.757  -1.318   0.086  0.00  0.00     0.113 A 
ATOM      5  C   UNL d   1       0.740  -1.362  -0.085  0.00  0.00     0.113 A 
ATOM      6  O   UNL d   1      -2.258   0.504   0.291  0.00  0.00    -0.273 OA
ATOM      7  O   UNL d   1       2.321   0.387  -0.374  0.00  0.00    -0.273 OA
ENDROOT
BRANCH   1   8
ATOM      8  C   UNL d   1       0.056   2.292  -0.140  0.00  0.00     0.117 A 
ATOM      9  N   UNL d   1      -1.013   2.962   0.347  0.00  0.00    -0.352 N 
ATOM     10  C   UNL d   1      -1.018   4.313   0.311  0.00  0.00     0.089 A 
ATOM     11  HN  UNL d   1      -1.807   2.453   0.736  1.00  0.00     0.166 HD
ATOM     12  C   UNL d   1       0.010   5.069  -0.212  0.00  0.00     0.017 A 
ATOM     13  C   UNL d   1       1.105   4.393  -0.725  0.00  0.00     0.005 A 
ATOM     14  C   UNL d   1       1.132   2.997  -0.683  0.00  0.00     0.049 A 
ENDBRANCH   1   8
TORSDOF 1
