REMARK  4 active torsions:
REMARK  status: ('A' for Active; 'I' for Inactive)
REMARK    1  A    between atoms: C_10  and  C_1 
REMARK    2  A    between atoms: C_2  and  C_9 
REMARK       I    between atoms: C_6  and  N_8 
REMARK    3  A    between atoms: C_11  and  C_6 
REMARK    4  A    between atoms: N_8  and  C_10 
ROOT
ATOM      1  C   UNL d   1       4.266  -3.767  -0.028  0.00  0.00     0.251 C 
ATOM      2  N   UNL d   1       3.577  -2.576  -0.103  0.00  0.00    -0.353 N 
ATOM      3  O   UNL d   1       3.738  -4.839   0.239  0.00  0.00    -0.268 OA
ATOM      4  H   UNL d   1       4.035  -1.740  -0.436  0.00  0.00     0.163 HD
ENDROOT
BRANCH   2   5
ATOM      5  C   UNL d   1       2.141  -2.523   0.061  0.00  0.00     0.162 C 
BRANCH   5   6
ATOM      6  C   UNL d   1       1.521  -1.959  -1.187  0.00  0.00    -0.022 A 
ATOM      7  C   UNL d   1       1.508  -2.608  -2.486  0.00  0.00    -0.009 A 
ATOM      8  C   UNL d   1       0.824  -1.848  -3.441  0.00  0.00     0.015 A 
ATOM      9  C   UNL d   1       2.060  -3.847  -2.909  0.00  0.00     0.037 A 
ATOM     10  C   UNL d   1       0.677  -2.280  -4.775  0.00  0.00     0.021 A 
ATOM     11  S   UNL d   1       0.218  -0.387  -2.764  0.00  0.00    -0.101 SA
ATOM     12  C   UNL d   1       1.245  -3.497  -5.160  0.00  0.00     0.025 A 
ATOM     13  C   UNL d   1       1.931  -4.267  -4.235  0.00  0.00     0.035 A 
ATOM     14 CL   UNL d   1       2.636  -5.760  -4.723  0.00  0.00    -0.084 Cl
ATOM     15  C   UNL d   1       0.848  -0.751  -1.227  0.00  0.00     0.060 A 
ENDBRANCH   5   6
ENDBRANCH   2   5
BRANCH   1  16
ATOM     16  C   UNL d   1       5.714  -3.722  -0.371  0.00  0.00     0.032 A 
ATOM     17  C   UNL d   1       6.498  -2.586  -0.151  0.00  0.00     0.018 A 
ATOM     18  C   UNL d   1       7.837  -2.569  -0.560  0.00  0.00     0.017 A 
ATOM     19  C   UNL d   1       8.411  -3.690  -1.182  0.00  0.00     0.048 A 
ATOM     20  C   UNL d   1       7.632  -4.843  -1.351  0.00  0.00     0.017 A 
ATOM     21  C   UNL d   1       6.294  -4.862  -0.943  0.00  0.00     0.018 A 
BRANCH  19  22
ATOM     22  C   UNL d   1       9.835  -3.661  -1.688  0.00  0.00     0.417 C 
ATOM     23  F   UNL d   1      10.454  -2.463  -1.494  0.00  0.00    -0.166 F 
ATOM     24  F   UNL d   1      10.623  -4.591  -1.087  0.00  0.00    -0.166 F 
ATOM     25  F   UNL d   1       9.913  -3.907  -3.025  0.00  0.00    -0.166 F 
ENDBRANCH  19  22
ENDBRANCH   1  16
TORSDOF 4
