REMARK  7 active torsions:
REMARK  status: ('A' for Active; 'I' for Inactive)
REMARK    1  A    between atoms: C_8  and  C_1 
REMARK    2  A    between atoms: N_6  and  C_2 
REMARK    3  A    between atoms: C_9  and  C_4 
REMARK       I    between atoms: C_7  and  N_6 
REMARK    4  A    between atoms: C_10  and  C_7 
REMARK    5  A    between atoms: O_25  and  C_8 
REMARK    6  A    between atoms: C_11  and  C_14 
REMARK    7  A    between atoms: C_12  and  C_13 
ROOT
ATOM      1  C   UNL d   1       0.374   1.399  -0.462  0.00  0.00     0.107 A 
ATOM      2  C   UNL d   1       1.609   0.800  -0.282  0.00  0.00     0.059 A 
ATOM      3  S   UNL d   1      -0.903   0.230  -0.348  0.00  0.00    -0.081 SA
ATOM      4  C   UNL d   1       0.179  -1.087  -0.197  0.00  0.00     0.018 A 
ATOM      5  C   UNL d   1       1.478  -0.621  -0.201  0.00  0.00     0.051 A 
ENDROOT
BRANCH   2   6
ATOM      6  N   UNL d   1       2.892   1.336  -0.202  0.00  0.00    -0.321 N 
ATOM      7  C   UNL d   1       3.278   2.609   0.164  0.00  0.00     0.256 C 
ATOM      8  O   UNL d   1       2.547   3.521   0.534  0.00  0.00    -0.267 OA
ATOM      9  H   UNL d   1       3.623   0.638  -0.179  0.00  0.00     0.169 HD
BRANCH   7  10
ATOM     10  C   UNL d   1       4.768   2.769   0.221  0.00  0.00     0.032 A 
ATOM     11  C   UNL d   1       5.614   2.073  -0.651  0.00  0.00     0.017 A 
ATOM     12  C   UNL d   1       7.003   2.109  -0.471  0.00  0.00     0.009 A 
ATOM     13  C   UNL d   1       7.592   2.852   0.570  0.00  0.00    -0.051 A 
ATOM     14  C   UNL d   1       6.726   3.598   1.391  0.00  0.00     0.009 A 
ATOM     15  C   UNL d   1       5.333   3.561   1.219  0.00  0.00     0.017 A 
BRANCH  13  16
ATOM     16  C   UNL d   1       9.120   2.816   0.780  0.00  0.00    -0.024 C 
ATOM     17  C   UNL d   1       9.602   3.680   1.967  0.00  0.00     0.019 C 
ATOM     18  C   UNL d   1       9.580   1.367   1.063  0.00  0.00     0.019 C 
ATOM     19  C   UNL d   1       9.845   3.327  -0.483  0.00  0.00     0.019 C 
ENDBRANCH  13  16
ENDBRANCH   7  10
ENDBRANCH   2   6
BRANCH   1  20
ATOM     20  C   UNL d   1       0.008   2.769  -0.781  0.00  0.00     0.302 C 
ATOM     21  O   UNL d   1      -0.999   3.359  -0.409  0.00  0.00    -0.259 OA
BRANCH  20  22
ATOM     22  O   UNL d   1       0.916   3.282  -1.665  0.00  0.00    -0.322 OA
ATOM     23  C   UNL d   1       0.771   4.677  -1.923  0.00  0.00     0.213 C 
ENDBRANCH  20  22
ENDBRANCH   1  20
BRANCH   4  24
ATOM     24  C   UNL d   1      -0.245  -2.497  -0.056  0.00  0.00    -0.019 A 
ATOM     25  C   UNL d   1      -1.380  -3.035  -0.667  0.00  0.00     0.013 A 
ATOM     26  C   UNL d   1      -1.680  -4.408  -0.554  0.00  0.00     0.009 A 
ATOM     27  C   UNL d   1      -0.863  -5.295   0.175  0.00  0.00    -0.051 A 
ATOM     28  C   UNL d   1       0.271  -4.745   0.784  0.00  0.00     0.009 A 
ATOM     29  C   UNL d   1       0.566  -3.380   0.676  0.00  0.00     0.013 A 
BRANCH  27  30
ATOM     30  C   UNL d   1      -1.225  -6.787   0.315  0.00  0.00    -0.024 C 
ATOM     31  C   UNL d   1      -0.219  -7.598   1.168  0.00  0.00     0.019 C 
ATOM     32  C   UNL d   1      -2.603  -6.918   0.998  0.00  0.00     0.019 C 
ATOM     33  C   UNL d   1      -1.284  -7.463  -1.071  0.00  0.00     0.019 C 
ENDBRANCH  27  30
ENDBRANCH   4  24
TORSDOF 7
