REMARK  3 active torsions:
REMARK  status: ('A' for Active; 'I' for Inactive)
REMARK    1  A    between atoms: C_3  and  C_1 
REMARK    2  A    between atoms: C_4  and  C_2 
REMARK       I    between atoms: N_8  and  C_3 
REMARK    3  A    between atoms: C_13  and  N_8 
ROOT
ATOM      1  C   UNL d   1       0.142  -2.645   0.157  0.00  0.00     0.259 C 
ATOM      2  N   UNL d   1      -0.913  -3.520  -0.064  0.00  0.00    -0.323 N 
ATOM      3  O   UNL d   1       1.301  -2.992   0.318  0.00  0.00    -0.267 OA
ATOM      4  H   UNL d   1      -1.794  -3.126  -0.356  0.00  0.00     0.169 HD
ENDROOT
BRANCH   1   5
ATOM      5  C   UNL d   1      -0.213  -1.226   0.142  0.00  0.00     0.073 A 
ATOM      6  C   UNL d   1       0.699  -0.177   0.257  0.00  0.00     0.175 A 
ATOM      7  O   UNL d   1       0.036   1.019   0.147  0.00  0.00    -0.310 OA
ATOM      8  C   UNL d   1      -1.284   0.756  -0.001  0.00  0.00     0.051 A 
ATOM      9  C   UNL d   1      -1.499  -0.602   0.039  0.00  0.00     0.052 A 
ATOM     10  C   UNL d   1      -2.162   1.930  -0.178  0.00  0.00     0.076 C 
BRANCH   6  11
ATOM     11  C   UNL d   1       2.175  -0.046   0.443  0.00  0.00     0.440 C 
ATOM     12  F   UNL d   1       2.836  -1.187   0.743  0.00  0.00    -0.164 F 
ATOM     13  F   UNL d   1       2.768   0.462  -0.672  0.00  0.00    -0.164 F 
ATOM     14  F   UNL d   1       2.464   0.820   1.455  0.00  0.00    -0.164 F 
ENDBRANCH   6  11
ENDBRANCH   1   5
BRANCH   2  15
ATOM     15  C   UNL d   1      -0.867  -4.926   0.064  0.00  0.00     0.035 A 
ATOM     16  C   UNL d   1       0.232  -5.624   0.582  0.00  0.00     0.031 A 
ATOM     17  C   UNL d   1       0.189  -7.011   0.750  0.00  0.00     0.026 A 
ATOM     18  C   UNL d   1      -0.954  -7.716   0.395  0.00  0.00     0.034 A 
ATOM     19  C   UNL d   1      -2.049  -7.045  -0.144  0.00  0.00     0.026 A 
ATOM     20 CL   UNL d   1      -1.020  -9.416   0.639  0.00  0.00    -0.084 Cl
ATOM     21  C   UNL d   1      -2.006  -5.655  -0.307  0.00  0.00     0.031 A 
ENDBRANCH   2  15
TORSDOF 3
