REMARK  4 active torsions:
REMARK  status: ('A' for Active; 'I' for Inactive)
REMARK    1  A    between atoms: S_3  and  C_1 
REMARK    2  A    between atoms: N_4  and  C_2 
REMARK    3  A    between atoms: C_12  and  S_3 
REMARK       I    between atoms: C_6  and  N_4 
REMARK    4  A    between atoms: C_9  and  C_6 
ROOT
ATOM      1  C   UNL d   1      -1.841   1.308   0.071  0.00  0.00     0.099 C 
ATOM      2  C   UNL d   1      -0.434   1.365   0.365  0.00  0.00     0.086 C 
ATOM      3  C   UNL d   1       0.049   0.090   0.578  0.00  0.00     0.102 C 
ATOM      4  C   UNL d   1      -2.295   0.015  -0.101  0.00  0.00     0.077 C 
ATOM      5  S   UNL d   1      -1.075  -1.135   0.234  0.00  0.00    -0.086 SA
ATOM      6 CL   UNL d   1       1.561  -0.382   1.264  0.00  0.00    -0.074 Cl
ENDROOT
BRANCH   2   7
ATOM      7  N   UNL d   1       0.303   2.546   0.496  0.00  0.00    -0.320 N 
ATOM      8  C   UNL d   1       1.540   2.711  -0.110  0.00  0.00     0.258 C 
ATOM      9  O   UNL d   1       2.073   1.890  -0.850  0.00  0.00    -0.267 OA
ATOM     10  H   UNL d   1      -0.225   3.389   0.729  0.00  0.00     0.169 HD
BRANCH   8  11
ATOM     11  C   UNL d   1       2.144   4.066   0.009  0.00  0.00     0.054 A 
ATOM     12  C   UNL d   1       2.164   4.809   1.195  0.00  0.00     0.049 A 
ATOM     13 CL   UNL d   1       1.608   4.191   2.709  0.00  0.00    -0.083 Cl
ATOM     14  C   UNL d   1       2.695   6.105   1.194  0.00  0.00     0.025 A 
ATOM     15  C   UNL d   1       3.226   6.654   0.025  0.00  0.00     0.002 A 
ATOM     16  C   UNL d   1       3.252   5.901  -1.146  0.00  0.00     0.001 A 
ATOM     17  C   UNL d   1       2.718   4.611  -1.154  0.00  0.00     0.019 A 
ENDBRANCH   8  11
ENDBRANCH   2   7
BRANCH   1  18
ATOM     18  S   UNL d   1      -2.870   2.693  -0.086  0.00  0.00     0.209 S 
ATOM     19  O   UNL d   1      -4.159   2.221   0.376  0.00  0.00    -0.217 OA
ATOM     20  O   UNL d   1      -2.147   3.765   0.579  0.00  0.00    -0.217 OA
BRANCH  18  21
ATOM     21  C   UNL d   1      -3.003   3.126  -1.793  0.00  0.00     0.064 A 
ATOM     22  C   UNL d   1      -4.232   3.610  -2.260  0.00  0.00     0.024 A 
ATOM     23  C   UNL d   1      -4.351   4.030  -3.584  0.00  0.00     0.002 A 
ATOM     24  C   UNL d   1      -3.249   3.962  -4.437  0.00  0.00     0.000 A 
ATOM     25  C   UNL d   1      -2.028   3.470  -3.970  0.00  0.00     0.002 A 
ATOM     26  C   UNL d   1      -1.899   3.049  -2.645  0.00  0.00     0.024 A 
ENDBRANCH  18  21
ENDBRANCH   1  18
TORSDOF 4
