REMARK  7 active torsions:
REMARK  status: ('A' for Active; 'I' for Inactive)
REMARK    1  A    between atoms: C_7  and  C_1 
REMARK    2  A    between atoms: C_2  and  C_8 
REMARK    3  A    between atoms: N_13  and  C_5 
REMARK    4  A    between atoms: C_6  and  N_12 
REMARK    5  A    between atoms: N_9  and  C_6 
REMARK    6  A    between atoms: C_16  and  N_9 
REMARK    7  A    between atoms: N_12  and  N_13 
ROOT
ATOM      1  N   UNL d   1      -1.064   0.069  -5.723  0.00  0.00    -0.195 NA
ATOM      2  H   UNL d   1      -0.635   0.619  -4.975  0.00  0.00     0.149 HD
ENDROOT
BRANCH   1   3
ATOM      3  C   UNL d   1      -1.557   0.824  -6.767  0.00  0.00     0.165 C 
ATOM      4  S   UNL d   1      -1.810   0.291  -8.332  0.00  0.00    -0.046 SA
BRANCH   3   5
ATOM      5  N   UNL d   1      -1.795   2.143  -6.476  0.00  0.00    -0.337 N 
ATOM      6  H   UNL d   1      -1.806   2.745  -7.296  0.00  0.00     0.168 HD
BRANCH   5   7
ATOM      7  C   UNL d   1      -2.278   2.726  -5.290  0.00  0.00     0.034 A 
ATOM      8  C   UNL d   1      -2.991   2.000  -4.332  0.00  0.00     0.045 A 
ATOM      9  C   UNL d   1      -3.640   2.661  -3.274  0.00  0.00     0.050 A 
ATOM     10  C   UNL d   1      -3.507   4.054  -3.153  0.00  0.00     0.016 A 
ATOM     11  C   UNL d   1      -2.757   4.773  -4.081  0.00  0.00     0.003 A 
ATOM     12  C   UNL d   1      -2.161   4.113  -5.155  0.00  0.00     0.029 A 
BRANCH   9  13
ATOM     13  C   UNL d   1      -4.529   1.905  -2.318  0.00  0.00     0.417 C 
ATOM     14  F   UNL d   1      -4.581   0.565  -2.563  0.00  0.00    -0.166 F 
ATOM     15  F   UNL d   1      -4.136   2.033  -1.022  0.00  0.00    -0.166 F 
ATOM     16  F   UNL d   1      -5.820   2.339  -2.362  0.00  0.00    -0.166 F 
ENDBRANCH   9  13
ENDBRANCH   5   7
ENDBRANCH   3   5
ENDBRANCH   1   3
BRANCH   1  17
ATOM     17  N   UNL d   1      -0.277  -1.065  -6.046  0.00  0.00    -0.190 NA
ATOM     18  H   UNL d   1      -0.792  -1.904  -6.293  0.00  0.00     0.150 HD
BRANCH  17  19
ATOM     19  C   UNL d   1       0.678  -1.375  -5.074  0.00  0.00     0.172 A 
ATOM     20  N   UNL d   1       1.163  -0.377  -4.303  0.00  0.00    -0.328 N 
ATOM     21  C   UNL d   1       2.089  -0.694  -3.361  0.00  0.00     0.120 A 
ATOM     22  HN  UNL d   1       0.844   0.584  -4.424  1.00  0.00     0.168 HD
ATOM     23  C   UNL d   1       2.514  -1.996  -3.168  0.00  0.00     0.051 A 
ATOM     24  C   UNL d   1       1.954  -2.940  -3.994  0.00  0.00     0.093 A 
ATOM     25  N   UNL d   1       1.046  -2.654  -4.944  0.00  0.00    -0.342 N 
ATOM     26  HN  UNL d   1       0.653  -3.382  -5.540  1.00  0.00     0.167 HD
BRANCH  21  27
ATOM     27  C   UNL d   1       2.668   0.408  -2.490  0.00  0.00     0.432 C 
ATOM     28  F   UNL d   1       2.237   1.660  -2.810  0.00  0.00    -0.165 F 
ATOM     29  F   UNL d   1       4.031   0.456  -2.546  0.00  0.00    -0.165 F 
ATOM     30  F   UNL d   1       2.365   0.236  -1.170  0.00  0.00    -0.165 F 
ENDBRANCH  21  27
ENDBRANCH  17  19
ENDBRANCH   1  17
TORSDOF 7
