REMARK  1 active torsions:
REMARK  status: ('A' for Active; 'I' for Inactive)
REMARK    1  A    between atoms: C_2  and  N_1 
ROOT
ATOM      1  C   UNL d   1      -0.013   2.293  -0.104  0.00  0.00     0.117 A 
ATOM      2  N   UNL d   1       0.696   2.885  -1.092  0.00  0.00    -0.352 N 
ATOM      3  HN  UNL d   1       1.222   2.323  -1.761  1.00  0.00     0.166 HD
ATOM      4  C   UNL d   1      -0.713   3.070   0.823  0.00  0.00     0.056 A 
ATOM      5  C   UNL d   1      -0.684   4.467   0.744  0.00  0.00    -0.057 A 
ATOM      6  C   UNL d   1       0.694   4.233  -1.177  0.00  0.00     0.090 A 
ATOM      7  C   UNL d   1       0.027   5.059  -0.293  0.00  0.00     0.024 A 
ATOM      8  C   UNL d   1      -1.395   5.308   1.761  0.00  0.00     0.048 C 
ENDROOT
BRANCH   1   9
ATOM      9  N   UNL d   1      -0.005   0.878  -0.013  0.00  0.00    -0.237 N 
ATOM     10  C   UNL d   1       0.948   0.090  -0.616  0.00  0.00     0.232 A 
ATOM     11  C   UNL d   1       0.685  -1.343  -0.256  0.00  0.00     0.113 A 
ATOM     12  O   UNL d   1       1.920   0.399  -1.291  0.00  0.00    -0.273 OA
ATOM     13  C   UNL d   1      -0.597  -1.319   0.536  0.00  0.00     0.113 A 
ATOM     14  C   UNL d   1      -0.947   0.133   0.647  0.00  0.00     0.232 A 
ATOM     15  O   UNL d   1      -1.966   0.500   1.218  0.00  0.00    -0.273 OA
ENDBRANCH   1   9
TORSDOF 1
