REMARK  3 active torsions:
REMARK  status: ('A' for Active; 'I' for Inactive)
REMARK    1  A    between atoms: C_4  and  C_1 
REMARK    2  A    between atoms: C_13  and  C_6 
REMARK    3  A    between atoms: N_12  and  C_11 
ROOT
ATOM      1  C   UNL d   1      -3.729  -0.033   0.005  0.00  0.00     0.089 C 
ATOM      2  C   UNL d   1      -4.441   1.126  -0.016  0.00  0.00     0.038 C 
ATOM      3  C   UNL d   1      -2.251  -0.013  -0.003  0.00  0.00     0.103 C 
ATOM      4  N   UNL d   1      -1.091   0.000  -0.010  0.00  0.00    -0.191 NA
ENDROOT
BRANCH   1   5
ATOM      5  C   UNL d   1      -4.516  -1.252   0.018  0.00  0.00     0.127 A 
ATOM      6  N   UNL d   1      -5.834  -1.432   0.028  0.00  0.00    -0.339 N 
ATOM      7  C   UNL d   1      -6.038  -2.792   0.006  0.00  0.00     0.060 A 
ATOM      8  HN  UNL d   1      -6.550  -0.706   0.049  1.00  0.00     0.167 HD
ATOM      9  C   UNL d   1      -7.237  -3.518  -0.004  0.00  0.00     0.032 A 
ATOM     10  C   UNL d   1      -4.827  -3.470  -0.013  0.00  0.00     0.060 A 
ATOM     11  C   UNL d   1      -7.172  -4.916  -0.034  0.00  0.00     0.002 A 
ATOM     12  C   UNL d   1      -5.939  -5.574  -0.052  0.00  0.00     0.002 A 
ATOM     13  C   UNL d   1      -4.733  -4.863  -0.042  0.00  0.00     0.032 A 
ATOM     14  N   UNL d   1      -3.881  -2.476   0.001  0.00  0.00    -0.339 N 
ATOM     15  H   UNL d   1      -2.881  -2.627  -0.012  0.00  0.00     0.167 HD
ENDBRANCH   1   5
BRANCH   2  16
ATOM     16  C   UNL d   1      -3.827   2.459  -0.078  0.00  0.00    -0.035 A 
ATOM     17  C   UNL d   1      -3.578   3.066  -1.307  0.00  0.00     0.013 A 
ATOM     18  C   UNL d   1      -3.003   4.348  -1.369  0.00  0.00     0.030 A 
ATOM     19  C   UNL d   1      -2.659   5.076  -0.218  0.00  0.00     0.029 A 
ATOM     20  C   UNL d   1      -2.907   4.429   1.005  0.00  0.00     0.030 A 
ATOM     21  C   UNL d   1      -3.475   3.144   1.082  0.00  0.00     0.013 A 
BRANCH  19  22
ATOM     22  N   UNL d   1      -2.147   6.363  -0.272  0.00  0.00    -0.390 N 
ATOM     23  C   UNL d   1      -1.224   6.868   0.743  0.00  0.00     0.149 C 
ATOM     24  C   UNL d   1      -2.275   7.213  -1.452  0.00  0.00     0.149 C 
ENDBRANCH  19  22
ENDBRANCH   2  16
TORSDOF 3
