REMARK  6 active torsions:
REMARK  status: ('A' for Active; 'I' for Inactive)
REMARK       I    between atoms: N_3  and  C_1 
REMARK    1  A    between atoms: C_5  and  C_1 
REMARK    2  A    between atoms: C_2  and  C_5 
REMARK    3  A    between atoms: C_7  and  C_2 
REMARK    4  A    between atoms: C_9  and  N_3 
REMARK    5  A    between atoms: C_4  and  C_7 
REMARK    6  A    between atoms: O_11  and  C_4 
ROOT
ATOM      1  C   UNL d   1       1.030  -0.896  -0.471  0.00  0.00     0.222 C 
ATOM      2  N   UNL d   1       2.395  -0.664  -0.598  0.00  0.00    -0.327 N 
ATOM      3  O   UNL d   1       0.506  -1.879   0.039  0.00  0.00    -0.273 OA
ATOM      4  H   UNL d   1       2.670   0.246  -0.945  0.00  0.00     0.169 HD
ENDROOT
BRANCH   1   5
ATOM      5  C   UNL d   1       0.208   0.246  -1.059  0.00  0.00     0.113 C 
BRANCH   5   6
ATOM      6  C   UNL d   1      -1.336   0.127  -0.969  0.00  0.00    -0.023 C 
ATOM      7  C   UNL d   1      -1.880  -1.057  -1.804  0.00  0.00     0.010 C 
ATOM      8  C   UNL d   1      -3.318  -0.675  -2.164  0.00  0.00     0.001 C 
ATOM      9  C   UNL d   1      -3.382   0.850  -2.105  0.00  0.00     0.001 C 
ATOM     10  C   UNL d   1      -1.977   1.309  -1.734  0.00  0.00     0.010 C 
BRANCH   6  11
ATOM     11  C   UNL d   1      -1.891  -0.005   0.480  0.00  0.00     0.119 C 
BRANCH  11  12
ATOM     12  C   UNL d   1      -1.552   1.099   1.448  0.00  0.00     0.140 C 
ATOM     13  O   UNL d   1      -0.837   2.062   1.215  0.00  0.00    -0.650 OA
BRANCH  12  14
ATOM     14  O   UNL d   1      -2.149   0.918   2.654  0.00  0.00    -0.776 OA
ATOM     15  H   UNL d   1      -2.674   0.096   2.707  0.00  0.00     0.167 HD
ENDBRANCH  12  14
ENDBRANCH  11  12
ENDBRANCH   6  11
ENDBRANCH   5   6
ENDBRANCH   1   5
BRANCH   2  16
ATOM     16  C   UNL d   1       3.446  -1.513  -0.185  0.00  0.00     0.034 A 
ATOM     17  C   UNL d   1       3.254  -2.833   0.236  0.00  0.00     0.032 A 
ATOM     18  C   UNL d   1       4.337  -3.608   0.666  0.00  0.00     0.044 A 
ATOM     19  C   UNL d   1       5.612  -3.065   0.672  0.00  0.00     0.116 A 
ATOM     20  C   UNL d   1       5.833  -1.764   0.237  0.00  0.00     0.044 A 
ATOM     21  F   UNL d   1       6.645  -3.803   1.103  0.00  0.00    -0.206 F 
ATOM     22  C   UNL d   1       4.750  -0.993  -0.201  0.00  0.00     0.032 A 
ENDBRANCH   2  16
TORSDOF 6
