REMARK  1 active torsions:
REMARK  status: ('A' for Active; 'I' for Inactive)
REMARK    1  A    between atoms: C_2  and  N_1 
ROOT
ATOM      1  N   UNL d   1       0.652   1.145  -0.529  0.00  0.00    -0.248 N 
ATOM      2  C   UNL d   1       1.455   0.007  -0.340  0.00  0.00     0.240 C 
ATOM      3  C   UNL d   1      -0.744   1.268  -0.429  0.00  0.00     0.240 C 
ATOM      4  S   UNL d   1      -0.683  -1.069   1.031  0.00  0.00    -0.150 SA
ATOM      5  O   UNL d   1      -1.343   2.321  -0.677  0.00  0.00    -0.272 OA
ATOM      6  O   UNL d   1       2.677   0.012  -0.528  0.00  0.00    -0.272 OA
ATOM      7  C   UNL d   1       0.772  -1.297   0.002  0.00  0.00     0.178 C 
ATOM      8  C   UNL d   1      -1.545   0.029  -0.102  0.00  0.00     0.178 C 
ENDROOT
BRANCH   1   9
ATOM      9  C   UNL d   1       1.343   2.312  -0.991  0.00  0.00     0.088 A 
ATOM     10  C   UNL d   1       1.893   3.228  -0.082  0.00  0.00     0.063 A 
ATOM     11 CL   UNL d   1       1.740   3.013   1.626  0.00  0.00    -0.082 Cl
ATOM     12  C   UNL d   1       2.582   4.352  -0.547  0.00  0.00     0.026 A 
ATOM     13  C   UNL d   1       2.728   4.569  -1.917  0.00  0.00     0.003 A 
ATOM     14  C   UNL d   1       2.183   3.663  -2.829  0.00  0.00     0.026 A 
ATOM     15  C   UNL d   1       1.493   2.540  -2.370  0.00  0.00     0.063 A 
ATOM     16 CL   UNL d   1       0.847   1.444  -3.545  0.00  0.00    -0.082 Cl
ENDBRANCH   1   9
TORSDOF 1
