REMARK  1 active torsions:
REMARK  status: ('A' for Active; 'I' for Inactive)
REMARK    1  A    between atoms: C_4  and  N_1 
ROOT
ATOM      1  N   UNL d   1       0.663   1.042  -0.604  0.00  0.00    -0.252 N 
ATOM      2  C   UNL d   1       1.302  -0.208  -0.597  0.00  0.00     0.231 C 
ATOM      3  C   UNL d   1      -0.670   1.244  -0.212  0.00  0.00     0.231 C 
ATOM      4  C   UNL d   1       0.437  -1.431  -0.401  0.00  0.00     0.108 C 
ATOM      5  C   UNL d   1      -1.530   0.006  -0.086  0.00  0.00     0.108 C 
ATOM      6  O   UNL d   1       2.515  -0.373  -0.755  0.00  0.00    -0.273 OA
ATOM      7  O   UNL d   1      -1.214   2.342  -0.072  0.00  0.00    -0.273 OA
ATOM      8  C   UNL d   1      -0.786  -1.192   0.461  0.00  0.00    -0.001 C 
ATOM      9  C   UNL d   1      -0.448  -1.038   1.944  0.00  0.00     0.011 C 
ENDROOT
BRANCH   1  10
ATOM     10  C   UNL d   1       1.450   2.193  -0.992  0.00  0.00     0.048 A 
ATOM     11  C   UNL d   1       2.303   2.114  -2.107  0.00  0.00     0.054 A 
ATOM     12  C   UNL d   1       3.022   3.231  -2.538  0.00  0.00     0.037 A 
ATOM     13 CL   UNL d   1       4.013   3.114  -3.942  0.00  0.00    -0.084 Cl
ATOM     14  C   UNL d   1       2.928   4.440  -1.863  0.00  0.00     0.048 A 
ATOM     15  C   UNL d   1       2.101   4.526  -0.749  0.00  0.00     0.037 A 
ATOM     16  C   UNL d   1       1.360   3.420  -0.317  0.00  0.00     0.054 A 
ATOM     17 CL   UNL d   1       1.991   6.013   0.111  0.00  0.00    -0.084 Cl
ENDBRANCH   1  10
TORSDOF 1
