REMARK  4 active torsions:
REMARK  status: ('A' for Active; 'I' for Inactive)
REMARK       I    between atoms: N_2  and  C_1 
REMARK    1  A    between atoms: C_3  and  C_1 
REMARK       I    between atoms: C_4  and  N_2 
REMARK       I    between atoms: N_11  and  C_4 
REMARK    2  A    between atoms: C_14  and  N_11 
REMARK    3  A    between atoms: C_21  and  C_14 
REMARK    4  A    between atoms: C_15  and  C_21 
ROOT
ATOM      1  C   UNL d   1      -1.005   1.235  -0.104  0.00  0.00     0.265 C 
ATOM      2  N   UNL d   1       0.375   1.311  -0.050  0.00  0.00    -0.275 N 
ATOM      3  C   UNL d   1       1.137   2.449   0.081  0.00  0.00     0.323 C 
ATOM      4  O   UNL d   1      -1.736   2.221  -0.009  0.00  0.00    -0.267 OA
ATOM      5  O   UNL d   1       2.358   2.368   0.174  0.00  0.00    -0.247 OA
ATOM      6  N   UNL d   1       0.446   3.623   0.085  0.00  0.00    -0.342 N 
ATOM      7  H   UNL d   1       0.930   0.466  -0.060  0.00  0.00     0.173 HD
ATOM      8  H   UNL d   1      -0.571   3.549   0.104  0.00  0.00     0.164 HD
ENDROOT
BRANCH   6   9
ATOM      9  C   UNL d   1       1.046   4.926   0.252  0.00  0.00     0.129 C 
BRANCH   9  10
ATOM     10  C   UNL d   1       2.011   5.319  -0.871  0.00  0.00     0.058 C 
BRANCH  10  11
ATOM     11  C   UNL d   1       1.397   5.377  -2.250  0.00  0.00    -0.054 A 
ATOM     12  C   UNL d   1       0.370   6.272  -2.561  0.00  0.00     0.024 A 
ATOM     13  C   UNL d   1      -0.123   6.296  -3.858  0.00  0.00     0.088 A 
ATOM     14  N   UNL d   1       0.332   5.506  -4.854  0.00  0.00    -0.375 N 
ATOM     15  C   UNL d   1       1.323   4.648  -4.534  0.00  0.00     0.088 A 
ATOM     16  HN  UNL d   1      -0.052   5.556  -5.798  1.00  0.00     0.164 HD
ATOM     17  C   UNL d   1       1.878   4.547  -3.267  0.00  0.00     0.024 A 
ENDBRANCH  10  11
ENDBRANCH   9  10
ENDBRANCH   6   9
BRANCH   1  18
ATOM     18  C   UNL d   1      -1.624  -0.096  -0.242  0.00  0.00     0.109 A 
ATOM     19  C   UNL d   1      -1.035  -1.250   0.272  0.00  0.00     0.135 A 
ATOM     20  F   UNL d   1       0.187  -1.209   0.823  0.00  0.00    -0.205 F 
ATOM     21  C   UNL d   1      -1.711  -2.471   0.246  0.00  0.00     0.043 A 
ATOM     22  C   UNL d   1      -2.989  -2.549  -0.309  0.00  0.00     0.006 A 
ATOM     23  C   UNL d   1      -3.574  -1.409  -0.855  0.00  0.00     0.043 A 
ATOM     24  C   UNL d   1      -2.891  -0.195  -0.820  0.00  0.00     0.135 A 
ATOM     25  F   UNL d   1      -3.488   0.870  -1.374  0.00  0.00    -0.205 F 
ENDBRANCH   1  18
TORSDOF 4
