REMARK  6 active torsions:
REMARK  status: ('A' for Active; 'I' for Inactive)
REMARK    1  A    between atoms: C_2  and  S_1 
REMARK    2  A    between atoms: N_7  and  S_1 
REMARK    3  A    between atoms: C_10  and  C_3 
REMARK    4  A    between atoms: C_5  and  C_11 
REMARK    5  A    between atoms: C_12  and  N_18 
REMARK    6  A    between atoms: C_13  and  C_14 
ROOT
ATOM      1  N   UNL d   1       0.391  -1.135  -0.555  0.00  0.00    -0.203 NA
ATOM      2  N   UNL d   1      -0.692  -2.645   1.660  0.00  0.00    -0.364 N 
ATOM      3  C   UNL d   1      -1.067  -1.047  -0.221  0.00  0.00     0.127 C 
ATOM      4  C   UNL d   1       0.937  -2.472  -0.194  0.00  0.00     0.127 C 
ATOM      5  C   UNL d   1       0.721  -2.797   1.292  0.00  0.00     0.140 C 
ATOM      6  C   UNL d   1      -1.351  -1.392   1.256  0.00  0.00     0.140 C 
ENDROOT
BRANCH   1   7
ATOM      7  S   UNL d   1       1.348   0.201  -0.126  0.00  0.00     0.250 S 
ATOM      8  O   UNL d   1       0.721   0.905   0.968  0.00  0.00    -0.205 OA
ATOM      9  O   UNL d   1       2.734  -0.216  -0.089  0.00  0.00    -0.205 OA
BRANCH   7  10
ATOM     10  C   UNL d   1       1.257   1.306  -1.515  0.00  0.00     0.116 A 
ATOM     11  S   UNL d   1       2.098   2.784  -1.356  0.00  0.00    -0.075 SA
ATOM     12  C   UNL d   1       1.590   3.315  -2.898  0.00  0.00     0.035 A 
ATOM     13  C   UNL d   1       0.818   2.367  -3.539  0.00  0.00     0.023 A 
ATOM     14  C   UNL d   1       0.638   1.200  -2.743  0.00  0.00     0.034 A 
BRANCH  12  15
ATOM     15  C   UNL d   1       1.934   4.648  -3.482  0.00  0.00     0.074 A 
ATOM     16  C   UNL d   1       2.762   5.637  -2.904  0.00  0.00     0.077 A 
ATOM     17  C   UNL d   1       2.743   6.672  -3.808  0.00  0.00     0.184 A 
ATOM     18  O   UNL d   1       1.958   6.327  -4.863  0.00  0.00    -0.233 OA
ATOM     19  N   UNL d   1       1.454   5.055  -4.665  0.00  0.00    -0.260 N 
ATOM     20  HN  UNL d   1       0.842   4.532  -5.292  1.00  0.00     0.195 HD
BRANCH  17  21
ATOM     21  C   UNL d   1       3.363   8.005  -3.861  0.00  0.00     0.441 C 
ATOM     22  F   UNL d   1       4.162   8.229  -2.784  0.00  0.00    -0.164 F 
ATOM     23  F   UNL d   1       4.140   8.167  -4.962  0.00  0.00    -0.164 F 
ATOM     24  F   UNL d   1       2.440   9.000  -3.873  0.00  0.00    -0.164 F 
ENDBRANCH  17  21
ENDBRANCH  12  15
ENDBRANCH   7  10
ENDBRANCH   1   7
BRANCH   2  25
ATOM     25  C   UNL d   1      -1.423  -3.643   2.264  0.00  0.00     0.125 A 
ATOM     26  N   UNL d   1      -2.717  -3.767   1.861  0.00  0.00    -0.350 N 
ATOM     27  C   UNL d   1      -3.487  -4.757   2.377  0.00  0.00     0.106 A 
ATOM     28  HN  UNL d   1      -3.105  -3.119   1.176  1.00  0.00     0.166 HD
ATOM     29  C   UNL d   1      -3.044  -5.679   3.305  0.00  0.00     0.065 A 
ATOM     30  C   UNL d   1      -1.729  -5.548   3.742  0.00  0.00     0.045 A 
ATOM     31  C   UNL d   1      -0.918  -4.524   3.242  0.00  0.00     0.078 A 
ATOM     32 CL   UNL d   1       0.638  -4.368   3.987  0.00  0.00    -0.080 Cl
BRANCH  29  33
ATOM     33  C   UNL d   1      -3.954  -6.747   3.821  0.00  0.00     0.418 C 
ATOM     34  F   UNL d   1      -3.357  -7.576   4.721  0.00  0.00    -0.166 F 
ATOM     35  F   UNL d   1      -5.050  -6.241   4.449  0.00  0.00    -0.166 F 
ATOM     36  F   UNL d   1      -4.426  -7.553   2.831  0.00  0.00    -0.166 F 
ENDBRANCH  29  33
ENDBRANCH   2  25
TORSDOF 6
