REMARK  5 active torsions:
REMARK  status: ('A' for Active; 'I' for Inactive)
REMARK    1  A    between atoms: N_13  and  N_1 
REMARK    2  A    between atoms: N_7  and  C_9 
REMARK    3  A    between atoms: C_19  and  N_13 
REMARK    4  A    between atoms: C_22  and  C_19 
REMARK    5  A    between atoms: O_21  and  C_22 
ROOT
ATOM      1  N   UNL d   1       2.257  -0.132   0.124  0.00  0.00    -0.205 N 
ATOM      2  C   UNL d   1       1.557  -1.341   0.035  0.00  0.00     0.276 A 
ATOM      3  C   UNL d   1       1.691   1.146   0.069  0.00  0.00     0.276 A 
ATOM      4  C   UNL d   1       0.075  -1.235   0.030  0.00  0.00     0.046 A 
ATOM      5  C   UNL d   1      -0.548   0.028   0.020  0.00  0.00     0.008 A 
ATOM      6  C   UNL d   1       0.212   1.209   0.019  0.00  0.00     0.046 A 
ATOM      7  C   UNL d   1      -1.968   0.112   0.013  0.00  0.00     0.009 A 
ATOM      8  C   UNL d   1      -2.693  -1.111   0.045  0.00  0.00     0.114 A 
ATOM      9  C   UNL d   1      -0.680  -2.419   0.045  0.00  0.00     0.020 A 
ATOM     10  C   UNL d   1      -2.068  -2.362   0.064  0.00  0.00     0.038 A 
ATOM     11  O   UNL d   1       2.067  -2.458  -0.023  0.00  0.00    -0.266 OA
ATOM     12  O   UNL d   1       2.350   2.184   0.057  0.00  0.00    -0.266 OA
ATOM     13  C   UNL d   1      -0.401   2.467  -0.014  0.00  0.00     0.018 A 
ATOM     14  C   UNL d   1      -2.559   1.402  -0.011  0.00  0.00     0.015 A 
ATOM     15  C   UNL d   1      -1.785   2.562  -0.034  0.00  0.00     0.002 A 
ENDROOT
BRANCH   1  16
ATOM     16  N   UNL d   1       3.692  -0.199   0.151  0.00  0.00    -0.226 NA
ATOM     17  H   UNL d   1       4.048   0.709  -0.178  0.00  0.00     0.147 HD
BRANCH  16  18
ATOM     18  C   UNL d   1       4.181  -0.365   1.531  0.00  0.00     0.137 C 
BRANCH  18  19
ATOM     19  C   UNL d   1       5.712  -0.347   1.555  0.00  0.00     0.180 C 
BRANCH  19  20
ATOM     20  O   UNL d   1       6.194   0.920   1.112  0.00  0.00    -0.400 OA
ATOM     21  H   UNL d   1       7.165   0.873   1.127  0.00  0.00     0.209 HD
ENDBRANCH  19  20
ENDBRANCH  18  19
ENDBRANCH  16  18
ENDBRANCH   1  16
BRANCH   8  22
ATOM     22  N   UNL d   1      -4.149  -1.113   0.083  0.00  0.00    -0.115 N 
ATOM     23  O   UNL d   1      -4.744  -0.615  -0.878  0.00  0.00    -0.532 OA
ATOM     24  O   UNL d   1      -4.679  -1.639   1.071  0.00  0.00    -0.532 OA
ENDBRANCH   8  22
TORSDOF 5
