REMARK  4 active torsions:
REMARK  status: ('A' for Active; 'I' for Inactive)
REMARK    1  A    between atoms: C_2  and  S_1 
REMARK    2  A    between atoms: C_12  and  S_1 
REMARK    3  A    between atoms: C_5  and  N_16 
REMARK    4  A    between atoms: N_16  and  C_6 
ROOT
ATOM      1  C   UNL d   1       0.362   1.190  -0.976  0.00  0.00     0.159 C 
ATOM      2  C   UNL d   1      -0.506   0.883  -1.962  0.00  0.00     0.124 C 
ATOM      3  C   UNL d   1       0.886   0.206  -0.100  0.00  0.00     0.113 C 
ATOM      4  N   UNL d   1       1.250  -0.656   0.583  0.00  0.00    -0.191 NA
ENDROOT
BRANCH   1   5
ATOM      5  S   UNL d   1       0.886   2.829  -0.773  0.00  0.00     0.218 S 
ATOM      6  O   UNL d   1       0.135   3.724  -1.634  0.00  0.00    -0.216 OA
ATOM      7  O   UNL d   1       2.338   2.874  -0.794  0.00  0.00    -0.216 OA
BRANCH   5   8
ATOM      8  C   UNL d   1       0.392   3.244   0.899  0.00  0.00     0.065 A 
ATOM      9  C   UNL d   1       1.320   3.138   1.940  0.00  0.00     0.025 A 
ATOM     10  C   UNL d   1       0.970   3.569   3.223  0.00  0.00     0.025 A 
ATOM     11  C   UNL d   1      -0.292   4.115   3.454  0.00  0.00     0.034 A 
ATOM     12  C   UNL d   1      -1.214   4.231   2.414  0.00  0.00     0.025 A 
ATOM     13 CL   UNL d   1      -0.705   4.675   5.028  0.00  0.00    -0.084 Cl
ATOM     14  C   UNL d   1      -0.873   3.800   1.128  0.00  0.00     0.025 A 
ENDBRANCH   5   8
ENDBRANCH   1   5
BRANCH   2  15
ATOM     15  N   UNL d   1      -0.999  -0.366  -2.276  0.00  0.00    -0.350 N 
ATOM     16  H   UNL d   1      -0.481  -1.164  -1.919  0.00  0.00     0.166 HD
BRANCH  15  17
ATOM     17  C   UNL d   1      -1.899  -0.695  -3.314  0.00  0.00     0.108 A 
ATOM     18  N   UNL d   1      -2.355   0.247  -4.153  0.00  0.00    -0.332 N 
ATOM     19  C   UNL d   1      -3.272  -0.135  -5.068  0.00  0.00     0.078 A 
ATOM     20  HN  UNL d   1      -2.024   1.211  -4.103  1.00  0.00     0.168 HD
ATOM     21  C   UNL d   1      -3.791   0.897  -6.019  0.00  0.00     0.089 C 
ATOM     22  N   UNL d   1      -3.774  -1.377  -5.183  0.00  0.00    -0.350 N 
ATOM     23  C   UNL d   1      -3.319  -2.300  -4.319  0.00  0.00     0.010 A 
ATOM     24  HN  UNL d   1      -4.468  -1.608  -5.894  1.00  0.00     0.167 HD
ATOM     25  C   UNL d   1      -2.371  -1.997  -3.363  0.00  0.00     0.073 A 
ATOM     26  C   UNL d   1      -3.888  -3.683  -4.413  0.00  0.00     0.068 C 
ENDBRANCH  15  17
ENDBRANCH   2  15
TORSDOF 4
