REMARK  7 active torsions:
REMARK  status: ('A' for Active; 'I' for Inactive)
REMARK    1  A    between atoms: C_2  and  S_1 
REMARK    2  A    between atoms: O_13  and  S_1 
REMARK    3  A    between atoms: C_9  and  C_3 
REMARK    4  A    between atoms: C_28  and  C_5 
REMARK    5  A    between atoms: C_10  and  C_9 
REMARK    6  A    between atoms: C_21  and  O_13 
REMARK    7  A    between atoms: C_35  and  C_28 
ROOT
ATOM      1  C   UNL d   1       3.152  -2.300   6.437  0.00  0.00     0.029 C 
ATOM      2  C   UNL d   1       4.093  -2.139   5.289  0.00  0.00     0.295 C 
ATOM      3  C   UNL d   1       1.859  -1.903   6.354  0.00  0.00    -0.033 C 
ATOM      4  O   UNL d   1       3.710  -1.289   4.272  0.00  0.00    -0.274 OA
ATOM      5  C   UNL d   1       2.365  -0.929   4.131  0.00  0.00     0.093 A 
ATOM      6  C   UNL d   1       1.421  -1.236   5.108  0.00  0.00     0.005 A 
ATOM      7  C   UNL d   1       2.031  -0.308   2.923  0.00  0.00     0.076 A 
ATOM      8  C   UNL d   1       0.095  -0.869   4.840  0.00  0.00     0.017 A 
ATOM      9  C   UNL d   1       0.698  -0.019   2.654  0.00  0.00     0.092 A 
ATOM     10  O   UNL d   1       5.178  -2.711   5.252  0.00  0.00    -0.259 OA
ATOM     11  C   UNL d   1      -0.262  -0.258   3.632  0.00  0.00     0.039 A 
ENDROOT
BRANCH   9  12
ATOM     12  O   UNL d   1       0.413   0.467   1.405  0.00  0.00    -0.229 OA
BRANCH  12  13
ATOM     13  S   UNL d   1      -1.046   0.194   0.721  0.00  0.00     0.304 S 
ATOM     14  O   UNL d   1      -1.476  -1.173   0.960  0.00  0.00    -0.193 OA
ATOM     15  O   UNL d   1      -1.909   1.302   1.091  0.00  0.00    -0.193 OA
BRANCH  13  16
ATOM     16  C   UNL d   1      -0.754   0.320  -1.019  0.00  0.00     0.109 A 
ATOM     17  C   UNL d   1       0.177  -0.499  -1.656  0.00  0.00     0.059 A 
ATOM     18  C   UNL d   1       0.320  -0.417  -3.042  0.00  0.00     0.050 A 
ATOM     19 CL   UNL d   1       1.183  -1.633  -0.831  0.00  0.00    -0.083 Cl
ATOM     20  C   UNL d   1      -0.448   0.479  -3.790  0.00  0.00     0.041 A 
ATOM     21  C   UNL d   1      -1.376   1.321  -3.160  0.00  0.00    -0.039 A 
ATOM     22 CL   UNL d   1      -0.208   0.493  -5.500  0.00  0.00    -0.084 Cl
ATOM     23  C   UNL d   1      -1.521   1.226  -1.765  0.00  0.00     0.036 A 
ATOM     24  C   UNL d   1      -2.234   2.322  -3.883  0.00  0.00     0.050 C 
ENDBRANCH  13  16
ENDBRANCH  12  13
ENDBRANCH   9  12
BRANCH   3  25
ATOM     25  C   UNL d   1       0.835  -2.152   7.454  0.00  0.00     0.040 C 
BRANCH  25  26
ATOM     26  C   UNL d   1       0.701  -1.067   8.532  0.00  0.00     0.000 C 
ATOM     27  C   UNL d   1       0.275   0.306   8.037  0.00  0.00     0.005 C 
ENDBRANCH  25  26
ENDBRANCH   3  25
BRANCH   1  28
ATOM     28  C   UNL d   1       3.801  -2.952   7.641  0.00  0.00     0.089 C 
BRANCH  28  29
ATOM     29  C   UNL d   1       4.513  -2.038   8.626  0.00  0.00     0.007 A 
ATOM     30  C   UNL d   1       4.604  -0.647   8.465  0.00  0.00     0.124 A 
ATOM     31  F   UNL d   1       4.043  -0.033   7.413  0.00  0.00    -0.205 F 
ATOM     32  C   UNL d   1       5.263   0.169   9.385  0.00  0.00     0.043 A 
ATOM     33  C   UNL d   1       5.863  -0.391  10.506  0.00  0.00     0.005 A 
ATOM     34  C   UNL d   1       5.793  -1.767  10.700  0.00  0.00     0.024 A 
ATOM     35  C   UNL d   1       5.126  -2.581   9.773  0.00  0.00     0.043 A 
ATOM     36 CL   UNL d   1       5.082  -4.278  10.114  0.00  0.00    -0.084 Cl
ENDBRANCH  28  29
ENDBRANCH   1  28
TORSDOF 7
