REMARK  6 active torsions:
REMARK  status: ('A' for Active; 'I' for Inactive)
REMARK    1  A    between atoms: O_7  and  C_1 
REMARK    2  A    between atoms: N_4  and  C_2 
REMARK    3  A    between atoms: N_5  and  C_3 
REMARK    4  A    between atoms: C_6  and  O_7 
REMARK    5  A    between atoms: C_8  and  C_6 
REMARK    6  A    between atoms: C_9  and  C_10 
ROOT
ATOM      1  C   UNL d   1       1.181  -0.267   0.209  0.00  0.00     0.145 A 
ATOM      2  C   UNL d   1       0.103  -1.155   0.209  0.00  0.00     0.140 A 
ATOM      3  C   UNL d   1       0.889   1.089   0.043  0.00  0.00     0.140 A 
ATOM      4  C   UNL d   1      -1.523   0.630   0.027  0.00  0.00     0.052 A 
ATOM      5  C   UNL d   1      -0.451   1.538  -0.059  0.00  0.00     0.055 A 
ATOM      6  C   UNL d   1      -1.232  -0.733   0.168  0.00  0.00     0.055 A 
ENDROOT
BRANCH   1   7
ATOM      7  O   UNL d   1       2.432  -0.775   0.631  0.00  0.00    -0.270 OA
BRANCH   7   8
ATOM      8  C   UNL d   1       3.588  -0.752  -0.138  0.00  0.00     0.304 C 
ATOM      9  O   UNL d   1       3.632  -0.401  -1.296  0.00  0.00    -0.259 OA
BRANCH   8  10
ATOM     10  C   UNL d   1       4.728  -1.246   0.687  0.00  0.00     0.116 A 
ATOM     11  C   UNL d   1       4.723  -1.160   2.083  0.00  0.00     0.135 A 
ATOM     12  F   UNL d   1       3.670  -0.661   2.747  0.00  0.00    -0.205 F 
ATOM     13  C   UNL d   1       5.819  -1.574   2.846  0.00  0.00     0.043 A 
ATOM     14  C   UNL d   1       6.950  -2.088   2.220  0.00  0.00     0.006 A 
ATOM     15  C   UNL d   1       6.968  -2.200   0.830  0.00  0.00     0.043 A 
ATOM     16  C   UNL d   1       5.863  -1.782   0.076  0.00  0.00     0.135 A 
ATOM     17  F   UNL d   1       5.925  -1.935  -1.254  0.00  0.00    -0.205 F 
ENDBRANCH   8  10
ENDBRANCH   7   8
ENDBRANCH   1   7
BRANCH   2  18
ATOM     18  N   UNL d   1       0.360  -2.567   0.035  0.00  0.00    -0.113 N 
ATOM     19  O   UNL d   1       0.390  -2.969  -1.133  0.00  0.00    -0.532 OA
ATOM     20  O   UNL d   1       0.488  -3.249   1.053  0.00  0.00    -0.532 OA
ENDBRANCH   2  18
BRANCH   3  21
ATOM     21  N   UNL d   1       1.939   2.090  -0.055  0.00  0.00    -0.113 N 
ATOM     22  O   UNL d   1       2.852   2.045   0.778  0.00  0.00    -0.532 OA
ATOM     23  O   UNL d   1       1.810   2.947  -0.939  0.00  0.00    -0.532 OA
ENDBRANCH   3  21
BRANCH   4  24
ATOM     24  C   UNL d   1      -2.967   1.073  -0.079  0.00  0.00     0.417 C 
ATOM     25  F   UNL d   1      -3.111   2.337  -0.555  0.00  0.00    -0.166 F 
ATOM     26  F   UNL d   1      -3.684   0.269  -0.911  0.00  0.00    -0.166 F 
ATOM     27  F   UNL d   1      -3.607   1.039   1.120  0.00  0.00    -0.166 F 
ENDBRANCH   4  24
TORSDOF 6
