REMARK  2 active torsions:
REMARK  status: ('A' for Active; 'I' for Inactive)
REMARK    1  A    between atoms: C_5  and  C_1 
REMARK    2  A    between atoms: C_8  and  C_6 
ROOT
ATOM      1  C   UNL d   1      -0.116   1.033   0.025  0.00  0.00     0.161 A 
ATOM      2  N   UNL d   1      -1.250   0.357  -0.034  0.00  0.00    -0.343 N 
ATOM      3  HN  UNL d   1      -2.200   0.726  -0.060  1.00  0.00     0.167 HD
ATOM      4  O   UNL d   1       1.002   0.240   0.036  0.00  0.00    -0.291 OA
ATOM      5  C   UNL d   1       0.522  -1.043  -0.007  0.00  0.00     0.103 A 
ATOM      6  C   UNL d   1      -0.851  -0.955  -0.053  0.00  0.00     0.128 A 
ENDROOT
BRANCH   1   7
ATOM      7  C   UNL d   1       0.075   2.474   0.127  0.00  0.00     0.054 A 
ATOM      8  C   UNL d   1       1.336   3.079   0.135  0.00  0.00     0.130 A 
ATOM      9  F   UNL d   1       2.457   2.351   0.017  0.00  0.00    -0.205 F 
ATOM     10  C   UNL d   1       1.476   4.462   0.268  0.00  0.00     0.043 A 
ATOM     11  C   UNL d   1       0.348   5.269   0.393  0.00  0.00     0.003 A 
ATOM     12  C   UNL d   1      -0.919   4.691   0.376  0.00  0.00     0.001 A 
ATOM     13  C   UNL d   1      -1.054   3.306   0.242  0.00  0.00     0.019 A 
ENDBRANCH   1   7
BRANCH   5  14
ATOM     14  C   UNL d   1       1.494  -2.127   0.033  0.00  0.00    -0.001 A 
ATOM     15  C   UNL d   1       2.875  -1.877   0.027  0.00  0.00     0.015 A 
ATOM     16  C   UNL d   1       3.797  -2.929   0.096  0.00  0.00     0.020 A 
ATOM     17  C   UNL d   1       3.341  -4.242   0.169  0.00  0.00     0.011 A 
ATOM     18  C   UNL d   1       1.977  -4.514   0.165  0.00  0.00     0.020 A 
ATOM     19 BR   UNL d   1       4.580  -5.665   0.283  0.00  0.00    -0.051 Br
ATOM     20  C   UNL d   1       1.060  -3.461   0.095  0.00  0.00     0.015 A 
ENDBRANCH   5  14
TORSDOF 2
