REMARK  6 active torsions:
REMARK  status: ('A' for Active; 'I' for Inactive)
REMARK       I    between atoms: C_2  and  N_4 
REMARK       I    between atoms: N_11  and  C_2 
REMARK    1  A    between atoms: N_4  and  C_3 
REMARK       I    between atoms: C_5  and  N_12 
REMARK    2  A    between atoms: O_6  and  C_5 
REMARK    3  A    between atoms: C_10  and  O_6 
REMARK    4  A    between atoms: C_19  and  N_11 
REMARK    5  A    between atoms: N_12  and  C_18 
REMARK    6  A    between atoms: C_18  and  C_19 
ROOT
ATOM      1  C   UNL d   1       1.450   4.804   2.169  0.00  0.00     0.320 C 
ATOM      2  N   UNL d   1       2.263   4.764   3.278  0.00  0.00    -0.307 N 
ATOM      3  O   UNL d   1       0.254   4.515   2.149  0.00  0.00    -0.247 OA
ATOM      4  N   UNL d   1       2.135   5.206   1.050  0.00  0.00    -0.341 N 
ATOM      5  H   UNL d   1       2.947   5.514   3.317  0.00  0.00     0.170 HD
ATOM      6  H   UNL d   1       2.991   5.716   1.241  0.00  0.00     0.164 HD
ENDROOT
BRANCH   4   7
ATOM      7  C   UNL d   1       1.433   5.608  -0.154  0.00  0.00     0.144 C 
BRANCH   7   8
ATOM      8  C   UNL d   1       1.031   7.092  -0.133  0.00  0.00     0.144 C 
BRANCH   8   9
ATOM      9  N   UNL d   1       2.136   8.041  -0.237  0.00  0.00    -0.335 N 
ATOM     10  C   UNL d   1       3.084   8.229   0.717  0.00  0.00     0.361 C 
ATOM     11  O   UNL d   1       3.310   7.465   1.651  0.00  0.00    -0.238 OA
ATOM     12  H   UNL d   1       2.055   8.804  -0.895  0.00  0.00     0.164 HD
BRANCH  10  13
ATOM     13  O   UNL d   1       3.762   9.370   0.461  0.00  0.00    -0.294 OA
BRANCH  13  14
ATOM     14  C   UNL d   1       4.920   9.729   1.272  0.00  0.00     0.061 C 
ATOM     15  C   UNL d   1       5.982   8.622   1.215  0.00  0.00     0.046 C 
ATOM     16  C   UNL d   1       5.475  11.016   0.632  0.00  0.00     0.046 C 
ATOM     17  C   UNL d   1       4.515  10.043   2.719  0.00  0.00     0.046 C 
ENDBRANCH  13  14
ENDBRANCH  10  13
ENDBRANCH   8   9
ENDBRANCH   7   8
ENDBRANCH   4   7
BRANCH   2  18
ATOM     18  C   UNL d   1       1.846   4.234   4.522  0.00  0.00     0.059 A 
ATOM     19  C   UNL d   1       2.219   4.864   5.722  0.00  0.00     0.082 A 
ATOM     20  C   UNL d   1       1.800   4.323   6.947  0.00  0.00     0.058 A 
ATOM     21 CL   UNL d   1       3.137   6.338   5.657  0.00  0.00    -0.080 Cl
ATOM     22 CL   UNL d   1       2.172   5.063   8.465  0.00  0.00    -0.082 Cl
ATOM     23  C   UNL d   1       1.042   3.147   6.976  0.00  0.00     0.026 A 
ATOM     24  C   UNL d   1       0.692   2.511   5.787  0.00  0.00     0.004 A 
ATOM     25  C   UNL d   1       1.088   3.055   4.566  0.00  0.00     0.031 A 
ENDBRANCH   2  18
TORSDOF 6
