REMARK  6 active torsions:
REMARK  status: ('A' for Active; 'I' for Inactive)
REMARK    1  A    between atoms: C_3  and  N_1 
REMARK    2  A    between atoms: N_2  and  C_4 
REMARK    3  A    between atoms: C_7  and  C_5 
REMARK    4  A    between atoms: O_13  and  C_7 
REMARK    5  A    between atoms: C_19  and  O_13 
REMARK    6  A    between atoms: C_16  and  C_19 
ROOT
ATOM      1  C   UNL d   1      -3.756  -0.970   2.885  0.00  0.00     0.293 C 
ATOM      2  O   UNL d   1      -2.817  -1.651   3.265  0.00  0.00    -0.259 OA
ENDROOT
BRANCH   1   3
ATOM      3  C   UNL d   1      -4.687  -0.285   3.832  0.00  0.00     0.044 A 
ATOM      4  C   UNL d   1      -5.537   0.759   3.436  0.00  0.00     0.053 A 
ATOM      5  C   UNL d   1      -6.400   1.356   4.375  0.00  0.00     0.106 A 
ATOM      6  C   UNL d   1      -6.412   0.936   5.712  0.00  0.00     0.072 A 
ATOM      7  C   UNL d   1      -5.543  -0.089   6.103  0.00  0.00     0.106 A 
ATOM      8  C   UNL d   1      -4.681  -0.697   5.175  0.00  0.00     0.053 A 
BRANCH   5   9
ATOM      9  N   UNL d   1      -7.308   2.433   3.953  0.00  0.00    -0.116 N 
ATOM     10  O   UNL d   1      -8.161   2.815   4.760  0.00  0.00    -0.532 OA
ATOM     11  O   UNL d   1      -7.157   2.894   2.814  0.00  0.00    -0.532 OA
ENDBRANCH   5   9
BRANCH   7  12
ATOM     12  N   UNL d   1      -5.531  -0.531   7.505  0.00  0.00    -0.116 N 
ATOM     13  O   UNL d   1      -6.311   0.030   8.289  0.00  0.00    -0.532 OA
ATOM     14  O   UNL d   1      -4.745  -1.433   7.819  0.00  0.00    -0.532 OA
ENDBRANCH   7  12
ENDBRANCH   1   3
BRANCH   1  15
ATOM     15  O   UNL d   1      -4.108  -0.737   1.605  0.00  0.00    -0.313 OA
BRANCH  15  16
ATOM     16  C   UNL d   1      -3.265  -1.274   0.563  0.00  0.00     0.218 C 
BRANCH  16  17
ATOM     17  C   UNL d   1      -3.708  -2.621   0.005  0.00  0.00    -0.021 C 
ATOM     18  C   UNL d   1      -5.067  -3.081  -0.040  0.00  0.00    -0.000 C 
ATOM     19  C   UNL d   1      -6.269  -2.317   0.076  0.00  0.00     0.022 C 
ATOM     20  C   UNL d   1      -5.252  -4.481  -0.200  0.00  0.00    -0.024 C 
ATOM     21 BR   UNL d   1      -6.372  -0.465  -0.383  0.00  0.00    -0.050 Br
ATOM     22  C   UNL d   1      -7.503  -2.922   0.344  0.00  0.00     0.020 C 
ATOM     23  C   UNL d   1      -7.593  -4.302   0.431  0.00  0.00     0.002 C 
ATOM     24  C   UNL d   1      -6.492  -5.073   0.082  0.00  0.00     0.012 C 
ATOM     25  C   UNL d   1      -4.199  -5.305  -0.620  0.00  0.00     0.012 C 
ATOM     26  C   UNL d   1      -2.917  -4.798  -0.771  0.00  0.00     0.002 C 
ATOM     27  C   UNL d   1      -2.665  -3.483  -0.407  0.00  0.00     0.010 C 
ENDBRANCH  16  17
ENDBRANCH  15  16
ENDBRANCH   1  15
TORSDOF 6
