REMARK  3 active torsions:
REMARK  status: ('A' for Active; 'I' for Inactive)
REMARK    1  A    between atoms: N_2  and  S_1 
REMARK    2  A    between atoms: C_3  and  S_1 
REMARK    3  A    between atoms: C_8  and  N_2 
ROOT
ATOM      1  N   UNL d   1       4.299   3.162  -5.079  0.00  0.00    -0.191 NA
ATOM      2  C   UNL d   1       3.345   3.052  -4.429  0.00  0.00     0.099 C 
ATOM      3  C   UNL d   1       0.699   1.615  -2.223  0.00  0.00     0.044 A 
ATOM      4  C   UNL d   1       2.152   2.927  -3.640  0.00  0.00     0.046 A 
ATOM      5  C   UNL d   1       1.879   1.737  -2.957  0.00  0.00     0.052 A 
ATOM      6  C   UNL d   1       0.072   3.867  -2.822  0.00  0.00     0.004 A 
ATOM      7  C   UNL d   1      -0.206   2.674  -2.155  0.00  0.00     0.030 A 
ATOM      8  C   UNL d   1       1.246   3.992  -3.568  0.00  0.00     0.023 A 
ENDROOT
BRANCH   3   9
ATOM      9  N   UNL d   1       0.391   0.394  -1.583  0.00  0.00    -0.281 N 
ATOM     10  H   UNL d   1      -0.400  -0.167  -1.894  0.00  0.00     0.179 HD
BRANCH   9  11
ATOM     11  S   UNL d   1       1.036   0.006  -0.088  0.00  0.00     0.263 S 
ATOM     12  O   UNL d   1       2.470   0.196  -0.131  0.00  0.00    -0.200 OA
ATOM     13  O   UNL d   1       0.455  -1.266   0.285  0.00  0.00    -0.200 OA
BRANCH  11  14
ATOM     14  C   UNL d   1       0.347   1.239   0.999  0.00  0.00     0.080 A 
ATOM     15  C   UNL d   1      -0.917   1.032   1.565  0.00  0.00     0.027 A 
ATOM     16  C   UNL d   1      -1.427   1.962   2.475  0.00  0.00     0.025 A 
ATOM     17  C   UNL d   1      -0.669   3.083   2.821  0.00  0.00     0.034 A 
ATOM     18  C   UNL d   1       0.593   3.285   2.262  0.00  0.00     0.025 A 
ATOM     19 CL   UNL d   1      -1.291   4.214   3.959  0.00  0.00    -0.084 Cl
ATOM     20  C   UNL d   1       1.108   2.359   1.350  0.00  0.00     0.027 A 
ENDBRANCH  11  14
ENDBRANCH   9  11
ENDBRANCH   3   9
TORSDOF 3
