REMARK  8 active torsions:
REMARK  status: ('A' for Active; 'I' for Inactive)
REMARK       I    between atoms: N_4  and  C_1 
REMARK    1  A    between atoms: C_5  and  C_1 
REMARK       I    between atoms: C_2  and  N_3 
REMARK    2  A    between atoms: C_6  and  C_2 
REMARK    3  A    between atoms: N_3  and  C_16 
REMARK    4  A    between atoms: C_15  and  N_4 
REMARK    5  A    between atoms: O_9  and  C_20 
REMARK    6  A    between atoms: C_18  and  O_9 
REMARK    7  A    between atoms: O_10  and  C_19 
REMARK    8  A    between atoms: C_17  and  O_10 
ROOT
ATOM      1  C   UNL d   1       3.615  -4.607   4.936  0.00  0.00     0.076 A 
ATOM      2  C   UNL d   1       5.849  -3.996   6.493  0.00  0.00     0.076 A 
ATOM      3  C   UNL d   1       3.502  -3.701   5.997  0.00  0.00     0.040 A 
ATOM      4  C   UNL d   1       4.807  -5.305   4.743  0.00  0.00     0.040 A 
ATOM      5  C   UNL d   1       4.622  -3.388   6.768  0.00  0.00     0.040 A 
ATOM      6  C   UNL d   1       5.926  -5.000   5.525  0.00  0.00     0.040 A 
ENDROOT
BRANCH   1   7
ATOM      7  O   UNL d   1       2.587  -4.862   4.051  0.00  0.00    -0.311 OA
BRANCH   7   8
ATOM      8  C   UNL d   1       1.824  -3.792   3.629  0.00  0.00     0.076 A 
ATOM      9  C   UNL d   1       2.338  -2.511   3.413  0.00  0.00     0.039 A 
ATOM     10  C   UNL d   1       1.480  -1.451   3.109  0.00  0.00     0.032 A 
ATOM     11  C   UNL d   1       0.105  -1.668   2.969  0.00  0.00     0.035 A 
ATOM     12  C   UNL d   1      -0.384  -2.974   3.070  0.00  0.00     0.032 A 
ATOM     13  C   UNL d   1       0.472  -4.032   3.400  0.00  0.00     0.039 A 
BRANCH  11  14
ATOM     14  N   UNL d   1      -0.708  -0.535   2.743  0.00  0.00    -0.323 N 
ATOM     15  C   UNL d   1      -2.090  -0.497   2.761  0.00  0.00     0.256 C 
ATOM     16  O   UNL d   1      -2.843  -1.431   3.010  0.00  0.00    -0.267 OA
ATOM     17  H   UNL d   1      -0.219   0.349   2.688  0.00  0.00     0.169 HD
BRANCH  15  18
ATOM     18  C   UNL d   1      -2.705   0.837   2.497  0.00  0.00     0.032 A 
ATOM     19  C   UNL d   1      -2.123   1.773   1.632  0.00  0.00     0.018 A 
ATOM     20  C   UNL d   1      -2.774   2.986   1.379  0.00  0.00     0.025 A 
ATOM     21  C   UNL d   1      -4.002   3.260   1.984  0.00  0.00     0.034 A 
ATOM     22  C   UNL d   1      -4.586   2.335   2.846  0.00  0.00     0.025 A 
ATOM     23 CL   UNL d   1      -4.810   4.740   1.645  0.00  0.00    -0.084 Cl
ATOM     24  C   UNL d   1      -3.939   1.123   3.100  0.00  0.00     0.018 A 
ENDBRANCH  15  18
ENDBRANCH  11  14
ENDBRANCH   7   8
ENDBRANCH   1   7
BRANCH   2  25
ATOM     25  O   UNL d   1       7.007  -3.680   7.173  0.00  0.00    -0.311 OA
BRANCH  25  26
ATOM     26  C   UNL d   1       7.306  -2.347   7.369  0.00  0.00     0.076 A 
ATOM     27  C   UNL d   1       8.011  -2.019   8.527  0.00  0.00     0.039 A 
ATOM     28  C   UNL d   1       8.328  -0.680   8.813  0.00  0.00     0.032 A 
ATOM     29  C   UNL d   1       7.949   0.347   7.939  0.00  0.00     0.035 A 
ATOM     30  C   UNL d   1       7.288  -0.003   6.758  0.00  0.00     0.032 A 
ATOM     31  C   UNL d   1       6.985  -1.337   6.463  0.00  0.00     0.039 A 
BRANCH  29  32
ATOM     32  N   UNL d   1       8.230   1.688   8.314  0.00  0.00    -0.323 N 
ATOM     33  C   UNL d   1       7.955   2.814   7.550  0.00  0.00     0.256 C 
ATOM     34  O   UNL d   1       7.550   2.819   6.393  0.00  0.00    -0.267 OA
ATOM     35  H   UNL d   1       8.694   1.817   9.200  0.00  0.00     0.169 HD
BRANCH  33  36
ATOM     36  C   UNL d   1       8.172   4.147   8.183  0.00  0.00     0.032 A 
ATOM     37  C   UNL d   1       8.434   5.229   7.326  0.00  0.00     0.018 A 
ATOM     38  C   UNL d   1       8.502   6.532   7.820  0.00  0.00     0.025 A 
ATOM     39  C   UNL d   1       8.305   6.760   9.178  0.00  0.00     0.034 A 
ATOM     40  C   UNL d   1       8.066   5.693  10.046  0.00  0.00     0.025 A 
ATOM     41 CL   UNL d   1       8.315   8.372   9.779  0.00  0.00    -0.084 Cl
ATOM     42  C   UNL d   1       7.999   4.382   9.553  0.00  0.00     0.018 A 
ENDBRANCH  33  36
ENDBRANCH  29  32
ENDBRANCH  25  26
ENDBRANCH   2  25
TORSDOF 8
