REMARK  3 active torsions:
REMARK  status: ('A' for Active; 'I' for Inactive)
REMARK    1  A    between atoms: C_3  and  C_1 
REMARK    2  A    between atoms: C_13  and  N_2 
REMARK    3  A    between atoms: N_15  and  C_8 
ROOT
ATOM      1  C   UNL d   1      -0.393  -2.860  -0.052  0.00  0.00     0.048 A 
ATOM      2  C   UNL d   1       0.085  -3.664   1.002  0.00  0.00     0.034 A 
ATOM      3  C   UNL d   1      -0.152  -5.071   0.964  0.00  0.00     0.013 A 
ATOM      4  C   UNL d   1      -0.950  -3.514  -1.145  0.00  0.00     0.105 A 
ATOM      5  N   UNL d   1      -1.150  -4.846  -1.226  0.00  0.00    -0.364 N 
ATOM      6  HN  UNL d   1      -1.577  -5.263  -2.053  1.00  0.00     0.165 HD
ATOM      7  C   UNL d   1      -0.774  -5.601  -0.191  0.00  0.00     0.044 A 
ATOM      8  C   UNL d   1       0.205  -5.972   2.000  0.00  0.00     0.015 A 
ATOM      9  C   UNL d   1      -1.012  -6.965  -0.273  0.00  0.00     0.030 A 
ATOM     10  C   UNL d   1      -0.035  -7.341   1.890  0.00  0.00     0.001 A 
ATOM     11  C   UNL d   1      -0.648  -7.840   0.750  0.00  0.00     0.002 A 
ENDROOT
BRANCH   1  12
ATOM     12  C   UNL d   1      -0.231  -1.403  -0.063  0.00  0.00     0.152 C 
ATOM     13  N   UNL d   1      -1.115  -0.457  -0.578  0.00  0.00    -0.224 N 
ATOM     14  N   UNL d   1      -0.442   0.711  -0.716  0.00  0.00     0.001 NA
ATOM     15  N   UNL d   1       0.722   0.533  -0.114  0.00  0.00    -0.007 NA
ATOM     16  N   UNL d   1       0.867  -0.761   0.303  0.00  0.00    -0.269 N 
ATOM     17  HN  UNL d   1       1.665  -1.155   0.800  1.00  0.00     0.185 HD
BRANCH  13  18
ATOM     18  C   UNL d   1      -2.476  -0.567  -0.950  0.00  0.00     0.056 A 
ATOM     19  C   UNL d   1      -3.322  -1.490  -0.321  0.00  0.00     0.031 A 
ATOM     20  C   UNL d   1      -4.644  -1.623  -0.748  0.00  0.00     0.002 A 
ATOM     21  C   UNL d   1      -5.123  -0.841  -1.798  0.00  0.00     0.000 A 
ATOM     22  C   UNL d   1      -4.291   0.099  -2.406  0.00  0.00     0.002 A 
ATOM     23  C   UNL d   1      -2.974   0.254  -1.971  0.00  0.00     0.031 A 
ENDBRANCH  13  18
ENDBRANCH   1  12
BRANCH   2  24
ATOM     24  N   UNL d   1       0.595  -3.051   2.181  0.00  0.00    -0.301 NA
ATOM     25  H   UNL d   1       0.992  -2.127   1.995  0.00  0.00     0.124 HD
ATOM     26  H   UNL d   1       1.273  -3.626   2.671  0.00  0.00     0.124 HD
ENDBRANCH   2  24
TORSDOF 3
