REMARK  0 active torsions:
REMARK  status: ('A' for Active; 'I' for Inactive)
ROOT
ATOM      1  C   UNL d   1       0.471  -1.404  -0.127  0.00  0.00    -0.002 C 
ATOM      2  C   UNL d   1      -0.852  -1.164  -0.144  0.00  0.00    -0.002 C 
ATOM      3  C   UNL d   1       0.932   1.118  -0.128  0.00  0.00    -0.002 C 
ATOM      4  C   UNL d   1      -0.391   1.356  -0.143  0.00  0.00    -0.002 C 
ATOM      5  C   UNL d   1       1.443  -0.276  -0.017  0.00  0.00     0.185 C 
ATOM      6  C   UNL d   1      -1.365   0.234  -0.058  0.00  0.00     0.185 C 
ATOM      7  O   UNL d   1       2.639  -0.500   0.141  0.00  0.00    -0.287 OA
ATOM      8  O   UNL d   1      -2.566   0.458   0.052  0.00  0.00    -0.287 OA
ATOM      9  C   UNL d   1       1.130  -2.753  -0.206  0.00  0.00     0.053 C 
ATOM     10  C   UNL d   1      -1.942  -2.195  -0.241  0.00  0.00     0.053 C 
ATOM     11  C   UNL d   1       1.968   2.204  -0.211  0.00  0.00     0.053 C 
ATOM     12  C   UNL d   1      -1.021   2.717  -0.244  0.00  0.00     0.053 C 
ENDROOT
TORSDOF 0
