REMARK  4 active torsions:
REMARK  status: ('A' for Active; 'I' for Inactive)
REMARK    1  A    between atoms: C_3  and  N_1 
REMARK    2  A    between atoms: C_5  and  C_2 
REMARK    3  A    between atoms: C_16  and  N_7 
REMARK    4  A    between atoms: O_18  and  C_12 
ROOT
ATOM      1  C   UNL d   1      -6.114  -1.284   5.976  0.00  0.00    -0.078 C 
ATOM      2  C   UNL d   1      -6.175  -2.394   6.427  0.00  0.00     0.018 C 
ATOM      3  C   UNL d   1      -6.022   0.026   5.411  0.00  0.00     0.019 A 
ATOM      4  C   UNL d   1      -4.760   1.663   4.130  0.00  0.00     0.033 A 
ATOM      5  C   UNL d   1      -4.861   0.402   4.727  0.00  0.00     0.050 A 
ATOM      6  C   UNL d   1      -6.987   2.191   4.964  0.00  0.00     0.004 A 
ATOM      7  C   UNL d   1      -7.084   0.923   5.534  0.00  0.00     0.021 A 
ATOM      8  C   UNL d   1      -5.832   2.552   4.265  0.00  0.00     0.029 A 
ENDROOT
BRANCH   4   9
ATOM      9  N   UNL d   1      -3.614   2.124   3.459  0.00  0.00    -0.365 N 
ATOM     10  C   UNL d   1      -2.883   1.302   2.777  0.00  0.00     0.102 C 
ATOM     11  HN  UNL d   1      -3.358   3.109   3.511  1.00  0.00     0.165 HD
BRANCH  10  12
ATOM     12  C   UNL d   1      -1.667   1.770   2.076  0.00  0.00     0.015 A 
ATOM     13  C   UNL d   1      -1.362   3.136   2.066  0.00  0.00     0.051 A 
ATOM     14  C   UNL d   1      -0.215   3.578   1.398  0.00  0.00     0.103 A 
ATOM     15  C   UNL d   1       0.626   2.666   0.743  0.00  0.00     0.039 A 
ATOM     16  C   UNL d   1       0.317   1.302   0.760  0.00  0.00     0.040 A 
ATOM     17  C   UNL d   1      -0.827   0.858   1.425  0.00  0.00     0.077 A 
BRANCH  14  18
ATOM     18  N   UNL d   1       0.110   5.010   1.380  0.00  0.00    -0.116 N 
ATOM     19  O   UNL d   1      -0.652   5.785   1.972  0.00  0.00    -0.532 OA
ATOM     20  O   UNL d   1       1.131   5.357   0.770  0.00  0.00    -0.532 OA
ENDBRANCH  14  18
BRANCH  17  21
ATOM     21  O   UNL d   1      -1.121  -0.477   1.444  0.00  0.00    -0.360 OA
ATOM     22  H   UNL d   1      -0.439  -0.970   0.956  0.00  0.00     0.217 HD
ENDBRANCH  17  21
ENDBRANCH  10  12
ENDBRANCH   4   9
TORSDOF 4
