REMARK  7 active torsions:
REMARK  status: ('A' for Active; 'I' for Inactive)
REMARK    1  A    between atoms: C_6  and  C_1 
REMARK    2  A    between atoms: N_2  and  C_4 
REMARK       I    between atoms: C_5  and  N_2 
REMARK    3  A    between atoms: N_7  and  C_3 
REMARK    4  A    between atoms: C_4  and  N_8 
REMARK    5  A    between atoms: C_14  and  C_5 
REMARK    6  A    between atoms: O_18  and  C_6 
REMARK    7  A    between atoms: N_8  and  C_12 
ROOT
ATOM      1  C   UNL d   1       1.552  -0.221   0.166  0.00  0.00     0.068 C 
ATOM      2  C   UNL d   1       0.758  -1.347  -0.169  0.00  0.00     0.046 C 
ATOM      3  C   UNL d   1       0.975   1.059   0.315  0.00  0.00     0.049 C 
ATOM      4  C   UNL d   1      -0.579  -1.050  -0.522  0.00  0.00     0.032 C 
ATOM      5  C   UNL d   1      -0.378   1.277   0.092  0.00  0.00     0.035 C 
ATOM      6  C   UNL d   1      -1.133   0.239  -0.427  0.00  0.00     0.032 C 
ENDROOT
BRANCH   5   7
ATOM      7  N   UNL d   1      -0.986   2.524   0.344  0.00  0.00    -0.333 N 
ATOM      8  H   UNL d   1      -1.848   2.729  -0.165  0.00  0.00     0.168 HD
BRANCH   7   9
ATOM      9  C   UNL d   1      -0.776   3.337   1.436  0.00  0.00     0.179 C 
ATOM     10  S   UNL d   1       0.088   3.007   2.837  0.00  0.00    -0.040 SA
BRANCH   9  11
ATOM     11  N   UNL d   1      -1.368   4.581   1.387  0.00  0.00    -0.299 N 
ATOM     12  C   UNL d   1      -2.190   5.130   0.417  0.00  0.00     0.257 C 
ATOM     13  O   UNL d   1      -2.748   4.481  -0.462  0.00  0.00    -0.267 OA
ATOM     14  H   UNL d   1      -1.145   5.152   2.192  0.00  0.00     0.171 HD
BRANCH  12  15
ATOM     15  C   UNL d   1      -2.446   6.586   0.581  0.00  0.00     0.032 A 
ATOM     16  C   UNL d   1      -1.420   7.460   0.967  0.00  0.00     0.017 A 
ATOM     17  C   UNL d   1      -1.689   8.820   1.130  0.00  0.00     0.001 A 
ATOM     18  C   UNL d   1      -2.977   9.307   0.908  0.00  0.00     0.000 A 
ATOM     19  C   UNL d   1      -3.996   8.440   0.513  0.00  0.00     0.001 A 
ATOM     20  C   UNL d   1      -3.732   7.079   0.342  0.00  0.00     0.017 A 
ENDBRANCH  12  15
ENDBRANCH   9  11
ENDBRANCH   7   9
ENDBRANCH   5   7
BRANCH   1  21
ATOM     21  C   UNL d   1       3.042  -0.269   0.262  0.00  0.00     0.295 C 
ATOM     22  O   UNL d   1       3.776  -0.940  -0.436  0.00  0.00    -0.259 OA
BRANCH  21  23
ATOM     23  O   UNL d   1       3.441   0.552   1.272  0.00  0.00    -0.322 OA
ATOM     24  C   UNL d   1       4.852   0.665   1.462  0.00  0.00     0.213 C 
ENDBRANCH  21  23
ENDBRANCH   1  21
BRANCH   2  25
ATOM     25  N   UNL d   1       1.230  -2.661  -0.198  0.00  0.00    -0.376 N 
ATOM     26  C   UNL d   1       2.114  -3.145   0.894  0.00  0.00     0.149 C 
ATOM     27  C   UNL d   1       3.007  -4.266   0.338  0.00  0.00     0.187 C 
ATOM     28  O   UNL d   1       2.203  -5.370  -0.118  0.00  0.00    -0.388 OA
ATOM     29  C   UNL d   1       1.318  -4.934  -1.163  0.00  0.00     0.187 C 
ATOM     30  C   UNL d   1       0.404  -3.777  -0.715  0.00  0.00     0.149 C 
ENDBRANCH   2  25
TORSDOF 7
