REMARK  4 active torsions:
REMARK  status: ('A' for Active; 'I' for Inactive)
REMARK    1  A    between atoms: C_2  and  S_1 
REMARK    2  A    between atoms: N_7  and  S_1 
REMARK    3  A    between atoms: C_10  and  C_3 
REMARK    4  A    between atoms: C_5  and  C_11 
ROOT
ATOM      1  C   UNL d   1       0.718  -0.496   1.848  0.00  0.00     0.116 C 
ATOM      2  S   UNL d   1       1.389   0.368   3.159  0.00  0.00    -0.075 SA
ATOM      3  C   UNL d   1       0.291  -0.325   4.267  0.00  0.00     0.035 C 
ATOM      4  C   UNL d   1      -0.180  -1.451   2.289  0.00  0.00     0.034 C 
ATOM      5  C   UNL d   1      -0.442  -1.341   3.689  0.00  0.00     0.023 C 
ENDROOT
BRANCH   1   6
ATOM      6  S   UNL d   1       1.236  -0.016   0.212  0.00  0.00     0.250 S 
ATOM      7  O   UNL d   1       0.852  -1.147  -0.613  0.00  0.00    -0.205 OA
ATOM      8  O   UNL d   1       2.614   0.403   0.312  0.00  0.00    -0.205 OA
BRANCH   6   9
ATOM      9  N   UNL d   1       0.260   1.311  -0.234  0.00  0.00    -0.203 NA
ATOM     10  C   UNL d   1       0.579   2.635   0.380  0.00  0.00     0.138 C 
ATOM     11  C   UNL d   1       1.770   3.327  -0.313  0.00  0.00     0.287 C 
ATOM     12  N   UNL d   1       1.615   3.440  -1.778  0.00  0.00     0.086 N 
ATOM     13  C   UNL d   1       1.249   2.139  -2.379  0.00  0.00     0.287 C 
ATOM     14  C   UNL d   1       2.857   3.934  -2.377  0.00  0.00     0.310 C 
ATOM     15  C   UNL d   1       0.035   1.484  -1.699  0.00  0.00     0.138 C 
ENDBRANCH   6   9
ENDBRANCH   1   6
BRANCH   3  16
ATOM     16  C   UNL d   1       0.133   0.153   5.676  0.00  0.00     0.074 A 
ATOM     17  C   UNL d   1       0.917   1.140   6.314  0.00  0.00     0.077 A 
ATOM     18  C   UNL d   1       0.335   1.298   7.548  0.00  0.00     0.184 A 
ATOM     19  O   UNL d   1      -0.721   0.448   7.654  0.00  0.00    -0.233 OA
ATOM     20  N   UNL d   1      -0.843  -0.283   6.483  0.00  0.00    -0.260 N 
ATOM     21  HN  UNL d   1      -1.534  -1.004   6.278  1.00  0.00     0.195 HD
BRANCH  18  22
ATOM     22  C   UNL d   1       0.613   2.163   8.705  0.00  0.00     0.441 C 
ATOM     23  F   UNL d   1       1.700   2.951   8.488  0.00  0.00    -0.164 F 
ATOM     24  F   UNL d   1      -0.420   2.999   8.984  0.00  0.00    -0.164 F 
ATOM     25  F   UNL d   1       0.869   1.452   9.832  0.00  0.00    -0.164 F 
ENDBRANCH  18  22
ENDBRANCH   3  16
TORSDOF 4
