REMARK  4 active torsions:
REMARK  status: ('A' for Active; 'I' for Inactive)
REMARK    1  A    between atoms: N_4  and  C_1 
REMARK    2  A    between atoms: N_7  and  C_1 
REMARK       I    between atoms: C_8  and  N_4 
REMARK    3  A    between atoms: C_11  and  C_8 
REMARK    4  A    between atoms: C_9  and  C_10 
ROOT
ATOM      1  C   UNL d   1       2.036   0.048  -0.167  0.00  0.00     0.364 A 
ATOM      2  C   UNL d   1       1.042   1.225   0.024  0.00  0.00     0.228 A 
ATOM      3  C   UNL d   1       1.110  -1.198  -0.128  0.00  0.00     0.228 A 
ATOM      4  C   UNL d   1      -0.299   0.660   0.193  0.00  0.00     0.029 A 
ATOM      5  C   UNL d   1      -0.269  -0.725   0.072  0.00  0.00     0.029 A 
ATOM      6  O   UNL d   1       1.260   2.423   0.030  0.00  0.00    -0.287 OA
ATOM      7  O   UNL d   1       1.406  -2.374  -0.245  0.00  0.00    -0.287 OA
ATOM      8  C   UNL d   1      -1.431  -1.476   0.126  0.00  0.00     0.016 A 
ATOM      9  C   UNL d   1      -1.480   1.348   0.413  0.00  0.00     0.016 A 
ATOM     10  C   UNL d   1      -2.638  -0.795   0.319  0.00  0.00     0.001 A 
ATOM     11  C   UNL d   1      -2.661   0.604   0.474  0.00  0.00     0.001 A 
ENDROOT
BRANCH   1  12
ATOM     12  N   UNL d   1       2.785   0.067  -1.408  0.00  0.00    -0.309 N 
ATOM     13  C   UNL d   1       2.157   0.097  -2.630  0.00  0.00     0.254 C 
ATOM     14  O   UNL d   1       0.937   0.091  -2.756  0.00  0.00    -0.268 OA
ATOM     15  H   UNL d   1       3.715  -0.321  -1.352  0.00  0.00     0.166 HD
BRANCH  13  16
ATOM     16  C   UNL d   1       3.032   0.168  -3.830  0.00  0.00     0.032 A 
ATOM     17  C   UNL d   1       2.585  -0.391  -5.034  0.00  0.00     0.018 A 
ATOM     18  C   UNL d   1       3.299  -0.176  -6.218  0.00  0.00     0.017 A 
ATOM     19  C   UNL d   1       4.458   0.614  -6.218  0.00  0.00     0.048 A 
ATOM     20  C   UNL d   1       4.927   1.127  -4.997  0.00  0.00     0.017 A 
ATOM     21  C   UNL d   1       4.221   0.905  -3.809  0.00  0.00     0.018 A 
BRANCH  19  22
ATOM     22  C   UNL d   1       5.164   0.973  -7.506  0.00  0.00     0.417 C 
ATOM     23  F   UNL d   1       4.595   0.423  -8.615  0.00  0.00    -0.166 F 
ATOM     24  F   UNL d   1       5.177   2.318  -7.726  0.00  0.00    -0.166 F 
ATOM     25  F   UNL d   1       6.467   0.581  -7.519  0.00  0.00    -0.166 F 
ENDBRANCH  19  22
ENDBRANCH  13  16
ENDBRANCH   1  12
BRANCH   1  26
ATOM     26  N   UNL d   1       3.075  -0.000   0.918  0.00  0.00     0.134 N 
ATOM     27  C   UNL d   1       2.500  -0.241   2.258  0.00  0.00     0.277 C 
ATOM     28  C   UNL d   1       3.568  -0.344   3.352  0.00  0.00     0.030 C 
ATOM     29  C   UNL d   1       4.462   0.885   3.373  0.00  0.00     0.003 C 
ATOM     30  C   UNL d   1       5.045   1.113   1.988  0.00  0.00     0.030 C 
ATOM     31  C   UNL d   1       3.933   1.208   0.940  0.00  0.00     0.277 C 
ENDBRANCH   1  26
TORSDOF 4
