REMARK  4 active torsions:
REMARK  status: ('A' for Active; 'I' for Inactive)
REMARK    1  A    between atoms: C_6  and  C_1 
REMARK    2  A    between atoms: C_9  and  N_2 
REMARK    3  A    between atoms: C_8  and  C_4 
REMARK       I    between atoms: N_7  and  C_6 
REMARK    4  A    between atoms: C_13  and  N_7 
ROOT
ATOM      1  C   UNL d   1      -0.211   1.110  -0.024  0.00  0.00     0.057 C 
ATOM      2  N   UNL d   1       0.924  -0.860   0.233  0.00  0.00    -0.314 N 
ATOM      3  C   UNL d   1       1.032   0.546   0.288  0.00  0.00     0.029 C 
ATOM      4  C   UNL d   1      -0.448  -1.169   0.122  0.00  0.00     0.051 C 
ATOM      5  C   UNL d   1      -1.122   0.026  -0.085  0.00  0.00     0.050 C 
ATOM      6  C   UNL d   1       2.320   1.282   0.517  0.00  0.00     0.070 C 
ENDROOT
BRANCH   1   7
ATOM      7  C   UNL d   1      -0.483   2.559  -0.207  0.00  0.00     0.258 C 
ATOM      8  N   UNL d   1      -1.808   2.898  -0.430  0.00  0.00    -0.323 N 
ATOM      9  H   UNL d   1      -2.474   2.144  -0.501  0.00  0.00     0.169 HD
ATOM     10  O   UNL d   1       0.429   3.385  -0.163  0.00  0.00    -0.267 OA
BRANCH   8  11
ATOM     11  C   UNL d   1      -2.358   4.205  -0.426  0.00  0.00     0.035 A 
ATOM     12  C   UNL d   1      -1.603   5.370  -0.267  0.00  0.00     0.030 A 
ATOM     13  C   UNL d   1      -2.225   6.611  -0.096  0.00  0.00     0.009 A 
ATOM     14  C   UNL d   1      -3.617   6.715  -0.099  0.00  0.00    -0.062 A 
ATOM     15  C   UNL d   1      -4.375   5.566  -0.343  0.00  0.00     0.009 A 
ATOM     16  C   UNL d   1      -4.270   8.015   0.262  0.00  0.00     0.048 C 
ATOM     17  C   UNL d   1      -3.749   4.324  -0.515  0.00  0.00     0.030 A 
ENDBRANCH   8  11
ENDBRANCH   1   7
BRANCH   2  18
ATOM     18  C   UNL d   1       1.998  -1.828   0.249  0.00  0.00     0.039 A 
ATOM     19  C   UNL d   1       3.130  -1.676   1.060  0.00  0.00     0.030 A 
ATOM     20  C   UNL d   1       4.107  -2.678   1.132  0.00  0.00     0.002 A 
ATOM     21  C   UNL d   1       3.952  -3.863   0.421  0.00  0.00     0.000 A 
ATOM     22  C   UNL d   1       2.844  -4.026  -0.403  0.00  0.00     0.002 A 
ATOM     23  C   UNL d   1       1.893  -3.004  -0.513  0.00  0.00     0.030 A 
ENDBRANCH   2  18
BRANCH   4  24
ATOM     24  C   UNL d   1      -1.078  -2.507   0.236  0.00  0.00    -0.009 A 
ATOM     25  C   UNL d   1      -2.153  -2.849  -0.601  0.00  0.00     0.015 A 
ATOM     26  C   UNL d   1      -2.738  -4.119  -0.543  0.00  0.00     0.024 A 
ATOM     27  C   UNL d   1      -2.242  -5.069   0.343  0.00  0.00     0.034 A 
ATOM     28  C   UNL d   1      -1.196  -4.744   1.201  0.00  0.00     0.024 A 
ATOM     29 CL   UNL d   1      -2.921  -6.648   0.376  0.00  0.00    -0.084 Cl
ATOM     30  C   UNL d   1      -0.641  -3.460   1.170  0.00  0.00     0.015 A 
ENDBRANCH   4  24
TORSDOF 4
