REMARK  5 active torsions:
REMARK  status: ('A' for Active; 'I' for Inactive)
REMARK    1  A    between atoms: N_8  and  C_3 
REMARK    2  A    between atoms: C_22  and  C_4 
REMARK       I    between atoms: C_7  and  N_9 
REMARK    3  A    between atoms: C_10  and  C_7 
REMARK    4  A    between atoms: O_27  and  C_16 
REMARK    5  A    between atoms: O_28  and  C_24 
ROOT
ATOM      1  C   UNL d   1       0.546  -6.800  -0.189  0.00  0.00     0.254 C 
ATOM      2  N   UNL d   1      -0.885  -2.929   0.208  0.00  0.00    -0.265 NA
ATOM      3  N   UNL d   1      -0.161  -5.689   0.266  0.00  0.00    -0.346 N 
ATOM      4  C   UNL d   1      -1.253  -3.804  -0.931  0.00  0.00     0.117 C 
ATOM      5  C   UNL d   1       0.360  -3.359   0.878  0.00  0.00     0.117 C 
ATOM      6  C   UNL d   1       0.162  -4.801   1.395  0.00  0.00     0.141 C 
ATOM      7  C   UNL d   1      -1.371  -5.270  -0.456  0.00  0.00     0.141 C 
ATOM      8  O   UNL d   1       0.114  -7.536  -1.075  0.00  0.00    -0.267 OA
ENDROOT
BRANCH   2   9
ATOM      9  C   UNL d   1      -0.985  -1.560  -0.059  0.00  0.00     0.103 A 
ATOM     10  C   UNL d   1      -1.116  -0.585   0.950  0.00  0.00     0.070 A 
ATOM     11  S   UNL d   1      -1.094  -0.749   2.662  0.00  0.00    -0.084 SA
ATOM     12  C   UNL d   1      -1.353   0.739   0.600  0.00  0.00     0.054 A 
ATOM     13  C   UNL d   1      -1.423   0.908   2.943  0.00  0.00     0.018 A 
ATOM     14  C   UNL d   1      -1.529   1.581   1.739  0.00  0.00     0.050 A 
ATOM     15  N   UNL d   1      -1.439   1.156  -0.686  0.00  0.00    -0.351 N 
ATOM     16  C   UNL d   1      -1.304   0.176  -1.580  0.00  0.00     0.182 A 
ATOM     17  HN  UNL d   1      -1.593   2.130  -0.946  1.00  0.00     0.166 HD
ATOM     18  N   UNL d   1      -1.095  -1.127  -1.340  0.00  0.00    -0.342 N 
ATOM     19  HN  UNL d   1      -1.021  -1.787  -2.114  1.00  0.00     0.167 HD
BRANCH  13  20
ATOM     20  C   UNL d   1      -1.548   1.431   4.318  0.00  0.00    -0.019 A 
ATOM     21  C   UNL d   1      -1.286   2.786   4.587  0.00  0.00     0.013 A 
ATOM     22  C   UNL d   1      -1.414   3.300   5.881  0.00  0.00     0.001 A 
ATOM     23  C   UNL d   1      -1.805   2.476   6.928  0.00  0.00     0.000 A 
ATOM     24  C   UNL d   1      -2.067   1.130   6.688  0.00  0.00     0.001 A 
ATOM     25  C   UNL d   1      -1.943   0.617   5.393  0.00  0.00     0.013 A 
ENDBRANCH  13  20
ENDBRANCH   2   9
BRANCH   1  26
ATOM     26  C   UNL d   1       1.871  -7.158   0.391  0.00  0.00     0.035 A 
ATOM     27  C   UNL d   1       2.180  -8.518   0.563  0.00  0.00     0.056 A 
ATOM     28  C   UNL d   1       3.416  -8.923   1.096  0.00  0.00     0.102 A 
ATOM     29  C   UNL d   1       4.337  -7.937   1.496  0.00  0.00     0.101 A 
ATOM     30  C   UNL d   1       4.038  -6.586   1.272  0.00  0.00     0.040 A 
ATOM     31  C   UNL d   1       2.838  -6.200   0.683  0.00  0.00     0.020 A 
BRANCH  28  32
ATOM     32  O   UNL d   1       3.764 -10.237   1.258  0.00  0.00    -0.353 OA
ATOM     33  C   UNL d   1       2.928 -11.234   0.684  0.00  0.00     0.210 C 
ENDBRANCH  28  32
BRANCH  29  34
ATOM     34  O   UNL d   1       5.558  -8.086   2.098  0.00  0.00    -0.353 OA
ATOM     35  C   UNL d   1       6.072  -9.391   2.308  0.00  0.00     0.210 C 
ENDBRANCH  29  34
ENDBRANCH   1  26
TORSDOF 5
