REMARK  3 active torsions:
REMARK  status: ('A' for Active; 'I' for Inactive)
REMARK    1  A    between atoms: C_7  and  N_1 
REMARK    2  A    between atoms: C_6  and  C_16 
REMARK    3  A    between atoms: C_16  and  C_7 
ROOT
ATOM      1  C   UNL d   1       3.390   1.417   1.308  0.00  0.00     0.136 C 
ENDROOT
BRANCH   1   2
ATOM      2  N   UNL d   1       1.942   1.450   1.339  0.00  0.00    -0.280 N 
ATOM      3  C   UNL d   1       1.210   2.459   1.909  0.00  0.00     0.261 A 
ATOM      4  C   UNL d   1      -0.192   2.058   1.815  0.00  0.00     0.048 A 
ATOM      5  O   UNL d   1       1.589   3.490   2.428  0.00  0.00    -0.267 OA
ATOM      6  C   UNL d   1      -1.339   2.708   2.224  0.00  0.00     0.018 A 
ATOM      7  C   UNL d   1      -0.231   0.811   1.218  0.00  0.00     0.048 A 
ATOM      8  C   UNL d   1      -2.557   2.057   1.998  0.00  0.00     0.001 A 
ATOM      9  C   UNL d   1      -2.596   0.788   1.382  0.00  0.00     0.001 A 
ATOM     10  C   UNL d   1      -1.419   0.146   0.986  0.00  0.00     0.018 A 
ATOM     11  C   UNL d   1       1.145   0.408   0.946  0.00  0.00     0.261 A 
ATOM     12  O   UNL d   1       1.459  -0.673   0.485  0.00  0.00    -0.267 OA
ENDBRANCH   1   2
BRANCH   1  13
ATOM     13  C   UNL d   1       3.946   1.390  -0.122  0.00  0.00     0.030 C 
BRANCH  13  14
ATOM     14  C   UNL d   1       5.492   1.381  -0.223  0.00  0.00    -0.038 C 
ATOM     15  C   UNL d   1       6.103   0.134   0.466  0.00  0.00     0.014 C 
ATOM     16  C   UNL d   1       7.635   0.129   0.329  0.00  0.00    -0.013 C 
ATOM     17  C   UNL d   1       8.013   0.105  -1.159  0.00  0.00     0.009 C 
ATOM     18  C   UNL d   1       8.201   1.403   0.978  0.00  0.00     0.009 C 
ATOM     19  C   UNL d   1       7.438   1.342  -1.867  0.00  0.00    -0.013 C 
ATOM     20  C   UNL d   1       5.906   1.345  -1.721  0.00  0.00     0.014 C 
ATOM     21  C   UNL d   1       8.013   2.609  -1.215  0.00  0.00     0.009 C 
ATOM     22  C   UNL d   1       7.638   2.649   0.274  0.00  0.00    -0.013 C 
ATOM     23  C   UNL d   1       6.107   2.654   0.413  0.00  0.00     0.014 C 
ENDBRANCH  13  14
ENDBRANCH   1  13
TORSDOF 3
