REMARK  4 active torsions:
REMARK  status: ('A' for Active; 'I' for Inactive)
REMARK    1  A    between atoms: C_2  and  S_1 
REMARK    2  A    between atoms: N_8  and  S_1 
REMARK    3  A    between atoms: C_7  and  C_4 
REMARK    4  A    between atoms: O_13  and  C_7 
ROOT
ATOM      1  C   UNL d   1       0.275  -0.120   1.722  0.00  0.00     0.146 A 
ATOM      2  N   UNL d   1       0.139  -1.320   2.404  0.00  0.00    -0.336 N 
ATOM      3  C   UNL d   1      -0.338  -1.092   3.690  0.00  0.00     0.111 A 
ATOM      4  C   UNL d   1      -0.167   0.873   2.582  0.00  0.00     0.046 A 
ATOM      5  C   UNL d   1      -0.522   0.277   3.803  0.00  0.00     0.039 A 
ATOM      6  C   UNL d   1       0.413  -2.641   1.867  0.00  0.00     0.157 C 
ENDROOT
BRANCH   1   7
ATOM      7  S   UNL d   1       0.865   0.005   0.045  0.00  0.00     0.258 S 
ATOM      8  O   UNL d   1      -0.175  -0.631  -0.733  0.00  0.00    -0.204 OA
ATOM      9  O   UNL d   1       2.218  -0.501   0.083  0.00  0.00    -0.204 OA
BRANCH   7  10
ATOM     10  N   UNL d   1       0.913   1.665  -0.343  0.00  0.00    -0.214 NA
ATOM     11  C   UNL d   1       2.014   2.421   0.293  0.00  0.00     0.129 C 
ATOM     12  C   UNL d   1       0.814   1.951  -1.788  0.00  0.00     0.129 C 
ENDBRANCH   7  10
ENDBRANCH   1   7
BRANCH   3  13
ATOM     13  C   UNL d   1      -0.595  -2.109   4.694  0.00  0.00     0.309 C 
ATOM     14  O   UNL d   1      -0.443  -3.315   4.552  0.00  0.00    -0.258 OA
BRANCH  13  15
ATOM     15  O   UNL d   1      -1.041  -1.515   5.837  0.00  0.00    -0.321 OA
ATOM     16  C   UNL d   1      -1.339  -2.417   6.901  0.00  0.00     0.213 C 
ENDBRANCH  13  15
ENDBRANCH   3  13
TORSDOF 4
