REMARK  3 active torsions:
REMARK  status: ('A' for Active; 'I' for Inactive)
REMARK    1  A    between atoms: N_3  and  C_1 
REMARK    2  A    between atoms: C_2  and  C_6 
REMARK    3  A    between atoms: C_7  and  N_5 
ROOT
ATOM      1  N   UNL d   1       3.687  -1.432   0.144  0.00  0.00    -0.381 N 
ATOM      2  N   UNL d   1       5.588  -3.306   1.217  0.00  0.00    -0.378 N 
ATOM      3  C   UNL d   1       4.106  -2.599  -0.664  0.00  0.00     0.142 C 
ATOM      4  C   UNL d   1       4.753  -0.977   1.068  0.00  0.00     0.142 C 
ATOM      5  C   UNL d   1       5.182  -2.123   2.001  0.00  0.00     0.143 C 
ATOM      6  C   UNL d   1       4.577  -3.764   0.244  0.00  0.00     0.143 C 
ENDROOT
BRANCH   1   7
ATOM      7  C   UNL d   1       2.466  -0.773  -0.008  0.00  0.00     0.008 C 
ATOM      8  C   UNL d   1       1.850  -0.118   0.997  0.00  0.00     0.037 C 
ATOM      9  C   UNL d   1       0.575   0.580   0.809  0.00  0.00    -0.028 A 
ATOM     10  C   UNL d   1      -0.165   1.012   1.915  0.00  0.00     0.012 A 
ATOM     11  C   UNL d   1       0.115   0.855  -0.488  0.00  0.00    -0.048 A 
ATOM     12  C   UNL d   1      -1.355   1.716   1.730  0.00  0.00     0.001 A 
ATOM     13  C   UNL d   1      -1.806   1.999   0.441  0.00  0.00     0.001 A 
ATOM     14  C   UNL d   1      -1.071   1.574  -0.666  0.00  0.00     0.008 A 
ATOM     15  C   UNL d   1       0.955   0.444  -1.667  0.00  0.00     0.045 C 
ATOM     16  C   UNL d   1       1.798  -0.804  -1.375  0.00  0.00     0.061 C 
ENDBRANCH   1   7
BRANCH   2  17
ATOM     17  C   UNL d   1       6.836  -3.879   1.305  0.00  0.00     0.030 A 
ATOM     18  C   UNL d   1       7.972  -3.131   1.649  0.00  0.00     0.045 A 
ATOM     19  C   UNL d   1       9.253  -3.704   1.744  0.00  0.00     0.050 A 
ATOM     20  C   UNL d   1       9.406  -5.070   1.487  0.00  0.00     0.016 A 
ATOM     21  C   UNL d   1       8.299  -5.839   1.145  0.00  0.00     0.003 A 
ATOM     22  C   UNL d   1       7.036  -5.246   1.059  0.00  0.00     0.029 A 
BRANCH  19  23
ATOM     23  C   UNL d   1      10.447  -2.863   2.114  0.00  0.00     0.417 C 
ATOM     24  F   UNL d   1      10.148  -1.548   2.320  0.00  0.00    -0.166 F 
ATOM     25  F   UNL d   1      11.050  -3.288   3.259  0.00  0.00    -0.166 F 
ATOM     26  F   UNL d   1      11.413  -2.877   1.155  0.00  0.00    -0.166 F 
ENDBRANCH  19  23
ENDBRANCH   2  17
TORSDOF 3
