REMARK  8 active torsions:
REMARK  status: ('A' for Active; 'I' for Inactive)
REMARK    1  A    between atoms: N_3  and  C_1 
REMARK    2  A    between atoms: S_10  and  C_1 
REMARK    3  A    between atoms: C_2  and  C_4 
REMARK    4  A    between atoms: C_7  and  N_5 
REMARK    5  A    between atoms: C_6  and  O_13 
REMARK    6  A    between atoms: C_25  and  S_10 
REMARK    7  A    between atoms: O_13  and  C_24 
REMARK    8  A    between atoms: C_28  and  C_25 
ROOT
ATOM      1  N   UNL d   1       0.199  -1.190   0.173  0.00  0.00    -0.365 N 
ATOM      2  N   UNL d   1      -1.692  -3.478   0.205  0.00  0.00    -0.366 N 
ATOM      3  C   UNL d   1      -0.450  -1.764  -1.038  0.00  0.00     0.144 C 
ATOM      4  C   UNL d   1      -1.813  -2.444  -0.818  0.00  0.00     0.144 C 
ATOM      5  C   UNL d   1      -0.522  -2.581   2.174  0.00  0.00     0.040 C 
ATOM      6  C   UNL d   1       0.581  -2.198   1.187  0.00  0.00     0.126 C 
ATOM      7  C   UNL d   1      -1.848  -3.040   1.583  0.00  0.00     0.126 C 
ENDROOT
BRANCH   1   8
ATOM      8  C   UNL d   1       0.952  -0.008   0.024  0.00  0.00     0.137 C 
ATOM      9  S   UNL d   1       2.520   0.239   0.582  0.00  0.00    -0.053 SA
BRANCH   8  10
ATOM     10  S   UNL d   1       0.181   1.320  -0.850  0.00  0.00    -0.096 SA
BRANCH  10  11
ATOM     11  C   UNL d   1      -1.475   1.326  -0.117  0.00  0.00     0.120 C 
BRANCH  11  12
ATOM     12  C   UNL d   1      -2.282   2.495  -0.626  0.00  0.00    -0.048 A 
ATOM     13  C   UNL d   1      -2.941   2.418  -1.861  0.00  0.00     0.011 A 
ATOM     14  C   UNL d   1      -3.667   3.510  -2.340  0.00  0.00     0.037 A 
ATOM     15  C   UNL d   1      -3.757   4.691  -1.599  0.00  0.00     0.078 A 
ATOM     16  C   UNL d   1      -3.064   4.789  -0.394  0.00  0.00     0.037 A 
ATOM     17  C   UNL d   1      -2.345   3.692   0.097  0.00  0.00     0.011 A 
BRANCH  15  18
ATOM     18  O   UNL d   1      -4.489   5.672  -2.192  0.00  0.00    -0.255 OA
BRANCH  18  19
ATOM     19  C   UNL d   1      -5.157   6.634  -1.393  0.00  0.00     0.530 C 
ATOM     20  F   UNL d   1      -5.173   6.348  -0.074  0.00  0.00    -0.144 F 
ATOM     21  F   UNL d   1      -4.585   7.843  -1.571  0.00  0.00    -0.144 F 
ATOM     22  F   UNL d   1      -6.444   6.712  -1.809  0.00  0.00    -0.144 F 
ENDBRANCH  18  19
ENDBRANCH  15  18
ENDBRANCH  11  12
ENDBRANCH  10  11
ENDBRANCH   8  10
ENDBRANCH   1   8
BRANCH   2  23
ATOM     23  C   UNL d   1      -1.937  -4.795  -0.134  0.00  0.00     0.102 A 
ATOM     24  N   UNL d   1      -2.686  -5.062  -1.221  0.00  0.00    -0.352 N 
ATOM     25  C   UNL d   1      -2.916  -6.356  -1.559  0.00  0.00     0.106 A 
ATOM     26  HN  UNL d   1      -3.074  -4.303  -1.782  1.00  0.00     0.166 HD
ATOM     27  C   UNL d   1      -2.396  -7.436  -0.865  0.00  0.00     0.063 A 
ATOM     28  C   UNL d   1      -1.596  -7.160   0.238  0.00  0.00     0.021 A 
ATOM     29  C   UNL d   1      -1.374  -5.830   0.608  0.00  0.00     0.049 A 
BRANCH  27  30
ATOM     30  C   UNL d   1      -2.684  -8.839  -1.298  0.00  0.00     0.418 C 
ATOM     31  F   UNL d   1      -3.532  -8.922  -2.361  0.00  0.00    -0.166 F 
ATOM     32  F   UNL d   1      -1.558  -9.511  -1.665  0.00  0.00    -0.166 F 
ATOM     33  F   UNL d   1      -3.254  -9.580  -0.308  0.00  0.00    -0.166 F 
ENDBRANCH  27  30
ENDBRANCH   2  23
TORSDOF 8
