REMARK  9 active torsions:
REMARK  status: ('A' for Active; 'I' for Inactive)
REMARK    1  A    between atoms: N_7  and  C_1 
REMARK    2  A    between atoms: N_10  and  C_1 
REMARK    3  A    between atoms: C_2  and  C_9 
REMARK    4  A    between atoms: N_3  and  N_7 
REMARK    5  A    between atoms: O_15  and  C_6 
REMARK    6  A    between atoms: C_18  and  N_10 
REMARK    7  A    between atoms: C_16  and  C_18 
REMARK    8  A    between atoms: C_19  and  C_16 
REMARK    9  A    between atoms: O_17  and  C_19 
ROOT
ATOM      1  N   UNL d   1       1.069   2.094  -1.192  0.00  0.00    -0.309 N 
ATOM      2  HN  UNL d   1       2.054   1.924  -1.397  1.00  0.00     0.186 HD
ATOM      3  C   UNL d   1       0.418   3.066  -1.746  0.00  0.00     0.121 C 
ENDROOT
BRANCH   1   4
ATOM      4  N   UNL d   1       0.375   1.309  -0.321  0.00  0.00    -0.277 N 
ATOM      5  H   UNL d   1      -0.630   1.418  -0.218  0.00  0.00     0.189 HD
BRANCH   4   6
ATOM      6  C   UNL d   1       0.924   0.102   0.071  0.00  0.00     0.186 C 
ATOM      7  S   UNL d   1      -0.046  -1.076   0.738  0.00  0.00    -0.040 SA
BRANCH   6   8
ATOM      8  N   UNL d   1       2.264   0.005  -0.206  0.00  0.00    -0.366 N 
ATOM      9  H   UNL d   1       2.704   0.905  -0.359  0.00  0.00     0.161 HD
BRANCH   8  10
ATOM     10  C   UNL d   1       3.080  -1.195  -0.216  0.00  0.00     0.124 C 
BRANCH  10  11
ATOM     11  C   UNL d   1       4.383  -0.964  -0.979  0.00  0.00     0.046 C 
BRANCH  11  12
ATOM     12  C   UNL d   1       5.182  -2.252  -1.131  0.00  0.00     0.168 C 
BRANCH  12  13
ATOM     13  O   UNL d   1       4.409  -3.187  -1.880  0.00  0.00    -0.396 OA
ATOM     14  C   UNL d   1       5.062  -4.442  -2.007  0.00  0.00     0.201 C 
ENDBRANCH  12  13
ENDBRANCH  11  12
ENDBRANCH  10  11
ENDBRANCH   8  10
ENDBRANCH   6   8
ENDBRANCH   4   6
ENDBRANCH   1   4
BRANCH   3  15
ATOM     15  C   UNL d   1       1.086   3.883  -2.782  0.00  0.00     0.015 A 
ATOM     16  C   UNL d   1       2.322   3.504  -3.327  0.00  0.00     0.077 A 
ATOM     17  C   UNL d   1       2.938   4.290  -4.296  0.00  0.00     0.039 A 
ATOM     18  C   UNL d   1       2.317   5.460  -4.732  0.00  0.00     0.022 A 
ATOM     19  C   UNL d   1       1.082   5.829  -4.202  0.00  0.00     0.011 A 
ATOM     20  C   UNL d   1       0.452   5.044  -3.232  0.00  0.00     0.034 A 
ATOM     21 BR   UNL d   1       0.249   7.418  -4.799  0.00  0.00    -0.051 Br
BRANCH  16  22
ATOM     22  O   UNL d   1       2.982   2.360  -2.969  0.00  0.00    -0.360 OA
ATOM     23  H   UNL d   1       2.417   1.886  -2.321  0.00  0.00     0.217 HD
ENDBRANCH  16  22
ENDBRANCH   3  15
TORSDOF 9
