REMARK  7 active torsions:
REMARK  status: ('A' for Active; 'I' for Inactive)
REMARK    1  A    between atoms: S_8  and  C_3 
REMARK    2  A    between atoms: N_4  and  C_10 
REMARK    3  A    between atoms: C_6  and  C_9 
REMARK    4  A    between atoms: S_11  and  C_7 
REMARK    5  A    between atoms: C_18  and  S_8 
REMARK    6  A    between atoms: C_19  and  S_11 
REMARK    7  A    between atoms: O_22  and  C_12 
ROOT
ATOM      1  N   UNL d   1      -1.236  -0.038  -0.103  0.00  0.00    -0.343 N 
ATOM      2  HN  UNL d   1      -2.250  -0.030  -0.211  1.00  0.00     0.167 HD
ATOM      3  C   UNL d   1      -0.536   1.120   0.064  0.00  0.00     0.102 A 
ATOM      4  C   UNL d   1      -0.542  -1.194  -0.122  0.00  0.00     0.075 A 
ATOM      5  C   UNL d   1       0.867   1.178   0.211  0.00  0.00     0.066 A 
ATOM      6  C   UNL d   1       1.539  -0.049   0.182  0.00  0.00     0.035 A 
ATOM      7  C   UNL d   1       0.837  -1.242   0.005  0.00  0.00     0.039 A 
ENDROOT
BRANCH   5   8
ATOM      8  N   UNL d   1       1.542   2.401   0.464  0.00  0.00    -0.363 N 
ATOM      9  C   UNL d   1       2.730   2.583  -0.022  0.00  0.00     0.102 C 
ATOM     10  HN  UNL d   1       1.097   3.129   1.023  1.00  0.00     0.165 HD
BRANCH   9  11
ATOM     11  C   UNL d   1       3.464   3.854   0.159  0.00  0.00     0.014 A 
ATOM     12  C   UNL d   1       2.910   4.959   0.814  0.00  0.00     0.077 A 
ATOM     13  C   UNL d   1       3.617   6.158   0.892  0.00  0.00     0.039 A 
ATOM     14  C   UNL d   1       4.885   6.258   0.317  0.00  0.00     0.026 A 
ATOM     15  C   UNL d   1       5.446   5.148  -0.317  0.00  0.00     0.035 A 
ATOM     16  C   UNL d   1       4.747   3.945  -0.394  0.00  0.00     0.039 A 
ATOM     17 CL   UNL d   1       7.007   5.270  -1.029  0.00  0.00    -0.084 Cl
BRANCH  12  18
ATOM     18  O   UNL d   1       1.668   4.941   1.386  0.00  0.00    -0.360 OA
ATOM     19  H   UNL d   1       1.286   4.045   1.244  0.00  0.00     0.217 HD
ENDBRANCH  12  18
ENDBRANCH   9  11
ENDBRANCH   5   8
BRANCH   3  20
ATOM     20  S   UNL d   1      -1.548   2.588   0.240  0.00  0.00    -0.070 SA
BRANCH  20  21
ATOM     21  C   UNL d   1      -1.735   3.144  -1.440  0.00  0.00     0.007 A 
ATOM     22  C   UNL d   1      -2.247   2.319  -2.450  0.00  0.00     0.019 A 
ATOM     23  C   UNL d   1      -2.447   2.816  -3.741  0.00  0.00     0.001 A 
ATOM     24  C   UNL d   1      -2.149   4.146  -4.033  0.00  0.00     0.000 A 
ATOM     25  C   UNL d   1      -1.652   4.980  -3.034  0.00  0.00     0.001 A 
ATOM     26  C   UNL d   1      -1.448   4.480  -1.744  0.00  0.00     0.019 A 
ENDBRANCH  20  21
ENDBRANCH   3  20
BRANCH   4  27
ATOM     27  S   UNL d   1      -1.471  -2.716  -0.146  0.00  0.00    -0.073 SA
BRANCH  27  28
ATOM     28  C   UNL d   1      -1.757  -2.954  -1.886  0.00  0.00     0.007 A 
ATOM     29  C   UNL d   1      -1.316  -4.132  -2.502  0.00  0.00     0.019 A 
ATOM     30  C   UNL d   1      -1.575  -4.363  -3.854  0.00  0.00     0.001 A 
ATOM     31  C   UNL d   1      -2.281  -3.419  -4.601  0.00  0.00     0.000 A 
ATOM     32  C   UNL d   1      -2.732  -2.250  -3.992  0.00  0.00     0.001 A 
ATOM     33  C   UNL d   1      -2.478  -2.022  -2.638  0.00  0.00     0.019 A 
ENDBRANCH  27  28
ENDBRANCH   4  27
TORSDOF 7
