REMARK  5 active torsions:
REMARK  status: ('A' for Active; 'I' for Inactive)
REMARK    1  A    between atoms: C_16  and  C_7 
REMARK    2  A    between atoms: C_9  and  N_8 
REMARK    3  A    between atoms: O_23  and  C_12 
REMARK    4  A    between atoms: O_25  and  C_13 
REMARK    5  A    between atoms: C_15  and  C_16 
ROOT
ATOM      1  C   UNL d   1       0.558  -0.788   0.689  0.00  0.00     0.245 A 
ATOM      2  O   UNL d   1       0.271   0.492   1.087  0.00  0.00    -0.263 OA
ATOM      3  N   UNL d   1       0.351  -0.966  -0.600  0.00  0.00    -0.263 N 
ATOM      4  HN  UNL d   1       0.510  -1.826  -1.125  1.00  0.00     0.190 HD
ATOM      5  N   UNL d   1      -0.119   0.224  -1.105  0.00  0.00    -0.280 N 
ATOM      6  HN  UNL d   1      -0.365   0.425  -2.074  1.00  0.00     0.189 HD
ATOM      7  C   UNL d   1      -0.188   1.049  -0.082  0.00  0.00     0.146 A 
ATOM      8  N   UNL d   1       0.976  -1.642   1.641  0.00  0.00    -0.319 N 
ATOM      9  H   UNL d   1       1.356  -1.270   2.500  0.00  0.00     0.169 HD
ENDROOT
BRANCH   7  10
ATOM     10  C   UNL d   1      -0.708   2.436  -0.040  0.00  0.00     0.124 C 
BRANCH  10  11
ATOM     11  C   UNL d   1      -2.219   2.490   0.034  0.00  0.00    -0.048 A 
ATOM     12  C   UNL d   1      -2.872   2.505   1.279  0.00  0.00     0.047 A 
ATOM     13  C   UNL d   1      -4.275   2.508   1.373  0.00  0.00     0.102 A 
ATOM     14  C   UNL d   1      -5.035   2.518   0.190  0.00  0.00     0.101 A 
ATOM     15  C   UNL d   1      -4.383   2.483  -1.050  0.00  0.00     0.040 A 
ATOM     16  C   UNL d   1      -2.990   2.468  -1.131  0.00  0.00     0.010 A 
BRANCH  13  17
ATOM     17  O   UNL d   1      -4.947   2.466   2.566  0.00  0.00    -0.353 OA
ATOM     18  C   UNL d   1      -4.187   2.398   3.764  0.00  0.00     0.210 C 
ENDBRANCH  13  17
BRANCH  14  19
ATOM     19  O   UNL d   1      -6.402   2.500   0.076  0.00  0.00    -0.353 OA
ATOM     20  C   UNL d   1      -7.148   3.126   1.112  0.00  0.00     0.210 C 
ENDBRANCH  14  19
ENDBRANCH  10  11
ENDBRANCH   7  10
BRANCH   8  21
ATOM     21  C   UNL d   1       0.901  -3.046   1.567  0.00  0.00     0.057 A 
ATOM     22  C   UNL d   1       1.822  -3.861   2.258  0.00  0.00     0.062 A 
ATOM     23  C   UNL d   1       1.793  -5.255   2.144  0.00  0.00     0.050 A 
ATOM     24 CL   UNL d   1       3.036  -3.153   3.270  0.00  0.00    -0.082 Cl
ATOM     25  C   UNL d   1       0.833  -5.858   1.338  0.00  0.00     0.035 A 
ATOM     26  C   UNL d   1      -0.089  -5.082   0.643  0.00  0.00     0.026 A 
ATOM     27 CL   UNL d   1       0.781  -7.571   1.196  0.00  0.00    -0.084 Cl
ATOM     28  C   UNL d   1      -0.044  -3.690   0.749  0.00  0.00     0.033 A 
ENDBRANCH   8  21
TORSDOF 5
