REMARK  8 active torsions:
REMARK  status: ('A' for Active; 'I' for Inactive)
REMARK    1  A    between atoms: N_5  and  C_1 
REMARK    2  A    between atoms: N_9  and  C_1 
REMARK    3  A    between atoms: N_2  and  N_5 
REMARK    4  A    between atoms: C_10  and  C_6 
REMARK    5  A    between atoms: C_13  and  N_9 
REMARK    6  A    between atoms: C_11  and  C_13 
REMARK    7  A    between atoms: C_15  and  C_11 
REMARK    8  A    between atoms: O_12  and  C_15 
ROOT
ATOM      1  N   UNL d   1       0.262  -1.199   0.418  0.00  0.00    -0.277 N 
ATOM      2  H   UNL d   1      -0.744  -1.325   0.358  0.00  0.00     0.189 HD
ENDROOT
BRANCH   1   3
ATOM      3  N   UNL d   1       0.999  -1.909   1.325  0.00  0.00    -0.308 N 
ATOM      4  C   UNL d   1       0.370  -2.854   1.946  0.00  0.00     0.136 C 
ATOM      5  HN  UNL d   1       1.983  -1.706   1.501  1.00  0.00     0.186 HD
BRANCH   4   6
ATOM      6  C   UNL d   1       1.024  -3.629   3.019  0.00  0.00     0.049 A 
ATOM      7  N   UNL d   1       0.303  -4.668   3.503  0.00  0.00    -0.365 N 
ATOM      8  C   UNL d   1       0.875  -5.373   4.503  0.00  0.00     0.088 A 
ATOM      9  HN  UNL d   1      -0.618  -4.904   3.134  1.00  0.00     0.165 HD
ATOM     10  C   UNL d   1       2.120  -5.083   5.044  0.00  0.00     0.017 A 
ATOM     11  C   UNL d   1       2.831  -4.003   4.530  0.00  0.00     0.004 A 
ATOM     12  C   UNL d   1       2.277  -3.259   3.495  0.00  0.00     0.031 A 
ENDBRANCH   4   6
ENDBRANCH   1   3
BRANCH   1  13
ATOM     13  C   UNL d   1       0.810  -0.068  -0.160  0.00  0.00     0.186 C 
ATOM     14  S   UNL d   1      -0.162   1.016  -0.964  0.00  0.00    -0.040 SA
BRANCH  13  15
ATOM     15  N   UNL d   1       2.166   0.009   0.032  0.00  0.00    -0.366 N 
ATOM     16  H   UNL d   1       2.493  -0.789   0.569  0.00  0.00     0.161 HD
BRANCH  15  17
ATOM     17  C   UNL d   1       3.019   1.183  -0.033  0.00  0.00     0.124 C 
BRANCH  17  18
ATOM     18  C   UNL d   1       3.275   1.714   1.377  0.00  0.00     0.046 C 
BRANCH  18  19
ATOM     19  C   UNL d   1       4.180   2.937   1.374  0.00  0.00     0.168 C 
BRANCH  19  20
ATOM     20  O   UNL d   1       3.533   3.992   0.670  0.00  0.00    -0.396 OA
ATOM     21  C   UNL d   1       4.327   5.168   0.626  0.00  0.00     0.201 C 
ENDBRANCH  19  20
ENDBRANCH  18  19
ENDBRANCH  17  18
ENDBRANCH  15  17
ENDBRANCH  13  15
ENDBRANCH   1  13
TORSDOF 8
