REMARK  3 active torsions:
REMARK  status: ('A' for Active; 'I' for Inactive)
REMARK    1  A    between atoms: C_2  and  C_1 
REMARK    2  A    between atoms: N_5  and  C_2 
REMARK    3  A    between atoms: O_10  and  N_3 
ROOT
ATOM      1  C   UNL d   1      -1.312   2.889  -0.129  0.00  0.00     0.053 A 
ATOM      2  C   UNL d   1      -2.436   2.434  -0.842  0.00  0.00     0.049 A 
ATOM      3  C   UNL d   1      -1.402   4.105   0.572  0.00  0.00     0.049 A 
ATOM      4 CL   UNL d   1      -2.434   0.984  -1.785  0.00  0.00    -0.083 Cl
ATOM      5 CL   UNL d   1      -0.109   4.747   1.531  0.00  0.00    -0.083 Cl
ATOM      6  C   UNL d   1      -3.704   4.381  -0.135  0.00  0.00     0.003 A 
ATOM      7  C   UNL d   1      -2.589   4.849   0.556  0.00  0.00     0.025 A 
ATOM      8  C   UNL d   1      -3.627   3.172  -0.826  0.00  0.00     0.025 A 
ENDROOT
BRANCH   1   9
ATOM      9  C   UNL d   1      -0.019   2.123  -0.147  0.00  0.00     0.136 C 
ATOM     10  N   UNL d   1       0.959   2.821  -0.654  0.00  0.00    -0.252 N 
ATOM     11  HN  UNL d   1       0.820   3.742  -1.069  1.00  0.00     0.196 HD
BRANCH  10  12
ATOM     12  O   UNL d   1       2.208   2.207  -0.583  0.00  0.00    -0.288 OA
ATOM     13  H   UNL d   1       2.805   2.930  -0.845  0.00  0.00     0.244 HD
ENDBRANCH  10  12
BRANCH   9  14
ATOM     14  N   UNL d   1      -0.000   0.807   0.344  0.00  0.00    -0.374 N 
ATOM     15  C   UNL d   1       1.096  -0.112   0.057  0.00  0.00     0.150 C 
ATOM     16  C   UNL d   1      -0.950   0.296   1.324  0.00  0.00     0.150 C 
ENDBRANCH   9  14
ENDBRANCH   1   9
TORSDOF 3
