REMARK  7 active torsions:
REMARK  status: ('A' for Active; 'I' for Inactive)
REMARK    1  A    between atoms: C_8  and  N_3 
REMARK    2  A    between atoms: C_10  and  C_8 
REMARK       I    between atoms: N_16  and  C_10 
REMARK    3  A    between atoms: O_23  and  C_11 
REMARK    4  A    between atoms: O_24  and  C_12 
REMARK    5  A    between atoms: O_25  and  C_13 
REMARK    6  A    between atoms: N_14  and  N_16 
REMARK    7  A    between atoms: C_20  and  C_21 
ROOT
ATOM      1  C   UNL d   1       2.820  -1.060   1.462  0.00  0.00     0.261 C 
ATOM      2  N   UNL d   1       3.310  -1.988   2.369  0.00  0.00    -0.269 N 
ATOM      3  O   UNL d   1       2.154  -1.367   0.462  0.00  0.00    -0.269 OA
ATOM      4  H   UNL d   1       3.988  -1.709   3.079  0.00  0.00     0.190 HD
ENDROOT
BRANCH   1   5
ATOM      5  C   UNL d   1       3.042   0.400   1.792  0.00  0.00     0.215 C 
ATOM      6  C   UNL d   1       2.202   0.857   2.977  0.00  0.00     0.046 C 
BRANCH   5   7
ATOM      7  N   UNL d   1       4.445   0.710   1.972  0.00  0.00    -0.189 N 
ATOM      8  N   UNL d   1       5.205   0.128   2.930  0.00  0.00    -0.115 N 
ATOM      9  C   UNL d   1       6.279   0.930   2.901  0.00  0.00     0.709 A 
ATOM     10  HN  UNL d   1       5.015  -0.690   3.509  1.00  0.00     0.207 HD
ATOM     11  N   UNL d   1       6.151   1.946   1.985  0.00  0.00    -0.113 N 
ATOM     12  N   UNL d   1       7.403   0.812   3.636  0.00  0.00    -0.211 N 
ATOM     13  N   UNL d   1       4.973   1.806   1.405  0.00  0.00     0.012 NA
ATOM     14  HN  UNL d   1       6.838   2.674   1.790  1.00  0.00     0.203 HD
ATOM     15  C   UNL d   1       7.613  -0.268   4.595  0.00  0.00     0.167 C 
ATOM     16  C   UNL d   1       8.401   1.883   3.698  0.00  0.00     0.167 C 
ATOM     17  C   UNL d   1       9.047  -0.797   4.444  0.00  0.00     0.188 C 
ATOM     18  O   UNL d   1      10.017   0.257   4.586  0.00  0.00    -0.388 OA
ATOM     19  C   UNL d   1       9.806   1.272   3.587  0.00  0.00     0.188 C 
ENDBRANCH   5   7
ENDBRANCH   1   5
BRANCH   2  20
ATOM     20  N   UNL d   1       3.091  -3.308   2.115  0.00  0.00    -0.308 N 
ATOM     21  C   UNL d   1       3.612  -4.184   2.907  0.00  0.00     0.118 C 
ATOM     22  HN  UNL d   1       2.528  -3.598   1.315  1.00  0.00     0.186 HD
BRANCH  21  23
ATOM     23  C   UNL d   1       3.408  -5.629   2.646  0.00  0.00    -0.014 A 
ATOM     24  C   UNL d   1       2.680  -6.031   1.525  0.00  0.00     0.052 A 
ATOM     25  C   UNL d   1       2.496  -7.391   1.224  0.00  0.00     0.105 A 
ATOM     26  C   UNL d   1       3.023  -8.379   2.086  0.00  0.00     0.135 A 
ATOM     27  C   UNL d   1       3.730  -7.953   3.239  0.00  0.00     0.105 A 
ATOM     28  C   UNL d   1       3.934  -6.587   3.498  0.00  0.00     0.052 A 
BRANCH  25  29
ATOM     29  O   UNL d   1       1.757  -7.752   0.123  0.00  0.00    -0.353 OA
ATOM     30  C   UNL d   1       1.916  -6.903  -1.019  0.00  0.00     0.210 C 
ENDBRANCH  25  29
BRANCH  26  31
ATOM     31  O   UNL d   1       2.961  -9.736   1.907  0.00  0.00    -0.351 OA
ATOM     32  C   UNL d   1       2.485 -10.293   0.690  0.00  0.00     0.210 C 
ENDBRANCH  26  31
BRANCH  27  33
ATOM     33  O   UNL d   1       4.357  -8.751   4.166  0.00  0.00    -0.353 OA
ATOM     34  C   UNL d   1       3.735  -9.980   4.521  0.00  0.00     0.210 C 
ENDBRANCH  27  33
ENDBRANCH  21  23
ENDBRANCH   2  20
TORSDOF 7
