REMARK  5 active torsions:
REMARK  status: ('A' for Active; 'I' for Inactive)
REMARK    1  A    between atoms: N_7  and  C_3 
REMARK    2  A    between atoms: C_8  and  C_6 
REMARK    3  A    between atoms: C_10  and  N_7 
REMARK    4  A    between atoms: C_9  and  C_8 
REMARK       I    between atoms: N_14  and  C_9 
REMARK    5  A    between atoms: C_20  and  N_14 
ROOT
ATOM      1  N   UNL d   1      -0.614  -1.655  -0.528  0.00  0.00    -0.307 N 
ATOM      2  HN  UNL d   1      -1.173  -2.437  -0.186  1.00  0.00     0.171 HD
ATOM      3  C   UNL d   1       0.643  -1.722  -0.805  0.00  0.00     0.143 C 
ATOM      4  C   UNL d   1      -1.105  -0.379  -0.755  0.00  0.00     0.238 C 
ATOM      5  S   UNL d   1       1.394  -0.247  -1.405  0.00  0.00    -0.079 SA
ATOM      6  C   UNL d   1      -0.017   0.677  -0.740  0.00  0.00     0.156 C 
ATOM      7  O   UNL d   1      -2.292  -0.101  -0.897  0.00  0.00    -0.272 OA
ENDROOT
BRANCH   6   8
ATOM      8  C   UNL d   1      -0.366   2.014  -1.363  0.00  0.00     0.128 C 
BRANCH   8   9
ATOM      9  C   UNL d   1      -0.611   2.016  -2.858  0.00  0.00     0.223 C 
ATOM     10  N   UNL d   1      -1.936   1.826  -3.204  0.00  0.00    -0.327 N 
ATOM     11  H   UNL d   1      -2.568   1.525  -2.465  0.00  0.00     0.169 HD
ATOM     12  O   UNL d   1       0.323   2.201  -3.633  0.00  0.00    -0.273 OA
BRANCH  10  13
ATOM     13  C   UNL d   1      -2.481   1.853  -4.508  0.00  0.00     0.034 A 
ATOM     14  C   UNL d   1      -1.770   2.252  -5.644  0.00  0.00     0.031 A 
ATOM     15  C   UNL d   1      -2.347   2.157  -6.916  0.00  0.00     0.026 A 
ATOM     16  C   UNL d   1      -3.645   1.676  -7.054  0.00  0.00     0.034 A 
ATOM     17  C   UNL d   1      -4.387   1.333  -5.928  0.00  0.00     0.026 A 
ATOM     18 CL   UNL d   1      -4.329   1.489  -8.622  0.00  0.00    -0.084 Cl
ATOM     19  C   UNL d   1      -3.809   1.432  -4.657  0.00  0.00     0.031 A 
ENDBRANCH  10  13
ENDBRANCH   8   9
ENDBRANCH   6   8
BRANCH   3  20
ATOM     20  N   UNL d   1       1.521  -2.743  -0.661  0.00  0.00    -0.365 N 
ATOM     21  H   UNL d   1       2.388  -2.640  -1.179  0.00  0.00     0.162 HD
BRANCH  20  22
ATOM     22  C   UNL d   1       1.280  -4.054  -0.087  0.00  0.00     0.091 C 
ATOM     23  C   UNL d   1       0.716  -5.087  -1.103  0.00  0.00     0.031 C 
ATOM     24  C   UNL d   1       1.558  -5.050  -2.361  0.00  0.00    -0.024 C 
ATOM     25  C   UNL d   1       1.245  -6.408  -0.525  0.00  0.00     0.019 C 
ATOM     26  C   UNL d   1       2.765  -5.546  -2.041  0.00  0.00    -0.026 C 
ATOM     27  C   UNL d   1       2.709  -5.964  -0.589  0.00  0.00     0.010 C 
ATOM     28  C   UNL d   1       2.655  -4.705   0.301  0.00  0.00     0.034 C 
ENDBRANCH  20  22
ENDBRANCH   3  20
TORSDOF 5
