REMARK  2 active torsions:
REMARK  status: ('A' for Active; 'I' for Inactive)
REMARK    1  A    between atoms: C_6  and  N_1 
REMARK    2  A    between atoms: C_8  and  C_6 
ROOT
ATOM      1  N   UNL d   1       5.553   0.073   2.824  0.00  0.00    -0.191 NA
ATOM      2  C   UNL d   1       3.907   1.393  -0.040  0.00  0.00    -0.019 A 
ATOM      3  C   UNL d   1       5.180   0.830   2.028  0.00  0.00     0.100 C 
ATOM      4  C   UNL d   1       4.764   1.762   1.016  0.00  0.00     0.052 A 
ATOM      5  C   UNL d   1       3.602   2.356  -1.022  0.00  0.00     0.010 A 
ATOM      6  C   UNL d   1       5.269   3.072   1.085  0.00  0.00     0.023 A 
ATOM      7  C   UNL d   1       4.106   3.655  -0.943  0.00  0.00     0.001 A 
ATOM      8  C   UNL d   1       4.935   4.015   0.114  0.00  0.00     0.002 A 
ENDROOT
BRANCH   2   9
ATOM      9  C   UNL d   1       3.313   0.001  -0.165  0.00  0.00     0.175 C 
BRANCH   9  10
ATOM     10  N   UNL d   1       1.865   0.018  -0.099  0.00  0.00    -0.276 N 
ATOM     11  C   UNL d   1       1.155   0.023   1.071  0.00  0.00     0.262 A 
ATOM     12  C   UNL d   1      -0.258   0.066   0.698  0.00  0.00     0.048 A 
ATOM     13  O   UNL d   1       1.561   0.006   2.216  0.00  0.00    -0.267 OA
ATOM     14  C   UNL d   1      -1.394   0.087   1.483  0.00  0.00     0.018 A 
ATOM     15  C   UNL d   1      -0.325   0.095  -0.683  0.00  0.00     0.048 A 
ATOM     16  C   UNL d   1      -2.626   0.149   0.824  0.00  0.00     0.001 A 
ATOM     17  C   UNL d   1      -2.692   0.190  -0.585  0.00  0.00     0.001 A 
ATOM     18  C   UNL d   1      -1.527   0.161  -1.359  0.00  0.00     0.018 A 
ATOM     19  C   UNL d   1       1.045   0.053  -1.191  0.00  0.00     0.262 A 
ATOM     20  O   UNL d   1       1.336   0.061  -2.372  0.00  0.00    -0.267 OA
ENDBRANCH   9  10
ENDBRANCH   2   9
TORSDOF 2
