REMARK  8 active torsions:
REMARK  status: ('A' for Active; 'I' for Inactive)
REMARK    1  A    between atoms: C_5  and  C_1 
REMARK    2  A    between atoms: S_2  and  C_8 
REMARK    3  A    between atoms: C_11  and  S_2 
REMARK    4  A    between atoms: C_13  and  N_6 
REMARK    5  A    between atoms: C_8  and  C_17 
REMARK    6  A    between atoms: C_9  and  C_11 
REMARK    7  A    between atoms: C_17  and  C_13 
REMARK    8  A    between atoms: O_26  and  C_17 
ROOT
ATOM      1  C   UNL d   1       3.003   0.737  -0.141  0.00  0.00     0.151 C 
ENDROOT
BRANCH   1   2
ATOM      2  C   UNL d   1       3.223  -0.097  -1.400  0.00  0.00     0.174 C 
BRANCH   2   3
ATOM      3  S   UNL d   1       2.278  -1.599  -1.534  0.00  0.00     0.150 S 
ATOM      4  O   UNL d   1       2.615  -2.176  -2.826  0.00  0.00    -0.228 OA
ATOM      5  O   UNL d   1       2.506  -2.363  -0.318  0.00  0.00    -0.228 OA
BRANCH   3   6
ATOM      6  C   UNL d   1       0.561  -1.082  -1.601  0.00  0.00     0.180 C 
BRANCH   6   7
ATOM      7  C   UNL d   1      -0.325  -2.293  -1.774  0.00  0.00    -0.022 A 
ATOM      8  C   UNL d   1      -0.794  -3.053  -0.685  0.00  0.00     0.042 A 
ATOM      9  C   UNL d   1      -1.585  -4.189  -0.895  0.00  0.00     0.048 A 
ATOM     10 CL   UNL d   1      -0.470  -2.604   0.952  0.00  0.00    -0.084 Cl
ATOM     11  C   UNL d   1      -1.937  -4.556  -2.188  0.00  0.00     0.035 A 
ATOM     12  C   UNL d   1      -1.507  -3.807  -3.277  0.00  0.00     0.024 A 
ATOM     13 CL   UNL d   1      -2.915  -5.949  -2.443  0.00  0.00    -0.084 Cl
ATOM     14  C   UNL d   1      -0.704  -2.683  -3.074  0.00  0.00     0.011 A 
ENDBRANCH   6   7
ENDBRANCH   3   6
ENDBRANCH   2   3
ENDBRANCH   1   2
BRANCH   1  15
ATOM     15  C   UNL d   1       3.275   0.082   1.227  0.00  0.00     0.180 C 
BRANCH  15  16
ATOM     16  N   UNL d   1       4.597  -0.492   1.389  0.00  0.00    -0.300 N 
ATOM     17  N   UNL d   1       5.639   0.006   0.700  0.00  0.00    -0.295 N 
ATOM     18  C   UNL d   1       6.648  -0.854   0.949  0.00  0.00     0.133 A 
ATOM     19  HN  UNL d   1       5.661   0.845   0.120  1.00  0.00     0.187 HD
ATOM     20  C   UNL d   1       6.249  -1.825   1.907  0.00  0.00     0.054 A 
ATOM     21  C   UNL d   1       4.931  -1.548   2.182  0.00  0.00     0.112 A 
BRANCH  18  22
ATOM     22  C   UNL d   1       7.982  -0.785   0.255  0.00  0.00     0.433 C 
ATOM     23  F   UNL d   1       8.121   0.304  -0.551  0.00  0.00    -0.165 F 
ATOM     24  F   UNL d   1       9.015  -0.749   1.139  0.00  0.00    -0.165 F 
ATOM     25  F   UNL d   1       8.188  -1.877  -0.531  0.00  0.00    -0.165 F 
ENDBRANCH  18  22
ENDBRANCH  15  16
ENDBRANCH   1  15
BRANCH   1  26
ATOM     26  O   UNL d   1       1.690   1.316  -0.202  0.00  0.00    -0.393 OA
ATOM     27  H   UNL d   1       1.165   1.028   0.568  0.00  0.00     0.210 HD
ENDBRANCH   1  26
TORSDOF 8
