REMARK  4 active torsions:
REMARK  status: ('A' for Active; 'I' for Inactive)
REMARK       I    between atoms: N_2  and  C_1 
REMARK    1  A    between atoms: O_3  and  C_1 
REMARK    2  A    between atoms: C_5  and  N_2 
REMARK    3  A    between atoms: C_6  and  O_3 
REMARK    4  A    between atoms: S_9  and  C_7 
ROOT
ATOM      1  C   UNL d   1       0.970   0.118   0.051  0.00  0.00     0.370 C 
ATOM      2  N   UNL d   1       2.194  -0.474  -0.154  0.00  0.00    -0.302 N 
ATOM      3  O   UNL d   1       0.624   0.709   1.066  0.00  0.00    -0.238 OA
ATOM      4  H   UNL d   1       2.393  -0.731  -1.111  0.00  0.00     0.171 HD
ENDROOT
BRANCH   1   5
ATOM      5  O   UNL d   1       0.169  -0.038  -1.082  0.00  0.00    -0.261 OA
BRANCH   5   6
ATOM      6  C   UNL d   1      -1.221   0.236  -1.057  0.00  0.00     0.081 A 
ATOM      7  C   UNL d   1      -1.995   0.213   0.102  0.00  0.00     0.039 A 
ATOM      8  C   UNL d   1      -3.378   0.416   0.028  0.00  0.00     0.021 A 
ATOM      9  C   UNL d   1      -4.006   0.603  -1.206  0.00  0.00    -0.000 A 
ATOM     10  C   UNL d   1      -3.216   0.632  -2.364  0.00  0.00     0.021 A 
ATOM     11  C   UNL d   1      -1.829   0.446  -2.294  0.00  0.00     0.039 A 
BRANCH   9  12
ATOM     12  S   UNL d   1      -5.769   0.836  -1.379  0.00  0.00    -0.134 SA
ATOM     13  C   UNL d   1      -6.423  -0.173  -0.017  0.00  0.00     0.095 C 
ENDBRANCH   9  12
ENDBRANCH   5   6
ENDBRANCH   1   5
BRANCH   2  14
ATOM     14  C   UNL d   1       3.174  -0.721   0.829  0.00  0.00     0.036 A 
ATOM     15  C   UNL d   1       2.903  -0.652   2.201  0.00  0.00     0.031 A 
ATOM     16  C   UNL d   1       3.897  -0.928   3.143  0.00  0.00     0.026 A 
ATOM     17  C   UNL d   1       5.175  -1.270   2.718  0.00  0.00     0.034 A 
ATOM     18  C   UNL d   1       5.460  -1.354   1.357  0.00  0.00     0.026 A 
ATOM     19 CL   UNL d   1       6.401  -1.599   3.879  0.00  0.00    -0.084 Cl
ATOM     20  C   UNL d   1       4.458  -1.092   0.414  0.00  0.00     0.031 A 
ENDBRANCH   2  14
TORSDOF 4
