REMARK  3 active torsions:
REMARK  status: ('A' for Active; 'I' for Inactive)
REMARK    1  A    between atoms: C_2  and  C_1 
REMARK    2  A    between atoms: C_3  and  C_4 
REMARK       I    between atoms: C_4  and  N_6 
REMARK    3  A    between atoms: N_6  and  C_5 
ROOT
ATOM      1  C   UNL d   1       2.169  -1.215  -0.161  0.00  0.00     0.075 A 
ATOM      2  C   UNL d   1       2.983  -0.069  -0.245  0.00  0.00     0.050 A 
ATOM      3  C   UNL d   1       0.775  -1.035   0.023  0.00  0.00     0.037 A 
ATOM      4  C   UNL d   1       2.381   1.204  -0.236  0.00  0.00     0.032 A 
ATOM      5  C   UNL d   1       0.206   0.236   0.067  0.00  0.00     0.011 A 
ATOM      6  C   UNL d   1       1.005   1.359  -0.072  0.00  0.00     0.021 A 
ATOM      7 BR   UNL d   1      -1.661   0.429   0.278  0.00  0.00    -0.051 Br
ENDROOT
BRANCH   2   8
ATOM      8  N   UNL d   1       4.386  -0.045  -0.374  0.00  0.00    -0.319 N 
ATOM      9  C   UNL d   1       5.290  -0.882   0.289  0.00  0.00     0.330 C 
ATOM     10  O   UNL d   1       4.955  -1.765   1.076  0.00  0.00    -0.263 OA
ATOM     11  H   UNL d   1       4.799   0.830  -0.693  0.00  0.00     0.169 HD
BRANCH   9  12
ATOM     12  C   UNL d   1       6.759  -0.539  -0.043  0.00  0.00     0.472 C 
ATOM     13  F   UNL d   1       6.854   0.705  -0.606  0.00  0.00    -0.162 F 
ATOM     14  F   UNL d   1       7.565  -0.519   1.051  0.00  0.00    -0.162 F 
ATOM     15  F   UNL d   1       7.315  -1.400  -0.936  0.00  0.00    -0.162 F 
ENDBRANCH   9  12
ENDBRANCH   2   8
BRANCH   1  16
ATOM     16  C   UNL d   1       2.628  -2.643  -0.357  0.00  0.00     0.419 C 
ATOM     17  F   UNL d   1       3.810  -2.787  -1.016  0.00  0.00    -0.166 F 
ATOM     18  F   UNL d   1       2.718  -3.344   0.805  0.00  0.00    -0.166 F 
ATOM     19  F   UNL d   1       1.733  -3.347  -1.121  0.00  0.00    -0.166 F 
ENDBRANCH   1  16
TORSDOF 3
