REMARK  3 active torsions:
REMARK  status: ('A' for Active; 'I' for Inactive)
REMARK    1  A    between atoms: C_3  and  C_1 
REMARK       I    between atoms: N_6  and  C_1 
REMARK    2  A    between atoms: N_16  and  C_2 
REMARK    3  A    between atoms: C_7  and  N_6 
ROOT
ATOM      1  C   UNL d   1       0.954   0.044   0.006  0.00  0.00     0.256 C 
ATOM      2  N   UNL d   1       0.201  -0.479  -1.033  0.00  0.00    -0.323 N 
ATOM      3  O   UNL d   1       2.172   0.135   0.055  0.00  0.00    -0.267 OA
ATOM      4  H   UNL d   1      -0.806  -0.412  -0.959  0.00  0.00     0.169 HD
ENDROOT
BRANCH   1   5
ATOM      5  C   UNL d   1       0.171   0.601   1.143  0.00  0.00     0.035 A 
ATOM      6  C   UNL d   1      -1.041   0.041   1.556  0.00  0.00     0.043 A 
ATOM      7  C   UNL d   1      -1.763   0.643   2.591  0.00  0.00     0.057 A 
ATOM      8 CL   UNL d   1      -3.280  -0.066   3.034  0.00  0.00    -0.082 Cl
ATOM      9  C   UNL d   1      -1.277   1.778   3.269  0.00  0.00     0.050 A 
ATOM     10  C   UNL d   1      -0.052   2.318   2.836  0.00  0.00     0.057 A 
ATOM     11  C   UNL d   1       0.675   1.728   1.800  0.00  0.00     0.043 A 
ATOM     12 CL   UNL d   1       0.603   3.732   3.589  0.00  0.00    -0.082 Cl
BRANCH   9  13
ATOM     13  N   UNL d   1      -2.095   2.480   4.181  0.00  0.00    -0.300 NA
ATOM     14  H   UNL d   1      -1.573   3.079   4.817  0.00  0.00     0.124 HD
ATOM     15  H   UNL d   1      -2.787   1.896   4.646  0.00  0.00     0.124 HD
ENDBRANCH   9  13
ENDBRANCH   1   5
BRANCH   2  16
ATOM     16  C   UNL d   1       0.685  -0.974  -2.266  0.00  0.00     0.038 A 
ATOM     17  C   UNL d   1       2.040  -1.064  -2.593  0.00  0.00     0.053 A 
ATOM     18  C   UNL d   1       2.430  -1.508  -3.860  0.00  0.00     0.037 A 
ATOM     19 CL   UNL d   1       4.104  -1.584  -4.258  0.00  0.00    -0.084 Cl
ATOM     20  C   UNL d   1       1.484  -1.880  -4.808  0.00  0.00     0.048 A 
ATOM     21  C   UNL d   1       0.136  -1.815  -4.475  0.00  0.00     0.037 A 
ATOM     22  C   UNL d   1      -0.267  -1.368  -3.215  0.00  0.00     0.053 A 
ATOM     23 CL   UNL d   1      -1.051  -2.279  -5.632  0.00  0.00    -0.084 Cl
ENDBRANCH   2  16
TORSDOF 3
