REMARK  2 active torsions:
REMARK  status: ('A' for Active; 'I' for Inactive)
REMARK    1  A    between atoms: C_13  and  C_8 
REMARK    2  A    between atoms: C_17  and  C_13 
ROOT
ATOM      1  N   UNL d   1       1.136   1.508   0.039  0.00  0.00    -0.356 N 
ATOM      2  HN  UNL d   1       1.097   2.527   0.019  1.00  0.00     0.166 HD
ATOM      3  N   UNL d   1       1.239  -1.293   0.050  0.00  0.00    -0.356 N 
ATOM      4  HN  UNL d   1       1.275  -2.312   0.038  1.00  0.00     0.166 HD
ATOM      5  C   UNL d   1       0.063  -0.637   0.072  0.00  0.00     0.060 A 
ATOM      6  C   UNL d   1       0.015   0.767   0.063  0.00  0.00     0.060 A 
ATOM      7  C   UNL d   1       2.322   0.849   0.041  0.00  0.00     0.028 A 
ATOM      8  C   UNL d   1       2.376  -0.546   0.042  0.00  0.00     0.032 A 
ATOM      9  C   UNL d   1      -1.134  -1.344   0.127  0.00  0.00     0.039 A 
ATOM     10  C   UNL d   1      -1.220   1.400   0.102  0.00  0.00     0.039 A 
ATOM     11  C   UNL d   1      -2.391  -0.709   0.203  0.00  0.00    -0.054 A 
ATOM     12  C   UNL d   1      -2.434   0.692   0.189  0.00  0.00    -0.054 A 
ATOM     13  C   UNL d   1       3.541   1.717   0.059  0.00  0.00     0.070 C 
ATOM     14  C   UNL d   1      -3.597  -1.601   0.296  0.00  0.00     0.049 C 
ATOM     15  C   UNL d   1      -3.686   1.520   0.280  0.00  0.00     0.049 C 
ENDROOT
BRANCH   8  16
ATOM     16  C   UNL d   1       3.666  -1.325   0.055  0.00  0.00     0.059 C 
BRANCH  16  17
ATOM     17  C   UNL d   1       4.214  -1.617   1.456  0.00  0.00     0.002 C 
ATOM     18  C   UNL d   1       3.303  -2.493   2.305  0.00  0.00     0.005 C 
ENDBRANCH  16  17
ENDBRANCH   8  16
TORSDOF 2
