REMARK  6 active torsions:
REMARK  status: ('A' for Active; 'I' for Inactive)
REMARK    1  A    between atoms: N_4  and  C_1 
REMARK    2  A    between atoms: N_5  and  C_2 
REMARK    3  A    between atoms: N_10  and  C_3 
REMARK    4  A    between atoms: C_6  and  C_7 
REMARK    5  A    between atoms: C_20  and  N_10 
REMARK    6  A    between atoms: C_12  and  C_20 
ROOT
ATOM      1  C   UNL d   1       1.318  -0.126  -0.087  0.00  0.00     0.132 A 
ATOM      2  C   UNL d   1      -0.889  -1.023   0.057  0.00  0.00     0.132 A 
ATOM      3  C   UNL d   1       0.484  -1.281  -0.172  0.00  0.00     0.095 A 
ATOM      4  C   UNL d   1      -0.587   1.389   0.238  0.00  0.00     0.052 A 
ATOM      5  C   UNL d   1      -1.421   0.273   0.238  0.00  0.00     0.054 A 
ATOM      6  C   UNL d   1       0.790   1.176   0.103  0.00  0.00     0.054 A 
ENDROOT
BRANCH   3   7
ATOM      7  N   UNL d   1       1.012  -2.529  -0.494  0.00  0.00    -0.381 N 
ATOM      8  H   UNL d   1       2.034  -2.608  -0.526  0.00  0.00     0.160 HD
BRANCH   7   9
ATOM      9  C   UNL d   1       0.330  -3.596  -1.223  0.00  0.00     0.166 C 
BRANCH   9  10
ATOM     10  C   UNL d   1       1.081  -4.188  -2.384  0.00  0.00    -0.000 A 
ATOM     11  S   UNL d   1       1.638  -3.189  -3.661  0.00  0.00    -0.105 SA
ATOM     12  C   UNL d   1       2.178  -4.537  -4.565  0.00  0.00     0.050 A 
ATOM     13  C   UNL d   1       1.958  -5.725  -3.904  0.00  0.00     0.008 A 
ATOM     14  C   UNL d   1       1.337  -5.522  -2.638  0.00  0.00     0.017 A 
ENDBRANCH   9  10
ENDBRANCH   7   9
ENDBRANCH   3   7
BRANCH   2  15
ATOM     15  N   UNL d   1      -1.856  -2.100   0.222  0.00  0.00    -0.113 N 
ATOM     16  O   UNL d   1      -1.633  -2.944   1.098  0.00  0.00    -0.532 OA
ATOM     17  O   UNL d   1      -2.854  -2.070  -0.511  0.00  0.00    -0.532 OA
ENDBRANCH   2  15
BRANCH   1  18
ATOM     18  N   UNL d   1       2.791  -0.226  -0.197  0.00  0.00    -0.113 N 
ATOM     19  O   UNL d   1       3.319  -1.343  -0.104  0.00  0.00    -0.532 OA
ATOM     20  O   UNL d   1       3.423   0.829  -0.356  0.00  0.00    -0.532 OA
ENDBRANCH   1  18
BRANCH   4  21
ATOM     21  C   UNL d   1      -1.136   2.788   0.399  0.00  0.00     0.417 C 
ATOM     22  F   UNL d   1      -2.493   2.826   0.470  0.00  0.00    -0.166 F 
ATOM     23  F   UNL d   1      -0.681   3.392   1.529  0.00  0.00    -0.166 F 
ATOM     24  F   UNL d   1      -0.787   3.599  -0.633  0.00  0.00    -0.166 F 
ENDBRANCH   4  21
TORSDOF 6
