REMARK  2 active torsions:
REMARK  status: ('A' for Active; 'I' for Inactive)
REMARK    1  A    between atoms: C_4  and  N_1 
REMARK    2  A    between atoms: C_13  and  C_8 
ROOT
ATOM      1  N   UNL d   1       0.015  -0.964  -0.108  0.00  0.00    -0.249 N 
ATOM      2  C   UNL d   1      -1.240  -0.351  -0.002  0.00  0.00     0.232 C 
ATOM      3  C   UNL d   1       1.250  -0.316   0.005  0.00  0.00     0.232 C 
ATOM      4  C   UNL d   1      -1.237   1.115   0.344  0.00  0.00     0.113 C 
ATOM      5  C   UNL d   1       1.235   1.182   0.191  0.00  0.00     0.113 C 
ATOM      6  C   UNL d   1      -0.055   1.837  -0.278  0.00  0.00     0.036 C 
ATOM      7  O   UNL d   1      -2.318  -0.952  -0.026  0.00  0.00    -0.273 OA
ATOM      8  O   UNL d   1       2.340  -0.894  -0.005  0.00  0.00    -0.273 OA
ENDROOT
BRANCH   1   9
ATOM      9  C   UNL d   1       0.027  -2.385  -0.281  0.00  0.00     0.084 A 
ATOM     10  C   UNL d   1      -0.636  -2.981  -1.361  0.00  0.00     0.144 A 
ATOM     11  C   UNL d   1      -0.636  -4.362  -1.538  0.00  0.00     0.062 A 
ATOM     12  F   UNL d   1      -1.223  -2.217  -2.296  0.00  0.00    -0.204 F 
ATOM     13  C   UNL d   1       0.025  -5.168  -0.613  0.00  0.00     0.009 A 
ATOM     14  C   UNL d   1       0.687  -4.598   0.476  0.00  0.00     0.020 A 
ATOM     15  I   UNL d   1       0.041  -7.230  -0.863  0.00  0.00    -0.044 I 
ATOM     16  C   UNL d   1       0.697  -3.209   0.635  0.00  0.00     0.034 A 
ENDBRANCH   1   9
BRANCH   6  17
ATOM     17  C   UNL d   1      -0.085   3.316   0.074  0.00  0.00    -0.053 A 
ATOM     18  C   UNL d   1      -0.206   4.279  -0.936  0.00  0.00     0.007 A 
ATOM     19  C   UNL d   1      -0.259   5.639  -0.620  0.00  0.00     0.001 A 
ATOM     20  C   UNL d   1      -0.191   6.054   0.708  0.00  0.00     0.000 A 
ATOM     21  C   UNL d   1      -0.066   5.109   1.723  0.00  0.00     0.001 A 
ATOM     22  C   UNL d   1      -0.012   3.752   1.409  0.00  0.00     0.007 A 
ENDBRANCH   6  17
TORSDOF 2
