REMARK  2 active torsions:
REMARK  status: ('A' for Active; 'I' for Inactive)
REMARK    1  A    between atoms: C_4  and  C_9 
REMARK    2  A    between atoms: C_14  and  C_5 
ROOT
ATOM      1  C   UNL d   1      -2.029   0.321   0.110  0.00  0.00     0.018 C 
ATOM      2  C   UNL d   1      -1.091  -0.835   0.063  0.00  0.00     0.193 C 
ATOM      3  C   UNL d   1       0.344  -0.485   0.053  0.00  0.00     0.048 A 
ATOM      4  C   UNL d   1      -3.317   0.105  -0.211  0.00  0.00     0.024 C 
ATOM      5  O   UNL d   1      -0.184   1.876  -0.174  0.00  0.00    -0.346 OA
ATOM      6  C   UNL d   1       0.721   0.852  -0.076  0.00  0.00     0.083 A 
ATOM      7  C   UNL d   1      -1.397   1.606   0.539  0.00  0.00     0.218 C 
ATOM      8  O   UNL d   1      -1.468  -2.001   0.044  0.00  0.00    -0.287 OA
ATOM      9  C   UNL d   1       1.319  -1.485   0.129  0.00  0.00     0.018 A 
ATOM     10  C   UNL d   1       2.070   1.194  -0.153  0.00  0.00     0.038 A 
ATOM     11  C   UNL d   1       2.671  -1.138   0.079  0.00  0.00     0.001 A 
ATOM     12  C   UNL d   1       3.045   0.200  -0.065  0.00  0.00     0.003 A 
ENDROOT
BRANCH   4  13
ATOM     13  C   UNL d   1      -4.348   1.143  -0.225  0.00  0.00    -0.035 A 
ATOM     14  C   UNL d   1      -4.600   1.856  -1.400  0.00  0.00     0.012 A 
ATOM     15  C   UNL d   1      -5.599   2.832  -1.433  0.00  0.00     0.017 A 
ATOM     16  C   UNL d   1      -6.363   3.110  -0.290  0.00  0.00     0.048 A 
ATOM     17  C   UNL d   1      -6.093   2.401   0.892  0.00  0.00     0.017 A 
ATOM     18  C   UNL d   1      -5.091   1.425   0.925  0.00  0.00     0.012 A 
BRANCH  16  19
ATOM     19  C   UNL d   1      -7.467   4.139  -0.323  0.00  0.00     0.417 C 
ATOM     20  F   UNL d   1      -7.612   4.744  -1.536  0.00  0.00    -0.166 F 
ATOM     21  F   UNL d   1      -8.685   3.607  -0.026  0.00  0.00    -0.166 F 
ATOM     22  F   UNL d   1      -7.271   5.146   0.572  0.00  0.00    -0.166 F 
ENDBRANCH  16  19
ENDBRANCH   4  13
TORSDOF 2
