REMARK  3 active torsions:
REMARK  status: ('A' for Active; 'I' for Inactive)
REMARK    1  A    between atoms: N_7  and  C_1 
REMARK    2  A    between atoms: C_12  and  N_3 
REMARK    3  A    between atoms: C_8  and  C_6 
REMARK       I    between atoms: C_11  and  N_7 
ROOT
ATOM      1  C   UNL d   1      -0.151  -1.367  -0.127  0.00  0.00     0.149 C 
ATOM      2  C   UNL d   1       1.067  -0.785  -0.381  0.00  0.00     0.081 C 
ATOM      3  N   UNL d   1      -1.039  -0.311   0.087  0.00  0.00    -0.238 N 
ATOM      4  N   UNL d   1      -0.366   0.865   0.230  0.00  0.00    -0.294 N 
ATOM      5  HN  UNL d   1      -0.745   1.766   0.522  1.00  0.00     0.187 HD
ATOM      6  C   UNL d   1       0.896   0.579  -0.097  0.00  0.00     0.051 C 
ATOM      7 BR   UNL d   1       2.665  -1.656  -0.826  0.00  0.00    -0.045 Br
ENDROOT
BRANCH   3   8
ATOM      8  C   UNL d   1      -2.462  -0.309   0.032  0.00  0.00     0.058 A 
ATOM      9  C   UNL d   1      -3.167   0.763   0.598  0.00  0.00     0.031 A 
ATOM     10  C   UNL d   1      -4.562   0.785   0.554  0.00  0.00     0.002 A 
ATOM     11  C   UNL d   1      -5.258  -0.247  -0.072  0.00  0.00     0.000 A 
ATOM     12  C   UNL d   1      -4.562  -1.300  -0.664  0.00  0.00     0.002 A 
ATOM     13  C   UNL d   1      -3.166  -1.333  -0.618  0.00  0.00     0.031 A 
ENDBRANCH   3   8
BRANCH   1  14
ATOM     14  N   UNL d   1      -0.343  -2.749  -0.058  0.00  0.00    -0.311 N 
ATOM     15  C   UNL d   1      -1.151  -3.316   0.985  0.00  0.00     0.219 C 
ATOM     16  O   UNL d   1      -1.612  -2.607   1.862  0.00  0.00    -0.274 OA
ATOM     17  C   UNL d   1      -1.272  -4.807   0.944  0.00  0.00     0.117 C 
ATOM     18  H   UNL d   1       0.282  -3.346  -0.588  0.00  0.00     0.170 HD
ENDBRANCH   1  14
BRANCH   6  19
ATOM     19  C   UNL d   1       2.003   1.630  -0.095  0.00  0.00     0.038 A 
ATOM     20  C   UNL d   1       1.869   2.809   0.852  0.00  0.00     0.011 A 
ATOM     21  C   UNL d   1       1.694   3.019  -0.613  0.00  0.00     0.011 A 
ENDBRANCH   6  19
TORSDOF 3
