REMARK  3 active torsions:
REMARK  status: ('A' for Active; 'I' for Inactive)
REMARK    1  A    between atoms: C_2  and  S_1 
REMARK    2  A    between atoms: C_3  and  S_1 
REMARK    3  A    between atoms: C_6  and  C_2 
ROOT
ATOM      1  C   UNL d   1       0.402   1.404   0.996  0.00  0.00     0.059 A 
ATOM      2  C   UNL d   1       0.785   1.533   2.335  0.00  0.00     0.025 A 
ATOM      3  C   UNL d   1      -0.384   2.384   0.381  0.00  0.00     0.025 A 
ATOM      4  C   UNL d   1      -0.419   3.628   2.452  0.00  0.00     0.034 A 
ATOM      5  C   UNL d   1      -0.794   3.499   1.115  0.00  0.00     0.025 A 
ATOM      6  C   UNL d   1       0.365   2.649   3.065  0.00  0.00     0.025 A 
ATOM      7 CL   UNL d   1      -0.909   5.014   3.346  0.00  0.00    -0.084 Cl
ENDROOT
BRANCH   1   8
ATOM      8  S   UNL d   1       1.000   0.028   0.040  0.00  0.00     0.182 S 
ATOM      9  O   UNL d   1       0.396   0.105  -1.278  0.00  0.00    -0.222 OA
ATOM     10  O   UNL d   1       2.444   0.035   0.181  0.00  0.00    -0.222 OA
BRANCH   8  11
ATOM     11  C   UNL d   1       0.400  -1.435   0.808  0.00  0.00     0.223 C 
BRANCH  11  12
ATOM     12  C   UNL d   1      -1.092  -1.436   0.827  0.00  0.00     0.137 C 
ATOM     13  O   UNL d   1      -1.710  -0.984   1.794  0.00  0.00    -0.297 OA
ATOM     14  C   UNL d   1      -1.825  -1.996  -0.363  0.00  0.00     0.091 C 
ENDBRANCH  11  12
ENDBRANCH   8  11
ENDBRANCH   1   8
TORSDOF 3
