REMARK  4 active torsions:
REMARK  status: ('A' for Active; 'I' for Inactive)
REMARK    1  A    between atoms: C_12  and  C_3 
REMARK    2  A    between atoms: N_13  and  C_6 
REMARK    3  A    between atoms: C_22  and  N_13 
REMARK    4  A    between atoms: C_21  and  C_22 
ROOT
ATOM      1  S   UNL d   1       1.718  -0.772  -0.035  0.00  0.00    -0.088 SA
ATOM      2  C   UNL d   1       0.017  -0.531  -0.003  0.00  0.00     0.075 A 
ATOM      3  C   UNL d   1       2.063   0.916  -0.027  0.00  0.00    -0.007 A 
ATOM      4  C   UNL d   1       0.882   1.640  -0.014  0.00  0.00     0.046 A 
ATOM      5  C   UNL d   1      -0.288   0.822   0.005  0.00  0.00     0.055 A 
ATOM      6  C   UNL d   1      -1.017  -1.476   0.016  0.00  0.00     0.121 A 
ATOM      7  N   UNL d   1      -2.285  -1.009   0.048  0.00  0.00    -0.338 N 
ATOM      8  HN  UNL d   1      -3.076  -1.653   0.076  1.00  0.00     0.168 HD
ATOM      9  N   UNL d   1      -1.562   1.285   0.026  0.00  0.00    -0.351 N 
ATOM     10  HN  UNL d   1      -1.794   2.278   0.029  1.00  0.00     0.166 HD
ATOM     11  C   UNL d   1      -2.484   0.319   0.043  0.00  0.00     0.182 A 
ENDROOT
BRANCH   6  12
ATOM     12  N   UNL d   1      -0.762  -2.845  -0.044  0.00  0.00    -0.371 N 
ATOM     13  H   UNL d   1       0.214  -3.062   0.128  0.00  0.00     0.161 HD
BRANCH  12  14
ATOM     14  C   UNL d   1      -1.703  -3.753   0.578  0.00  0.00     0.160 C 
BRANCH  14  15
ATOM     15  C   UNL d   1      -1.362  -3.985   2.034  0.00  0.00    -0.038 A 
ATOM     16  C   UNL d   1      -0.448  -4.987   2.409  0.00  0.00     0.048 A 
ATOM     17  C   UNL d   1      -0.193  -5.168   3.753  0.00  0.00     0.105 A 
ATOM     18  O   UNL d   1       0.646  -6.098   4.287  0.00  0.00    -0.323 OA
ATOM     19  C   UNL d   1      -0.799  -4.398   4.718  0.00  0.00     0.105 A 
ATOM     20  C   UNL d   1       0.514  -5.809   5.695  0.00  0.00     0.352 A 
ATOM     21  O   UNL d   1      -0.422  -4.747   5.977  0.00  0.00    -0.323 OA
ATOM     22  C   UNL d   1      -1.685  -3.396   4.391  0.00  0.00     0.040 A 
ATOM     23  C   UNL d   1      -1.962  -3.187   3.036  0.00  0.00     0.012 A 
ENDBRANCH  14  15
ENDBRANCH  12  14
ENDBRANCH   6  12
BRANCH   3  24
ATOM     24  C   UNL d   1       3.514   1.417  -0.035  0.00  0.00    -0.018 C 
ATOM     25  C   UNL d   1       4.245   0.936  -1.304  0.00  0.00     0.020 C 
ATOM     26  C   UNL d   1       3.571   2.961  -0.020  0.00  0.00     0.020 C 
ATOM     27  C   UNL d   1       4.266   0.913   1.213  0.00  0.00     0.020 C 
ENDBRANCH   3  24
TORSDOF 4
