REMARK  3 active torsions:
REMARK  status: ('A' for Active; 'I' for Inactive)
REMARK    1  A    between atoms: C_8  and  N_1 
REMARK    2  A    between atoms: C_9  and  C_2 
REMARK    3  A    between atoms: C_11  and  C_7 
ROOT
ATOM      1  N   UNL d   1       0.112  -1.499   0.078  0.00  0.00    -0.262 N 
ATOM      2  C   UNL d   1       1.390  -1.005  -0.020  0.00  0.00     0.126 A 
ATOM      3  N   UNL d   1       1.457   0.297  -0.094  0.00  0.00    -0.337 N 
ATOM      4  HN  UNL d   1       2.295   0.872  -0.175  1.00  0.00     0.167 HD
ATOM      5  C   UNL d   1       0.144   0.727  -0.038  0.00  0.00     0.104 A 
ATOM      6  C   UNL d   1      -0.772  -0.451   0.015  0.00  0.00     0.280 A 
ATOM      7  C   UNL d   1      -0.209   2.021  -0.011  0.00  0.00     0.046 C 
ATOM      8  O   UNL d   1      -1.987  -0.464  -0.037  0.00  0.00    -0.265 OA
ENDROOT
BRANCH   7   9
ATOM      9  C   UNL d   1      -1.582   2.518   0.073  0.00  0.00    -0.034 A 
ATOM     10  C   UNL d   1      -2.184   2.721   1.319  0.00  0.00     0.011 A 
ATOM     11  C   UNL d   1      -3.505   3.170   1.397  0.00  0.00     0.001 A 
ATOM     12  C   UNL d   1      -4.226   3.422   0.232  0.00  0.00     0.000 A 
ATOM     13  C   UNL d   1      -3.629   3.229  -1.013  0.00  0.00     0.001 A 
ATOM     14  C   UNL d   1      -2.309   2.779  -1.094  0.00  0.00     0.011 A 
ENDBRANCH   7   9
BRANCH   1  15
ATOM     15  C   UNL d   1      -0.320  -2.828   0.091  0.00  0.00     0.044 A 
ATOM     16  C   UNL d   1      -0.344  -3.583  -1.084  0.00  0.00     0.030 A 
ATOM     17  C   UNL d   1      -0.668  -4.939  -1.022  0.00  0.00     0.002 A 
ATOM     18  C   UNL d   1      -0.943  -5.538   0.210  0.00  0.00     0.000 A 
ATOM     19  C   UNL d   1      -0.937  -4.778   1.379  0.00  0.00     0.002 A 
ATOM     20  C   UNL d   1      -0.652  -3.415   1.318  0.00  0.00     0.030 A 
ENDBRANCH   1  15
BRANCH   2  21
ATOM     21  C   UNL d   1       2.622  -1.849  -0.043  0.00  0.00     0.009 A 
ATOM     22  C   UNL d   1       3.767  -1.322  -0.660  0.00  0.00     0.015 A 
ATOM     23  C   UNL d   1       4.949  -2.069  -0.727  0.00  0.00     0.001 A 
ATOM     24  C   UNL d   1       5.002  -3.347  -0.181  0.00  0.00     0.000 A 
ATOM     25  C   UNL d   1       3.885  -3.870   0.463  0.00  0.00     0.001 A 
ATOM     26  C   UNL d   1       2.714  -3.113   0.550  0.00  0.00     0.015 A 
ENDBRANCH   2  21
TORSDOF 3
