REMARK  3 active torsions:
REMARK  status: ('A' for Active; 'I' for Inactive)
REMARK    1  A    between atoms: N_12  and  C_11 
REMARK    2  A    between atoms: C_19  and  N_12 
REMARK    3  A    between atoms: O_26  and  C_15 
ROOT
ATOM      1  C   UNL d   1      -0.008  -0.728  -0.032  0.00  0.00     0.135 C 
ATOM      2  C   UNL d   1      -0.033   0.625   0.076  0.00  0.00     0.128 C 
ATOM      3  N   UNL d   1       1.241  -1.376   0.012  0.00  0.00    -0.288 N 
ATOM      4  N   UNL d   1       2.405   0.676   0.003  0.00  0.00    -0.270 N 
ATOM      5  N   UNL d   1      -1.223  -1.443  -0.159  0.00  0.00    -0.303 N 
ATOM      6  C   UNL d   1       2.461  -0.695  -0.067  0.00  0.00     0.332 C 
ATOM      7  C   UNL d   1       1.242   1.386   0.170  0.00  0.00     0.269 C 
ATOM      8  C   UNL d   1      -2.503   0.589  -0.246  0.00  0.00     0.099 C 
ATOM      9  C   UNL d   1      -2.482  -0.858  -0.019  0.00  0.00     0.264 C 
ATOM     10  C   UNL d   1      -1.315   1.389   0.050  0.00  0.00     0.208 C 
ATOM     11  C   UNL d   1      -3.540   1.126  -0.917  0.00  0.00     0.109 C 
ATOM     12  O   UNL d   1       3.535  -1.296  -0.168  0.00  0.00    -0.246 OA
ATOM     13  O   UNL d   1       1.257   2.598   0.366  0.00  0.00    -0.267 OA
ATOM     14  O   UNL d   1      -3.522  -1.498   0.136  0.00  0.00    -0.267 OA
ATOM     15  O   UNL d   1      -1.403   2.595   0.231  0.00  0.00    -0.286 OA
ATOM     16  C   UNL d   1       1.410  -2.811   0.201  0.00  0.00     0.163 C 
ATOM     17  C   UNL d   1       3.647   1.431   0.015  0.00  0.00     0.164 C 
ATOM     18  C   UNL d   1      -1.331  -2.817  -0.622  0.00  0.00     0.161 C 
ENDROOT
BRANCH  11  19
ATOM     19  N   UNL d   1      -4.634   0.439  -1.392  0.00  0.00    -0.363 N 
ATOM     20  H   UNL d   1      -4.683  -0.527  -1.052  0.00  0.00     0.165 HD
BRANCH  19  21
ATOM     21  C   UNL d   1      -5.720   0.807  -2.210  0.00  0.00     0.065 A 
ATOM     22  C   UNL d   1      -6.008   2.100  -2.695  0.00  0.00     0.096 A 
ATOM     23  C   UNL d   1      -7.136   2.306  -3.507  0.00  0.00     0.062 A 
ATOM     24  C   UNL d   1      -7.982   1.245  -3.831  0.00  0.00     0.036 A 
ATOM     25  C   UNL d   1      -7.703  -0.035  -3.385  0.00  0.00     0.026 A 
ATOM     26 CL   UNL d   1      -9.379   1.527  -4.794  0.00  0.00    -0.084 Cl
ATOM     27  C   UNL d   1      -6.578  -0.250  -2.590  0.00  0.00     0.034 A 
BRANCH  22  28
ATOM     28  O   UNL d   1      -5.149   3.118  -2.371  0.00  0.00    -0.354 OA
ATOM     29  C   UNL d   1      -5.660   4.444  -2.420  0.00  0.00     0.210 C 
ENDBRANCH  22  28
ENDBRANCH  19  21
ENDBRANCH  11  19
TORSDOF 3
