REMARK  4 active torsions:
REMARK  status: ('A' for Active; 'I' for Inactive)
REMARK    1  A    between atoms: C_10  and  C_3 
REMARK    2  A    between atoms: S_16  and  C_4 
REMARK    3  A    between atoms: C_8  and  C_11 
REMARK    4  A    between atoms: C_9  and  C_12 
ROOT
ATOM      1  C   UNL d   1      -0.630  -2.503  -0.041  0.00  0.00     0.011 A 
ATOM      2  C   UNL d   1      -1.779  -4.365  -1.135  0.00  0.00     0.049 A 
ATOM      3  C   UNL d   1      -0.451  -4.766   0.875  0.00  0.00     0.049 A 
ATOM      4  C   UNL d   1      -1.269  -5.240  -0.162  0.00  0.00     0.032 A 
ATOM      5  C   UNL d   1      -1.454  -2.998  -1.062  0.00  0.00     0.031 A 
ATOM      6  C   UNL d   1      -0.153  -3.394   0.930  0.00  0.00     0.031 A 
ENDROOT
BRANCH   1   7
ATOM      7  C   UNL d   1      -0.239  -1.098   0.030  0.00  0.00     0.132 A 
ATOM      8  N   UNL d   1       0.114  -0.425   1.111  0.00  0.00    -0.320 N 
ATOM      9  C   UNL d   1       0.433   0.814   0.629  0.00  0.00     0.157 A 
ATOM     10  HN  UNL d   1       0.142  -0.752   2.076  1.00  0.00     0.169 HD
ATOM     11  N   UNL d   1       0.317   0.955  -0.690  0.00  0.00    -0.278 N 
ATOM     12  N   UNL d   1      -0.101  -0.267  -1.050  0.00  0.00    -0.283 N 
ATOM     13  HN  UNL d   1       0.498   1.774  -1.271  1.00  0.00     0.189 HD
ATOM     14  H   UNL d   1      -0.236  -0.473  -2.033  0.00  0.00     0.188 HD
BRANCH   9  15
ATOM     15  S   UNL d   1       0.969   2.105   1.657  0.00  0.00    -0.106 SA
ATOM     16  H   UNL d   1       0.893   1.413   2.800  0.00  0.00     0.110 HD
ENDBRANCH   9  15
ENDBRANCH   1   7
BRANCH   2  17
ATOM     17  C   UNL d   1      -2.653  -4.870  -2.260  0.00  0.00     0.417 C 
ATOM     18  F   UNL d   1      -2.836  -6.218  -2.249  0.00  0.00    -0.166 F 
ATOM     19  F   UNL d   1      -3.896  -4.318  -2.238  0.00  0.00    -0.166 F 
ATOM     20  F   UNL d   1      -2.132  -4.570  -3.482  0.00  0.00    -0.166 F 
ENDBRANCH   2  17
BRANCH   3  21
ATOM     21  C   UNL d   1       0.131  -5.700   1.910  0.00  0.00     0.417 C 
ATOM     22  F   UNL d   1      -0.199  -7.005   1.704  0.00  0.00    -0.166 F 
ATOM     23  F   UNL d   1       1.492  -5.660   1.932  0.00  0.00    -0.166 F 
ATOM     24  F   UNL d   1      -0.277  -5.404   3.172  0.00  0.00    -0.166 F 
ENDBRANCH   3  21
TORSDOF 4
