REMARK  5 active torsions:
REMARK  status: ('A' for Active; 'I' for Inactive)
REMARK    1  A    between atoms: C_6  and  C_1 
REMARK    2  A    between atoms: C_3  and  C_2 
REMARK       I    between atoms: N_9  and  C_3 
REMARK    3  A    between atoms: C_12  and  C_7 
REMARK    4  A    between atoms: C_8  and  N_9 
REMARK    5  A    between atoms: O_21  and  C_12 
ROOT
ATOM      1  C   UNL d   1      -1.299  -0.433  -0.718  0.00  0.00     0.086 A 
ATOM      2  C   UNL d   1      -0.173  -1.173  -0.219  0.00  0.00     0.093 A 
ATOM      3  N   UNL d   1      -1.079   0.884  -0.542  0.00  0.00    -0.259 N 
ATOM      4  HN  UNL d   1      -1.670   1.646  -0.875  1.00  0.00     0.195 HD
ATOM      5  O   UNL d   1       0.086   1.010   0.166  0.00  0.00    -0.241 OA
ATOM      6  C   UNL d   1       0.625  -0.212   0.370  0.00  0.00     0.090 A 
ATOM      7  C   UNL d   1       1.872  -0.233   1.161  0.00  0.00     0.080 C 
ENDROOT
BRANCH   2   8
ATOM      8  C   UNL d   1       0.200  -2.571  -0.296  0.00  0.00     0.261 C 
ATOM      9  N   UNL d   1      -0.778  -3.473   0.073  0.00  0.00    -0.322 N 
ATOM     10  H   UNL d   1      -1.524  -3.130   0.681  0.00  0.00     0.169 HD
ATOM     11  O   UNL d   1       1.343  -2.888  -0.608  0.00  0.00    -0.267 OA
BRANCH   9  12
ATOM     12  C   UNL d   1      -0.655  -4.885  -0.049  0.00  0.00     0.052 A 
ATOM     13  C   UNL d   1      -1.342  -5.744   0.835  0.00  0.00     0.066 A 
ATOM     14  C   UNL d   1      -1.204  -7.140   0.703  0.00  0.00     0.022 A 
ATOM     15  C   UNL d   1      -0.431  -7.682  -0.325  0.00  0.00     0.025 A 
ATOM     16  C   UNL d   1       0.212  -6.834  -1.220  0.00  0.00     0.036 A 
ATOM     17  C   UNL d   1       0.118  -5.449  -1.077  0.00  0.00     0.054 A 
ATOM     18 CL   UNL d   1       1.105  -7.503  -2.530  0.00  0.00    -0.084 Cl
BRANCH  13  19
ATOM     19  C   UNL d   1      -2.212  -5.181   1.906  0.00  0.00     0.295 C 
ATOM     20  O   UNL d   1      -2.624  -4.033   1.877  0.00  0.00    -0.259 OA
BRANCH  19  21
ATOM     21  O   UNL d   1      -2.452  -6.096   2.869  0.00  0.00    -0.322 OA
ATOM     22  C   UNL d   1      -3.329  -5.666   3.911  0.00  0.00     0.213 C 
ENDBRANCH  19  21
ENDBRANCH  13  19
ENDBRANCH   9  12
ENDBRANCH   2   8
BRANCH   1  23
ATOM     23  C   UNL d   1      -2.553  -0.860  -1.366  0.00  0.00     0.037 A 
ATOM     24  C   UNL d   1      -3.792  -0.298  -0.968  0.00  0.00     0.048 A 
ATOM     25 CL   UNL d   1      -3.964   0.848   0.329  0.00  0.00    -0.083 Cl
ATOM     26  C   UNL d   1      -4.995  -0.659  -1.593  0.00  0.00     0.025 A 
ATOM     27  C   UNL d   1      -5.007  -1.621  -2.592  0.00  0.00     0.003 A 
ATOM     28  C   UNL d   1      -3.807  -2.192  -2.998  0.00  0.00     0.025 A 
ATOM     29  C   UNL d   1      -2.588  -1.793  -2.421  0.00  0.00     0.048 A 
ATOM     30 CL   UNL d   1      -1.172  -2.453  -3.166  0.00  0.00    -0.083 Cl
ENDBRANCH   1  23
TORSDOF 5
