REMARK  5 active torsions:
REMARK  status: ('A' for Active; 'I' for Inactive)
REMARK    1  A    between atoms: C_2  and  N_1 
REMARK    2  A    between atoms: N_3  and  C_8 
REMARK    3  A    between atoms: C_14  and  C_4 
REMARK    4  A    between atoms: C_5  and  C_16 
REMARK    5  A    between atoms: O_23  and  C_10 
ROOT
ATOM      1  C   UNL d   1       1.523  -1.557   4.723  0.00  0.00     0.055 C 
ATOM      2  C   UNL d   1       0.363  -2.121   4.298  0.00  0.00     0.035 C 
ATOM      3  C   UNL d   1       2.353  -0.782   3.800  0.00  0.00     0.100 C 
ATOM      4  N   UNL d   1       2.987  -0.176   3.024  0.00  0.00    -0.191 NA
ENDROOT
BRANCH   1   5
ATOM      5  C   UNL d   1       1.935  -1.731   6.169  0.00  0.00    -0.015 A 
ATOM      6  C   UNL d   1       1.690  -2.925   6.888  0.00  0.00     0.015 A 
ATOM      7  C   UNL d   1       2.085  -3.071   8.227  0.00  0.00     0.037 A 
ATOM      8  C   UNL d   1       2.743  -2.018   8.870  0.00  0.00     0.102 A 
ATOM      9  C   UNL d   1       3.010  -0.829   8.183  0.00  0.00     0.037 A 
ATOM     10  C   UNL d   1       2.607  -0.695   6.846  0.00  0.00     0.015 A 
BRANCH   8  11
ATOM     11  N   UNL d   1       3.154  -2.164  10.272  0.00  0.00    -0.116 N 
ATOM     12  O   UNL d   1       3.740  -1.210  10.803  0.00  0.00    -0.532 OA
ATOM     13  O   UNL d   1       2.888  -3.232  10.840  0.00  0.00    -0.532 OA
ENDBRANCH   8  11
ENDBRANCH   1   5
BRANCH   2  14
ATOM     14  C   UNL d   1      -0.180  -2.004   2.930  0.00  0.00    -0.032 A 
ATOM     15  C   UNL d   1      -1.163  -1.048   2.663  0.00  0.00     0.050 A 
ATOM     16  C   UNL d   1      -1.765  -0.992   1.389  0.00  0.00     0.137 A 
ATOM     17  C   UNL d   1      -1.365  -1.818   0.339  0.00  0.00     0.101 A 
ATOM     18  C   UNL d   1      -0.378  -2.771   0.621  0.00  0.00     0.040 A 
ATOM     19  C   UNL d   1       0.206  -2.870   1.899  0.00  0.00     0.014 A 
BRANCH  16  20
ATOM     20  N   UNL d   1      -2.928  -0.143   1.276  0.00  0.00    -0.113 N 
ATOM     21  O   UNL d   1      -2.747   1.076   1.387  0.00  0.00    -0.532 OA
ATOM     22  O   UNL d   1      -4.023  -0.700   1.116  0.00  0.00    -0.532 OA
ENDBRANCH  16  20
BRANCH  17  23
ATOM     23  O   UNL d   1      -1.853  -1.873  -0.937  0.00  0.00    -0.353 OA
ATOM     24  C   UNL d   1      -2.201  -0.639  -1.565  0.00  0.00     0.210 C 
ENDBRANCH  17  23
ENDBRANCH   2  14
TORSDOF 5
