REMARK  4 active torsions:
REMARK  status: ('A' for Active; 'I' for Inactive)
REMARK    1  A    between atoms: C_9  and  C_6 
REMARK    2  A    between atoms: C_8  and  C_7 
REMARK    3  A    between atoms: C_20  and  C_10 
REMARK    4  A    between atoms: C_21  and  C_11 
ROOT
ATOM      1  O   UNL d   1      -1.045  -0.009  -0.038  0.00  0.00    -0.273 OA
ATOM      2  N   UNL d   1       1.075   0.702  -0.015  0.00  0.00    -0.277 N 
ATOM      3  HN  UNL d   1       1.885   1.321  -0.009  1.00  0.00     0.189 HD
ATOM      4  N   UNL d   1       1.088  -0.678   0.006  0.00  0.00    -0.277 N 
ATOM      5  HN  UNL d   1       1.911  -1.280   0.025  1.00  0.00     0.189 HD
ATOM      6  C   UNL d   1      -0.172  -1.064  -0.003  0.00  0.00     0.174 A 
ATOM      7  C   UNL d   1      -0.193   1.062  -0.043  0.00  0.00     0.174 A 
ENDROOT
BRANCH   6   8
ATOM      8  C   UNL d   1      -0.745  -2.400   0.045  0.00  0.00     0.017 A 
ATOM      9  C   UNL d   1       0.095  -3.517   0.043  0.00  0.00     0.017 A 
ATOM     10  C   UNL d   1      -0.433  -4.812   0.130  0.00  0.00     0.013 A 
ATOM     11  C   UNL d   1      -1.817  -5.039   0.238  0.00  0.00    -0.026 A 
ATOM     12  C   UNL d   1      -2.649  -3.906   0.224  0.00  0.00     0.013 A 
ATOM     13  C   UNL d   1      -2.126  -2.611   0.119  0.00  0.00     0.017 A 
BRANCH  11  14
ATOM     14  C   UNL d   1      -2.370  -6.409   0.368  0.00  0.00    -0.026 A 
ATOM     15  C   UNL d   1      -3.629  -6.749  -0.164  0.00  0.00     0.012 A 
ATOM     16  C   UNL d   1      -4.152  -8.040  -0.040  0.00  0.00     0.001 A 
ATOM     17  C   UNL d   1      -3.422  -9.029   0.609  0.00  0.00     0.000 A 
ATOM     18  C   UNL d   1      -2.175  -8.725   1.144  0.00  0.00     0.001 A 
ATOM     19  C   UNL d   1      -1.662  -7.429   1.031  0.00  0.00     0.012 A 
ENDBRANCH  11  14
ENDBRANCH   6   8
BRANCH   7  20
ATOM     20  C   UNL d   1      -0.790   2.388  -0.098  0.00  0.00     0.017 A 
ATOM     21  C   UNL d   1       0.029   3.519  -0.043  0.00  0.00     0.017 A 
ATOM     22  C   UNL d   1      -0.519   4.806  -0.134  0.00  0.00     0.013 A 
ATOM     23  C   UNL d   1      -1.900   5.010  -0.297  0.00  0.00    -0.026 A 
ATOM     24  C   UNL d   1      -2.712   3.862  -0.334  0.00  0.00     0.013 A 
ATOM     25  C   UNL d   1      -2.171   2.575  -0.226  0.00  0.00     0.017 A 
BRANCH  23  26
ATOM     26  C   UNL d   1      -2.470   6.371  -0.436  0.00  0.00    -0.026 A 
ATOM     27  C   UNL d   1      -3.756   6.685   0.041  0.00  0.00     0.012 A 
ATOM     28  C   UNL d   1      -4.296   7.968  -0.098  0.00  0.00     0.001 A 
ATOM     29  C   UNL d   1      -3.554   8.974  -0.709  0.00  0.00     0.000 A 
ATOM     30  C   UNL d   1      -2.279   8.697  -1.190  0.00  0.00     0.001 A 
ATOM     31  C   UNL d   1      -1.749   7.407  -1.061  0.00  0.00     0.012 A 
ENDBRANCH  23  26
ENDBRANCH   7  20
TORSDOF 4
