REMARK  8 active torsions:
REMARK  status: ('A' for Active; 'I' for Inactive)
REMARK    1  A    between atoms: C_10  and  N_1 
REMARK    2  A    between atoms: C_2  and  C_4 
REMARK    3  A    between atoms: C_3  and  C_5 
REMARK    4  A    between atoms: C_12  and  C_6 
REMARK    5  A    between atoms: C_8  and  C_14 
REMARK    6  A    between atoms: O_28  and  C_8 
REMARK    7  A    between atoms: C_9  and  C_29 
REMARK    8  A    between atoms: C_29  and  O_28 
ROOT
ATOM      1  C   UNL d   1      -2.216  -0.748   8.458  0.00  0.00    -0.065 C 
ATOM      2  C   UNL d   1      -2.199   0.247   7.784  0.00  0.00    -0.074 C 
ENDROOT
BRANCH   1   3
ATOM      3  C   UNL d   1      -2.227  -1.910   9.293  0.00  0.00     0.019 A 
ATOM      4  C   UNL d   1      -2.095  -3.186   8.739  0.00  0.00     0.036 A 
ATOM      5  C   UNL d   1      -2.059  -4.322   9.567  0.00  0.00     0.050 A 
ATOM      6  C   UNL d   1      -2.164  -4.154  10.958  0.00  0.00     0.032 A 
ATOM      7  C   UNL d   1      -2.308  -2.878  11.525  0.00  0.00     0.050 A 
ATOM      8  C   UNL d   1      -2.344  -1.760  10.677  0.00  0.00     0.036 A 
BRANCH   5   9
ATOM      9  C   UNL d   1      -1.895  -5.699   8.965  0.00  0.00     0.417 C 
ATOM     10  F   UNL d   1      -1.847  -6.692   9.897  0.00  0.00    -0.166 F 
ATOM     11  F   UNL d   1      -2.912  -6.027   8.123  0.00  0.00    -0.166 F 
ATOM     12  F   UNL d   1      -0.750  -5.816   8.239  0.00  0.00    -0.166 F 
ENDBRANCH   5   9
BRANCH   7  13
ATOM     13  C   UNL d   1      -2.407  -2.691  13.020  0.00  0.00     0.417 C 
ATOM     14  F   UNL d   1      -2.335  -3.859  13.717  0.00  0.00    -0.166 F 
ATOM     15  F   UNL d   1      -1.411  -1.902  13.509  0.00  0.00    -0.166 F 
ATOM     16  F   UNL d   1      -3.574  -2.102  13.396  0.00  0.00    -0.166 F 
ENDBRANCH   7  13
ENDBRANCH   1   3
BRANCH   2  17
ATOM     17  C   UNL d   1      -2.202   1.470   6.972  0.00  0.00     0.273 C 
BRANCH  17  18
ATOM     18  O   UNL d   1      -1.455   1.288   5.758  0.00  0.00    -0.305 OA
BRANCH  18  19
ATOM     19  C   UNL d   1      -2.133   0.645   4.780  0.00  0.00     0.294 C 
ATOM     20  O   UNL d   1      -3.276   0.219   4.842  0.00  0.00    -0.259 OA
BRANCH  19  21
ATOM     21  C   UNL d   1      -1.273   0.459   3.587  0.00  0.00     0.039 A 
ATOM     22  C   UNL d   1      -1.516  -0.658   2.774  0.00  0.00     0.020 A 
ATOM     23  C   UNL d   1      -0.763  -0.867   1.616  0.00  0.00     0.037 A 
ATOM     24  C   UNL d   1       0.231   0.055   1.265  0.00  0.00     0.102 A 
ATOM     25  C   UNL d   1       0.479   1.178   2.070  0.00  0.00     0.037 A 
ATOM     26  C   UNL d   1      -0.273   1.377   3.235  0.00  0.00     0.020 A 
BRANCH  24  27
ATOM     27  N   UNL d   1       1.012  -0.152   0.038  0.00  0.00    -0.116 N 
ATOM     28  O   UNL d   1       1.873   0.693  -0.245  0.00  0.00    -0.532 OA
ATOM     29  O   UNL d   1       0.763  -1.159  -0.641  0.00  0.00    -0.532 OA
ENDBRANCH  24  27
ENDBRANCH  19  21
ENDBRANCH  18  19
ENDBRANCH  17  18
ENDBRANCH   2  17
TORSDOF 8
