REMARK  3 active torsions:
REMARK  status: ('A' for Active; 'I' for Inactive)
REMARK    1  A    between atoms: C_3  and  C_1 
REMARK       I    between atoms: N_7  and  C_3 
REMARK    2  A    between atoms: C_9  and  C_5 
REMARK    3  A    between atoms: C_10  and  N_7 
ROOT
ATOM      1  C   UNL d   1      -0.178  -1.248   0.234  0.00  0.00     0.064 A 
ATOM      2  C   UNL d   1      -1.479  -0.669   0.384  0.00  0.00     0.057 A 
ATOM      3  C   UNL d   1       0.670  -0.163   0.048  0.00  0.00     0.065 A 
ATOM      4  C   UNL d   1      -1.343   0.701   0.273  0.00  0.00     0.087 A 
ATOM      5  O   UNL d   1      -0.031   1.004   0.074  0.00  0.00    -0.314 OA
ATOM      6  C   UNL d   1       2.126   0.001  -0.168  0.00  0.00     0.077 C 
ENDROOT
BRANCH   1   7
ATOM      7  C   UNL d   1       0.244  -2.650   0.260  0.00  0.00     0.258 C 
ATOM      8  N   UNL d   1      -0.796  -3.560   0.365  0.00  0.00    -0.323 N 
ATOM      9  H   UNL d   1      -1.734  -3.192   0.340  0.00  0.00     0.169 HD
ATOM     10  O   UNL d   1       1.429  -2.952   0.166  0.00  0.00    -0.267 OA
BRANCH   8  11
ATOM     11  C   UNL d   1      -0.694  -4.968   0.384  0.00  0.00     0.035 A 
ATOM     12  C   UNL d   1       0.514  -5.660   0.498  0.00  0.00     0.029 A 
ATOM     13  C   UNL d   1       0.540  -7.058   0.463  0.00  0.00     0.002 A 
ATOM     14  C   UNL d   1      -0.642  -7.777   0.318  0.00  0.00     0.000 A 
ATOM     15  C   UNL d   1      -1.855  -7.100   0.229  0.00  0.00     0.002 A 
ATOM     16  C   UNL d   1      -1.882  -5.702   0.272  0.00  0.00     0.029 A 
ENDBRANCH   8  11
ENDBRANCH   1   7
BRANCH   4  17
ATOM     17  C   UNL d   1      -2.272   1.825   0.317  0.00  0.00    -0.002 A 
ATOM     18  C   UNL d   1      -1.817   3.139   0.500  0.00  0.00     0.014 A 
ATOM     19  C   UNL d   1      -2.716   4.209   0.554  0.00  0.00     0.001 A 
ATOM     20  C   UNL d   1      -4.082   3.979   0.422  0.00  0.00     0.000 A 
ATOM     21  C   UNL d   1      -4.553   2.682   0.233  0.00  0.00     0.001 A 
ATOM     22  C   UNL d   1      -3.653   1.613   0.182  0.00  0.00     0.014 A 
ENDBRANCH   4  17
TORSDOF 3
