REMARK  4 active torsions:
REMARK  status: ('A' for Active; 'I' for Inactive)
REMARK    1  A    between atoms: N_2  and  C_1 
REMARK    2  A    between atoms: C_3  and  C_6 
REMARK    3  A    between atoms: O_7  and  C_4 
REMARK    4  A    between atoms: C_8  and  O_7 
ROOT
ATOM      1  C   UNL d   1       1.363  -0.100  -0.086  0.00  0.00     0.137 A 
ATOM      2  C   UNL d   1       0.534  -1.224  -0.032  0.00  0.00     0.109 A 
ATOM      3  C   UNL d   1       0.853   1.204   0.034  0.00  0.00     0.055 A 
ATOM      4  C   UNL d   1      -0.529   1.392   0.219  0.00  0.00     0.050 A 
ATOM      5  C   UNL d   1      -0.829  -1.027   0.224  0.00  0.00     0.040 A 
ATOM      6  C   UNL d   1      -1.357   0.262   0.316  0.00  0.00     0.019 A 
ENDROOT
BRANCH   2   7
ATOM      7  O   UNL d   1       1.074  -2.483  -0.182  0.00  0.00    -0.307 OA
BRANCH   7   8
ATOM      8  C   UNL d   1       0.321  -3.442  -0.836  0.00  0.00     0.098 A 
ATOM      9  C   UNL d   1       0.319  -4.753  -0.339  0.00  0.00     0.069 A 
ATOM     10  C   UNL d   1      -0.456  -5.739  -0.954  0.00  0.00     0.050 A 
ATOM     11 CL   UNL d   1       1.238  -5.185   1.056  0.00  0.00    -0.081 Cl
ATOM     12  C   UNL d   1      -1.231  -5.412  -2.065  0.00  0.00     0.035 A 
ATOM     13  C   UNL d   1      -1.214  -4.120  -2.587  0.00  0.00     0.026 A 
ATOM     14 CL   UNL d   1      -2.219  -6.611  -2.804  0.00  0.00    -0.084 Cl
ATOM     15  C   UNL d   1      -0.415  -3.143  -1.992  0.00  0.00     0.041 A 
ENDBRANCH   7   8
ENDBRANCH   2   7
BRANCH   1  16
ATOM     16  N   UNL d   1       2.791  -0.253  -0.282  0.00  0.00    -0.113 N 
ATOM     17  O   UNL d   1       3.167  -0.785  -1.334  0.00  0.00    -0.532 OA
ATOM     18  O   UNL d   1       3.527   0.216   0.596  0.00  0.00    -0.532 OA
ENDBRANCH   1  16
BRANCH   4  19
ATOM     19  C   UNL d   1      -1.139   2.770   0.313  0.00  0.00     0.417 C 
ATOM     20  F   UNL d   1      -0.220   3.772   0.303  0.00  0.00    -0.166 F 
ATOM     21  F   UNL d   1      -1.988   3.024  -0.719  0.00  0.00    -0.166 F 
ATOM     22  F   UNL d   1      -1.867   2.932   1.450  0.00  0.00    -0.166 F 
ENDBRANCH   4  19
TORSDOF 4
