REMARK  3 active torsions:
REMARK  status: ('A' for Active; 'I' for Inactive)
REMARK    1  A    between atoms: C_6  and  N_1 
REMARK    2  A    between atoms: C_7  and  C_6 
REMARK    3  A    between atoms: C_8  and  C_7 
ROOT
ATOM      1  N   UNL d   1       1.842  -0.108  -0.121  0.00  0.00    -0.273 N 
ATOM      2  C   UNL d   1       1.014  -0.123  -1.207  0.00  0.00     0.262 A 
ATOM      3  C   UNL d   1       1.146  -0.279   1.046  0.00  0.00     0.262 A 
ATOM      4  C   UNL d   1      -0.348  -0.236  -0.698  0.00  0.00     0.048 A 
ATOM      5  C   UNL d   1      -0.270  -0.322   0.680  0.00  0.00     0.048 A 
ATOM      6  O   UNL d   1       1.297  -0.081  -2.389  0.00  0.00    -0.267 OA
ATOM      7  O   UNL d   1       1.559  -0.434   2.177  0.00  0.00    -0.267 OA
ATOM      8  C   UNL d   1      -1.554  -0.275  -1.371  0.00  0.00     0.018 A 
ATOM      9  C   UNL d   1      -1.400  -0.444   1.465  0.00  0.00     0.018 A 
ATOM     10  C   UNL d   1      -2.711  -0.397  -0.598  0.00  0.00     0.001 A 
ATOM     11  C   UNL d   1      -2.635  -0.478   0.808  0.00  0.00     0.001 A 
ENDROOT
BRANCH   1  12
ATOM     12  C   UNL d   1       3.285  -0.016  -0.203  0.00  0.00     0.219 C 
BRANCH  12  13
ATOM     13  C   UNL d   1       3.716   1.439  -0.045  0.00  0.00     0.177 C 
ATOM     14  O   UNL d   1       3.596   2.035   1.026  0.00  0.00    -0.291 OA
BRANCH  13  15
ATOM     15  C   UNL d   1       4.258   2.195  -1.214  0.00  0.00     0.012 A 
ATOM     16  C   UNL d   1       3.981   1.838  -2.538  0.00  0.00     0.023 A 
ATOM     17  C   UNL d   1       4.450   2.612  -3.615  0.00  0.00    -0.039 A 
ATOM     18  C   UNL d   1       4.091   2.205  -5.017  0.00  0.00     0.050 C 
ATOM     19  C   UNL d   1       5.218   3.753  -3.344  0.00  0.00     0.040 A 
ATOM     20  C   UNL d   1       5.505   4.114  -2.026  0.00  0.00     0.025 A 
ATOM     21 CL   UNL d   1       5.825   4.756  -4.611  0.00  0.00    -0.084 Cl
ATOM     22  C   UNL d   1       5.021   3.343  -0.965  0.00  0.00     0.017 A 
ENDBRANCH  13  15
ENDBRANCH  12  13
ENDBRANCH   1  12
TORSDOF 3
