REMARK  5 active torsions:
REMARK  status: ('A' for Active; 'I' for Inactive)
REMARK    1  A    between atoms: C_2  and  C_1 
REMARK       I    between atoms: N_3  and  C_1 
REMARK       I    between atoms: N_4  and  C_2 
REMARK    2  A    between atoms: C_5  and  N_3 
REMARK    3  A    between atoms: C_6  and  N_4 
REMARK    4  A    between atoms: C_5  and  C_9 
REMARK    5  A    between atoms: C_10  and  C_6 
ROOT
ATOM      1  C   UNL d   1       1.071  -0.233  -0.227  0.00  0.00     0.309 C 
ATOM      2  N   UNL d   1       2.430  -0.436  -0.387  0.00  0.00    -0.345 N 
ATOM      3  O   UNL d   1       0.390  -0.637   0.704  0.00  0.00    -0.262 OA
ATOM      4  H   UNL d   1       2.876   0.078  -1.143  0.00  0.00     0.163 HD
ENDROOT
BRANCH   1   5
ATOM      5  C   UNL d   1       0.418   0.623  -1.341  0.00  0.00     0.309 C 
ATOM      6  N   UNL d   1      -0.958   0.730  -1.249  0.00  0.00    -0.345 N 
ATOM      7  H   UNL d   1      -1.397   0.296  -0.442  0.00  0.00     0.163 HD
ATOM      8  O   UNL d   1       1.127   1.164  -2.180  0.00  0.00    -0.262 OA
BRANCH   6   9
ATOM      9  C   UNL d   1      -1.705   1.688  -2.046  0.00  0.00     0.114 C 
ATOM     10  C   UNL d   1      -1.487   3.114  -1.523  0.00  0.00     0.037 C 
BRANCH   9  11
ATOM     11  C   UNL d   1      -3.181   1.317  -2.158  0.00  0.00    -0.036 A 
ATOM     12  C   UNL d   1      -4.172   1.871  -1.328  0.00  0.00     0.009 A 
ATOM     13  C   UNL d   1      -5.531   1.612  -1.554  0.00  0.00     0.001 A 
ATOM     14  C   UNL d   1      -5.918   0.773  -2.594  0.00  0.00     0.000 A 
ATOM     15  C   UNL d   1      -4.947   0.172  -3.395  0.00  0.00     0.001 A 
ATOM     16  C   UNL d   1      -3.593   0.437  -3.173  0.00  0.00     0.009 A 
ENDBRANCH   9  11
ENDBRANCH   6   9
ENDBRANCH   1   5
BRANCH   2  17
ATOM     17  C   UNL d   1       3.264  -1.012   0.666  0.00  0.00     0.114 C 
ATOM     18  C   UNL d   1       3.715   0.126   1.593  0.00  0.00     0.037 C 
BRANCH  17  19
ATOM     19  C   UNL d   1       4.406  -1.873   0.116  0.00  0.00    -0.036 A 
ATOM     20  C   UNL d   1       5.504  -2.236   0.924  0.00  0.00     0.009 A 
ATOM     21  C   UNL d   1       6.488  -3.115   0.470  0.00  0.00     0.001 A 
ATOM     22  C   UNL d   1       6.399  -3.670  -0.801  0.00  0.00     0.000 A 
ATOM     23  C   UNL d   1       5.320  -3.339  -1.616  0.00  0.00     0.001 A 
ATOM     24  C   UNL d   1       4.334  -2.457  -1.163  0.00  0.00     0.009 A 
ENDBRANCH  17  19
ENDBRANCH   2  17
TORSDOF 5
