REMARK  3 active torsions:
REMARK  status: ('A' for Active; 'I' for Inactive)
REMARK    1  A    between atoms: N_2  and  S_1 
REMARK    2  A    between atoms: C_5  and  S_1 
REMARK    3  A    between atoms: C_3  and  N_2 
ROOT
ATOM      1  N   UNL d   1       0.632  -1.433  -0.664  0.00  0.00    -0.180 NA
ATOM      2  H   UNL d   1      -0.235  -1.904  -0.406  0.00  0.00     0.146 HD
ENDROOT
BRANCH   1   3
ATOM      3  S   UNL d   1       0.536   0.198  -0.157  0.00  0.00     0.245 S 
ATOM      4  O   UNL d   1      -0.657   0.762  -0.757  0.00  0.00    -0.206 OA
ATOM      5  O   UNL d   1       1.825   0.837  -0.298  0.00  0.00    -0.206 OA
BRANCH   3   6
ATOM      6  C   UNL d   1       0.201   0.003   1.582  0.00  0.00     0.074 A 
ATOM      7  C   UNL d   1       1.259  -0.123   2.486  0.00  0.00     0.025 A 
ATOM      8  C   UNL d   1       0.989  -0.212   3.855  0.00  0.00     0.008 A 
ATOM      9  C   UNL d   1      -0.331  -0.158   4.327  0.00  0.00    -0.062 A 
ATOM     10  C   UNL d   1      -1.381  -0.027   3.410  0.00  0.00     0.008 A 
ATOM     11  C   UNL d   1      -0.601  -0.218   5.803  0.00  0.00     0.048 C 
ATOM     12  C   UNL d   1      -1.119   0.058   2.040  0.00  0.00     0.025 A 
ENDBRANCH   3   6
ENDBRANCH   1   3
BRANCH   1  13
ATOM     13  C   UNL d   1       0.933  -1.589  -2.069  0.00  0.00     0.035 A 
ATOM     14  C   UNL d   1       2.277  -1.688  -2.563  0.00  0.00     0.014 A 
ATOM     15  C   UNL d   1       3.487  -1.848  -1.813  0.00  0.00     0.023 A 
ATOM     16  C   UNL d   1       2.429  -1.642  -3.981  0.00  0.00    -0.023 A 
ATOM     17 BR   UNL d   1       3.540  -2.213   0.060  0.00  0.00    -0.050 Br
ATOM     18  C   UNL d   1       4.748  -1.852  -2.431  0.00  0.00     0.020 A 
ATOM     19  C   UNL d   1       4.855  -1.746  -3.808  0.00  0.00     0.002 A 
ATOM     20  C   UNL d   1       3.701  -1.664  -4.576  0.00  0.00     0.012 A 
ATOM     21  C   UNL d   1       1.311  -1.577  -4.827  0.00  0.00     0.012 A 
ATOM     22  C   UNL d   1       0.021  -1.523  -4.315  0.00  0.00     0.003 A 
ATOM     23  C   UNL d   1      -0.165  -1.510  -2.942  0.00  0.00     0.025 A 
ENDBRANCH   1  13
TORSDOF 3
