REMARK  3 active torsions:
REMARK  status: ('A' for Active; 'I' for Inactive)
REMARK    1  A    between atoms: C_3  and  C_1 
REMARK       I    between atoms: N_6  and  C_3 
REMARK    2  A    between atoms: C_8  and  N_6 
REMARK    3  A    between atoms: N_7  and  C_10 
ROOT
ATOM      1  C   UNL d   1      -3.808  -4.201  -0.806  0.00  0.00     0.262 C 
ATOM      2  N   UNL d   1      -2.648  -3.569  -0.443  0.00  0.00    -0.321 N 
ATOM      3  O   UNL d   1      -3.973  -5.423  -0.755  0.00  0.00    -0.267 OA
ATOM      4  H   UNL d   1      -2.654  -2.567  -0.247  0.00  0.00     0.169 HD
ENDROOT
BRANCH   2   5
ATOM      5  C   UNL d   1      -1.446  -4.225  -0.096  0.00  0.00     0.061 A 
ATOM      6  C   UNL d   1      -0.610  -3.617   0.875  0.00  0.00     0.057 A 
ATOM      7  C   UNL d   1       0.652  -4.192   1.081  0.00  0.00     0.031 A 
ATOM      8  C   UNL d   1       1.065  -5.324   0.365  0.00  0.00     0.002 A 
ATOM      9  C   UNL d   1       0.218  -5.916  -0.564  0.00  0.00     0.002 A 
ATOM     10  C   UNL d   1      -1.043  -5.375  -0.787  0.00  0.00     0.032 A 
BRANCH   6  11
ATOM     11  N   UNL d   1      -1.055  -2.490   1.571  0.00  0.00    -0.375 N 
ATOM     12  C   UNL d   1      -0.094  -1.579   2.219  0.00  0.00     0.149 C 
ATOM     13  C   UNL d   1      -0.794  -0.223   2.433  0.00  0.00     0.187 C 
ATOM     14  O   UNL d   1      -2.001  -0.355   3.210  0.00  0.00    -0.388 OA
ATOM     15  C   UNL d   1      -2.911  -1.276   2.580  0.00  0.00     0.187 C 
ATOM     16  C   UNL d   1      -2.263  -2.660   2.416  0.00  0.00     0.149 C 
ENDBRANCH   6  11
ENDBRANCH   2   5
BRANCH   1  17
ATOM     17  C   UNL d   1      -4.918  -3.316  -1.262  0.00  0.00     0.108 C 
ATOM     18  C   UNL d   1      -4.751  -1.873  -1.557  0.00  0.00     0.304 C 
ATOM     19  O   UNL d   1      -5.772  -1.255  -2.272  0.00  0.00    -0.274 OA
ATOM     20  O   UNL d   1      -3.765  -1.244  -1.177  0.00  0.00    -0.259 OA
ATOM     21  C   UNL d   1      -6.955  -1.940  -2.611  0.00  0.00     0.089 A 
ATOM     22  C   UNL d   1      -7.168  -3.240  -2.168  0.00  0.00    -0.001 A 
ATOM     23  C   UNL d   1      -7.884  -1.288  -3.418  0.00  0.00     0.038 A 
ATOM     24  C   UNL d   1      -6.097  -3.925  -1.473  0.00  0.00     0.037 C 
ATOM     25  C   UNL d   1      -8.350  -3.898  -2.516  0.00  0.00     0.014 A 
ATOM     26  C   UNL d   1      -9.285  -3.260  -3.333  0.00  0.00     0.001 A 
ATOM     27  C   UNL d   1      -9.049  -1.962  -3.790  0.00  0.00     0.003 A 
ENDBRANCH   1  17
TORSDOF 3
