REMARK  3 active torsions:
REMARK  status: ('A' for Active; 'I' for Inactive)
REMARK    1  A    between atoms: C_9  and  C_3 
REMARK    2  A    between atoms: C_10  and  C_6 
REMARK    3  A    between atoms: N_8  and  C_10 
ROOT
ATOM      1  N   UNL d   1      -0.532  -0.166   0.450  0.00  0.00    -0.321 N 
ATOM      2  HN  UNL d   1      -0.542  -0.212   1.469  1.00  0.00     0.169 HD
ATOM      3  C   UNL d   1      -1.159   0.745  -0.376  0.00  0.00     0.137 A 
ATOM      4  N   UNL d   1      -0.936   0.529  -1.685  0.00  0.00    -0.242 N 
ATOM      5  HN  UNL d   1      -1.276   1.071  -2.480  1.00  0.00     0.196 HD
ATOM      6  C   UNL d   1       0.081  -0.960  -0.400  0.00  0.00     0.166 A 
ATOM      7  O   UNL d   1      -0.134  -0.610  -1.702  0.00  0.00    -0.221 OA
ENDROOT
BRANCH   6   8
ATOM      8  C   UNL d   1       0.843  -2.220  -0.155  0.00  0.00     0.203 C 
BRANCH   8   9
ATOM      9  N   UNL d   1       2.308  -2.160  -0.021  0.00  0.00    -0.405 N 
ATOM     10  C   UNL d   1       3.046  -1.722  -1.201  0.00  0.00     0.117 C 
ATOM     11  C   UNL d   1       3.195  -0.206  -1.335  0.00  0.00     0.024 C 
ATOM     12  C   UNL d   1       3.680   0.464  -0.043  0.00  0.00    -0.016 C 
ATOM     13  C   UNL d   1       2.921  -0.047   1.187  0.00  0.00     0.024 C 
ATOM     14  C   UNL d   1       3.538   1.982  -0.153  0.00  0.00     0.010 C 
ATOM     15  C   UNL d   1       2.812  -1.569   1.214  0.00  0.00     0.117 C 
ENDBRANCH   8   9
ENDBRANCH   6   8
BRANCH   3  16
ATOM     16  C   UNL d   1      -2.014   1.808   0.147  0.00  0.00     0.010 A 
ATOM     17  C   UNL d   1      -2.259   1.887   1.528  0.00  0.00     0.017 A 
ATOM     18  C   UNL d   1      -3.090   2.883   2.053  0.00  0.00     0.025 A 
ATOM     19  C   UNL d   1      -3.680   3.811   1.199  0.00  0.00     0.034 A 
ATOM     20  C   UNL d   1      -3.449   3.750  -0.174  0.00  0.00     0.025 A 
ATOM     21 CL   UNL d   1      -4.702   5.035   1.844  0.00  0.00    -0.084 Cl
ATOM     22  C   UNL d   1      -2.619   2.751  -0.698  0.00  0.00     0.017 A 
ENDBRANCH   3  16
TORSDOF 3
