REMARK  5 active torsions:
REMARK  status: ('A' for Active; 'I' for Inactive)
REMARK       I    between atoms: N_2  and  C_1 
REMARK    1  A    between atoms: C_10  and  C_1 
REMARK    2  A    between atoms: C_11  and  N_2 
REMARK    3  A    between atoms: C_3  and  C_4 
REMARK    4  A    between atoms: S_5  and  C_10 
REMARK    5  A    between atoms: C_12  and  S_5 
ROOT
ATOM      1  C   UNL d   1       1.042   0.075  -0.022  0.00  0.00     0.231 C 
ATOM      2  N   UNL d   1       0.363   0.921  -0.882  0.00  0.00    -0.327 N 
ATOM      3  O   UNL d   1       2.239  -0.203  -0.099  0.00  0.00    -0.272 OA
ATOM      4  H   UNL d   1      -0.593   1.143  -0.623  0.00  0.00     0.169 HD
ENDROOT
BRANCH   1   5
ATOM      5  C   UNL d   1       0.235  -0.471   1.155  0.00  0.00     0.182 C 
BRANCH   5   6
ATOM      6  S   UNL d   1      -1.522  -0.736   0.743  0.00  0.00    -0.121 SA
BRANCH   6   7
ATOM      7  C   UNL d   1      -2.163  -1.629   2.156  0.00  0.00     0.001 A 
ATOM      8  C   UNL d   1      -3.546  -1.545   2.373  0.00  0.00     0.020 A 
ATOM      9  C   UNL d   1      -4.164  -2.271   3.397  0.00  0.00     0.025 A 
ATOM     10  C   UNL d   1      -3.398  -3.093   4.216  0.00  0.00     0.034 A 
ATOM     11  C   UNL d   1      -2.024  -3.184   4.025  0.00  0.00     0.025 A 
ATOM     12 CL   UNL d   1      -4.159  -4.017   5.452  0.00  0.00    -0.084 Cl
ATOM     13  C   UNL d   1      -1.407  -2.455   2.998  0.00  0.00     0.020 A 
ENDBRANCH   6   7
ENDBRANCH   5   6
ENDBRANCH   1   5
BRANCH   2  14
ATOM     14  C   UNL d   1       0.836   1.458  -2.100  0.00  0.00     0.034 A 
ATOM     15  C   UNL d   1       2.049   1.089  -2.685  0.00  0.00     0.030 A 
ATOM     16  C   UNL d   1       2.441   1.621  -3.919  0.00  0.00     0.017 A 
ATOM     17  C   UNL d   1       1.623   2.530  -4.595  0.00  0.00     0.009 A 
ATOM     18  C   UNL d   1       0.418   2.926  -4.007  0.00  0.00     0.017 A 
ATOM     19  C   UNL d   1       0.025   2.384  -2.771  0.00  0.00     0.030 A 
BRANCH  17  20
ATOM     20  C   UNL d   1       2.087   3.033  -5.916  0.00  0.00     0.155 C 
ATOM     21  O   UNL d   1       3.292   3.083  -6.157  0.00  0.00    -0.293 OA
ATOM     22  C   UNL d   1       1.076   3.443  -6.957  0.00  0.00     0.096 C 
ENDBRANCH  17  20
ENDBRANCH   2  14
TORSDOF 5
