REMARK  4 active torsions:
REMARK  status: ('A' for Active; 'I' for Inactive)
REMARK    1  A    between atoms: C_6  and  S_1 
REMARK    2  A    between atoms: C_10  and  S_1 
REMARK    3  A    between atoms: C_4  and  C_6 
REMARK    4  A    between atoms: C_9  and  C_5 
ROOT
ATOM      1  N   UNL d   1       1.312   1.012   2.812  0.00  0.00    -0.352 N 
ATOM      2  HN  UNL d   1       1.384   0.026   2.559  1.00  0.00     0.166 HD
ATOM      3  C   UNL d   1       0.910   1.968   1.998  0.00  0.00     0.065 A 
ATOM      4  C   UNL d   1       1.623   1.534   4.062  0.00  0.00     0.049 A 
ATOM      5  S   UNL d   1       0.812   3.530   2.717  0.00  0.00    -0.085 SA
ATOM      6  C   UNL d   1       1.464   2.901   4.168  0.00  0.00     0.081 A 
ENDROOT
BRANCH   4   7
ATOM      7  C   UNL d   1       2.061   0.666   5.151  0.00  0.00    -0.006 A 
ATOM      8  C   UNL d   1       1.855   1.003   6.497  0.00  0.00     0.053 A 
ATOM      9  C   UNL d   1       2.237   0.129   7.522  0.00  0.00     0.102 A 
ATOM     10  O   UNL d   1       2.009   0.596   8.793  0.00  0.00    -0.348 OA
ATOM     11  C   UNL d   1       2.785  -1.121   7.205  0.00  0.00     0.102 A 
ATOM     12  C   UNL d   1       3.021   0.208   9.724  0.00  0.00     0.178 C 
ATOM     13  C   UNL d   1       2.732  -1.163  10.313  0.00  0.00     0.053 C 
ATOM     14  C   UNL d   1       2.275  -2.147   9.251  0.00  0.00     0.178 C 
ATOM     15  O   UNL d   1       3.126  -2.097   8.106  0.00  0.00    -0.348 OA
ATOM     16  C   UNL d   1       3.028  -1.445   5.870  0.00  0.00     0.040 A 
ATOM     17  C   UNL d   1       2.665  -0.561   4.851  0.00  0.00     0.017 A 
ENDBRANCH   4   7
BRANCH   3  18
ATOM     18  C   UNL d   1       0.417   1.714   0.611  0.00  0.00     0.206 C 
BRANCH  18  19
ATOM     19  S   UNL d   1       1.478   2.542  -0.573  0.00  0.00     0.157 S 
ATOM     20  O   UNL d   1       2.792   1.925  -0.518  0.00  0.00    -0.227 OA
ATOM     21  O   UNL d   1       1.341   3.974  -0.391  0.00  0.00    -0.227 OA
BRANCH  19  22
ATOM     22  C   UNL d   1       0.767   2.163  -2.216  0.00  0.00     0.053 C 
ATOM     23  C   UNL d   1      -0.677   2.677  -2.307  0.00  0.00     0.031 C 
ATOM     24  C   UNL d   1       1.618   2.890  -3.274  0.00  0.00     0.031 C 
ATOM     25  C   UNL d   1       0.805   0.656  -2.494  0.00  0.00     0.031 C 
ENDBRANCH  19  22
ENDBRANCH  18  19
ENDBRANCH   3  18
TORSDOF 4
