REMARK  5 active torsions:
REMARK  status: ('A' for Active; 'I' for Inactive)
REMARK    1  A    between atoms: C_8  and  C_6 
REMARK    2  A    between atoms: O_20  and  C_7 
REMARK    3  A    between atoms: O_21  and  C_10 
REMARK    4  A    between atoms: O_22  and  C_11 
REMARK    5  A    between atoms: O_23  and  C_12 
ROOT
ATOM      1  C   UNL d   1       0.781  -0.281  -0.033  0.00  0.00     0.052 A 
ATOM      2  N   UNL d   1       1.462  -1.449  -0.011  0.00  0.00    -0.335 N 
ATOM      3  HN  UNL d   1       0.972  -2.341  -0.074  1.00  0.00     0.168 HD
ATOM      4  C   UNL d   1       1.429   0.966  -0.002  0.00  0.00    -0.017 A 
ATOM      5  C   UNL d   1       3.544  -0.228   0.174  0.00  0.00     0.107 A 
ATOM      6  C   UNL d   1       2.864   1.019   0.086  0.00  0.00     0.008 A 
ATOM      7  C   UNL d   1       2.803  -1.405   0.097  0.00  0.00     0.164 A 
ATOM      8  C   UNL d   1      -0.693  -0.412  -0.040  0.00  0.00    -0.003 A 
ATOM      9  C   UNL d   1       4.958  -0.333   0.371  0.00  0.00     0.104 C 
ATOM     10  N   UNL d   1       6.114  -0.395   0.513  0.00  0.00    -0.191 NA
ATOM     11  C   UNL d   1       0.567   2.209   0.045  0.00  0.00     0.046 C 
ATOM     12  C   UNL d   1      -1.515   0.727  -0.096  0.00  0.00    -0.045 A 
ATOM     13  C   UNL d   1      -0.922   2.091  -0.276  0.00  0.00     0.044 C 
ATOM     14  C   UNL d   1      -1.329  -1.668   0.024  0.00  0.00     0.014 A 
ATOM     15  C   UNL d   1      -2.916   0.603  -0.065  0.00  0.00     0.008 A 
ATOM     16  C   UNL d   1      -2.723  -1.787   0.046  0.00  0.00     0.001 A 
ATOM     17  C   UNL d   1      -3.516  -0.649   0.010  0.00  0.00     0.001 A 
ENDROOT
BRANCH   6  18
ATOM     18  C   UNL d   1       3.628   2.318   0.075  0.00  0.00    -0.018 C 
ATOM     19  C   UNL d   1       4.788   2.500  -0.695  0.00  0.00     0.052 C 
ATOM     20  C   UNL d   1       5.524   3.706  -0.691  0.00  0.00     0.105 C 
ATOM     21  C   UNL d   1       5.013   4.849  -0.051  0.00  0.00     0.135 C 
ATOM     22  C   UNL d   1       3.824   4.705   0.680  0.00  0.00     0.105 C 
ATOM     23  C   UNL d   1       3.222   3.438   0.807  0.00  0.00     0.052 C 
BRANCH  20  24
ATOM     24  O   UNL d   1       6.709   3.768  -1.387  0.00  0.00    -0.353 OA
ATOM     25  C   UNL d   1       7.598   2.678  -1.120  0.00  0.00     0.210 C 
ENDBRANCH  20  24
BRANCH  21  26
ATOM     26  O   UNL d   1       5.569   6.098  -0.047  0.00  0.00    -0.351 OA
ATOM     27  C   UNL d   1       6.846   6.323  -0.616  0.00  0.00     0.210 C 
ENDBRANCH  21  26
BRANCH  22  28
ATOM     28  O   UNL d   1       3.099   5.662   1.349  0.00  0.00    -0.353 OA
ATOM     29  C   UNL d   1       3.383   7.035   1.123  0.00  0.00     0.210 C 
ENDBRANCH  22  28
ENDBRANCH   6  18
BRANCH   7  30
ATOM     30  O   UNL d   1       3.493  -2.604   0.135  0.00  0.00    -0.340 OA
ATOM     31  C   UNL d   1       2.662  -3.756   0.028  0.00  0.00     0.211 C 
ENDBRANCH   7  30
TORSDOF 5
