REMARK  3 active torsions:
REMARK  status: ('A' for Active; 'I' for Inactive)
REMARK    1  A    between atoms: N_2  and  C_1 
REMARK    2  A    between atoms: S_5  and  C_3 
REMARK    3  A    between atoms: C_10  and  S_5 
ROOT
ATOM      1  C   UNL d   1       1.679   1.238  -0.161  0.00  0.00     0.121 A 
ATOM      2  C   UNL d   1       2.472   0.089  -0.025  0.00  0.00     0.038 A 
ATOM      3  C   UNL d   1       0.277   1.189  -0.142  0.00  0.00     0.061 A 
ATOM      4  C   UNL d   1       1.809  -1.142   0.097  0.00  0.00     0.023 A 
ATOM      5  C   UNL d   1      -0.348  -0.045  -0.009  0.00  0.00     0.036 A 
ATOM      6  C   UNL d   1       0.409  -1.210   0.104  0.00  0.00     0.025 A 
ATOM      7 CL   UNL d   1      -2.064  -0.139  -0.002  0.00  0.00    -0.084 Cl
ENDROOT
BRANCH   2   8
ATOM      8  S   UNL d   1       4.258   0.072  -0.038  0.00  0.00    -0.088 SA
BRANCH   8   9
ATOM      9  C   UNL d   1       4.620   0.147   1.706  0.00  0.00     0.005 A 
ATOM     10  C   UNL d   1       4.677  -1.024   2.471  0.00  0.00     0.019 A 
ATOM     11  C   UNL d   1       5.005  -0.965   3.827  0.00  0.00     0.001 A 
ATOM     12  C   UNL d   1       5.285   0.262   4.425  0.00  0.00     0.000 A 
ATOM     13  C   UNL d   1       5.239   1.431   3.667  0.00  0.00     0.001 A 
ATOM     14  C   UNL d   1       4.909   1.374   2.310  0.00  0.00     0.019 A 
ENDBRANCH   8   9
ENDBRANCH   2   8
BRANCH   1  15
ATOM     15  N   UNL d   1       2.282   2.542  -0.352  0.00  0.00    -0.114 N 
ATOM     16  O   UNL d   1       2.909   2.729  -1.401  0.00  0.00    -0.532 OA
ATOM     17  O   UNL d   1       2.069   3.388   0.526  0.00  0.00    -0.532 OA
ENDBRANCH   1  15
TORSDOF 3
