REMARK  2 active torsions:
REMARK  status: ('A' for Active; 'I' for Inactive)
REMARK    1  A    between atoms: N_4  and  C_1 
REMARK    2  A    between atoms: C_2  and  N_3 
ROOT
ATOM      1  N   UNL d   1      -0.507   1.444   3.720  0.00  0.00    -0.355 N 
ATOM      2  N   UNL d   1       0.449   0.550   1.176  0.00  0.00    -0.355 N 
ATOM      3  C   UNL d   1      -0.718   0.049   3.304  0.00  0.00     0.145 C 
ATOM      4  C   UNL d   1      -0.749  -0.065   1.776  0.00  0.00     0.145 C 
ATOM      5  C   UNL d   1       0.599   1.973   1.540  0.00  0.00     0.145 C 
ATOM      6  C   UNL d   1       0.607   2.144   3.063  0.00  0.00     0.145 C 
ENDROOT
BRANCH   1   7
ATOM      7  C   UNL d   1      -1.192   1.993   4.766  0.00  0.00     0.169 C 
ATOM      8  S   UNL d   1      -1.966   3.473   4.699  0.00  0.00    -0.041 SA
ATOM      9  N   UNL d   1      -1.285   1.259   5.913  0.00  0.00    -0.371 N 
ATOM     10  C   UNL d   1      -0.220   0.426   6.437  0.00  0.00     0.148 C 
ATOM     11  H   UNL d   1      -1.868   1.704   6.612  0.00  0.00     0.161 HD
ENDBRANCH   1   7
BRANCH   2  12
ATOM     12  C   UNL d   1       1.017   0.014   0.043  0.00  0.00     0.169 C 
ATOM     13  S   UNL d   1       1.445   0.870  -1.331  0.00  0.00    -0.041 SA
ATOM     14  N   UNL d   1       1.285  -1.324   0.041  0.00  0.00    -0.371 N 
ATOM     15  C   UNL d   1       1.504  -2.180   1.187  0.00  0.00     0.148 C 
ATOM     16  H   UNL d   1       1.700  -1.639  -0.828  0.00  0.00     0.161 HD
ENDBRANCH   2  12
TORSDOF 2
