REMARK  3 active torsions:
REMARK  status: ('A' for Active; 'I' for Inactive)
REMARK    1  A    between atoms: C_13  and  C_5 
REMARK    2  A    between atoms: N_17  and  C_9 
REMARK    3  A    between atoms: N_12  and  C_14 
ROOT
ATOM      1  C   UNL d   1       1.578  -0.935  -0.031  0.00  0.00     0.156 A 
ATOM      2  N   UNL d   1       0.900   0.264   0.026  0.00  0.00    -0.221 N 
ATOM      3  N   UNL d   1       0.945  -2.142  -0.103  0.00  0.00    -0.329 N 
ATOM      4  HN  UNL d   1       1.475  -3.013  -0.150  1.00  0.00     0.168 HD
ATOM      5  C   UNL d   1       2.906  -0.541  -0.027  0.00  0.00     0.102 A 
ATOM      6  N   UNL d   1       1.745   1.314   0.070  0.00  0.00    -0.013 NA
ATOM      7  N   UNL d   1       2.983   0.829   0.022  0.00  0.00    -0.279 N 
ATOM      8  HN  UNL d   1       3.841   1.381   0.023  1.00  0.00     0.184 HD
ATOM      9  C   UNL d   1      -0.362  -2.146  -0.109  0.00  0.00     0.092 A 
ATOM     10  C   UNL d   1      -1.175  -0.887  -0.044  0.00  0.00     0.030 A 
ATOM     11  C   UNL d   1      -0.496   0.338   0.021  0.00  0.00     0.070 A 
ATOM     12  C   UNL d   1      -2.570  -0.896  -0.070  0.00  0.00     0.017 A 
ATOM     13  C   UNL d   1      -1.184   1.550   0.064  0.00  0.00     0.032 A 
ATOM     14  C   UNL d   1      -3.269   0.314  -0.020  0.00  0.00     0.001 A 
ATOM     15  C   UNL d   1      -2.579   1.529   0.045  0.00  0.00     0.002 A 
ENDROOT
BRANCH   5  16
ATOM     16  C   UNL d   1       4.050  -1.430  -0.146  0.00  0.00    -0.004 A 
ATOM     17  C   UNL d   1       5.228  -0.985  -0.762  0.00  0.00     0.016 A 
ATOM     18  C   UNL d   1       6.285  -1.873  -1.004  0.00  0.00     0.037 A 
ATOM     19  C   UNL d   1       6.164  -3.214  -0.616  0.00  0.00     0.102 A 
ATOM     20  C   UNL d   1       5.021  -3.659   0.053  0.00  0.00     0.037 A 
ATOM     21  C   UNL d   1       3.977  -2.764   0.291  0.00  0.00     0.016 A 
BRANCH  19  22
ATOM     22  N   UNL d   1       7.229  -4.171  -0.937  0.00  0.00    -0.116 N 
ATOM     23  O   UNL d   1       7.047  -5.359  -0.635  0.00  0.00    -0.532 OA
ATOM     24  O   UNL d   1       8.243  -3.739  -1.502  0.00  0.00    -0.532 OA
ENDBRANCH  19  22
ENDBRANCH   5  16
BRANCH   9  25
ATOM     25  N   UNL d   1      -0.969  -3.369  -0.173  0.00  0.00    -0.288 NA
ATOM     26  H   UNL d   1      -0.299  -4.125  -0.045  0.00  0.00     0.125 HD
ATOM     27  H   UNL d   1      -1.798  -3.502   0.393  0.00  0.00     0.125 HD
ENDBRANCH   9  25
TORSDOF 3
