REMARK  3 active torsions:
REMARK  status: ('A' for Active; 'I' for Inactive)
REMARK    1  A    between atoms: C_8  and  N_3 
REMARK    2  A    between atoms: C_7  and  C_4 
REMARK    3  A    between atoms: C_10  and  C_5 
ROOT
ATOM      1  N   UNL d   1       1.136  -0.185   0.100  0.00  0.00    -0.301 N 
ATOM      2  HN  UNL d   1       2.135  -0.380   0.153  1.00  0.00     0.187 HD
ATOM      3  N   UNL d   1       0.128  -1.105   0.116  0.00  0.00    -0.283 N 
ATOM      4  C   UNL d   1      -1.205  -0.514   0.012  0.00  0.00     0.147 A 
ATOM      5  C   UNL d   1       0.583   0.987   0.003  0.00  0.00     0.038 A 
ATOM      6  C   UNL d   1      -0.921   0.987  -0.013  0.00  0.00     0.091 A 
ENDROOT
BRANCH   4   7
ATOM      7  C   UNL d   1      -2.111  -0.894   1.174  0.00  0.00    -0.032 A 
ATOM      8  C   UNL d   1      -3.491  -1.040   0.966  0.00  0.00     0.033 A 
ATOM      9  C   UNL d   1      -4.327  -1.409   2.022  0.00  0.00     0.034 A 
ATOM     10 CL   UNL d   1      -6.015  -1.594   1.746  0.00  0.00    -0.084 Cl
ATOM     11  C   UNL d   1      -3.807  -1.634   3.295  0.00  0.00     0.024 A 
ATOM     12  C   UNL d   1      -2.441  -1.478   3.519  0.00  0.00     0.002 A 
ATOM     13  C   UNL d   1      -1.602  -1.103   2.469  0.00  0.00     0.009 A 
ENDBRANCH   4   7
BRANCH   3  14
ATOM     14  C   UNL d   1       0.407  -2.470   0.052  0.00  0.00     0.051 A 
ATOM     15  C   UNL d   1       1.623  -2.972   0.541  0.00  0.00     0.031 A 
ATOM     16  C   UNL d   1       1.905  -4.342   0.544  0.00  0.00     0.002 A 
ATOM     17  C   UNL d   1       0.980  -5.243   0.026  0.00  0.00     0.000 A 
ATOM     18  C   UNL d   1      -0.223  -4.772  -0.487  0.00  0.00     0.002 A 
ATOM     19  C   UNL d   1      -0.506  -3.402  -0.466  0.00  0.00     0.031 A 
ENDBRANCH   3  14
BRANCH   5  20
ATOM     20  C   UNL d   1       1.356   2.246  -0.103  0.00  0.00    -0.012 A 
ATOM     21  C   UNL d   1       2.757   2.187  -0.107  0.00  0.00     0.013 A 
ATOM     22  C   UNL d   1       3.510   3.355  -0.241  0.00  0.00     0.001 A 
ATOM     23  C   UNL d   1       2.870   4.587  -0.372  0.00  0.00     0.000 A 
ATOM     24  C   UNL d   1       1.478   4.653  -0.366  0.00  0.00     0.001 A 
ATOM     25  C   UNL d   1       0.720   3.487  -0.230  0.00  0.00     0.013 A 
ENDBRANCH   5  20
TORSDOF 3
