REMARK  7 active torsions:
REMARK  status: ('A' for Active; 'I' for Inactive)
REMARK    1  A    between atoms: C_9  and  C_1 
REMARK       I    between atoms: C_5  and  N_10 
REMARK    2  A    between atoms: C_13  and  C_5 
REMARK    3  A    between atoms: C_7  and  C_14 
REMARK    4  A    between atoms: O_15  and  C_7 
REMARK    5  A    between atoms: C_8  and  C_13 
REMARK    6  A    between atoms: C_14  and  C_8 
REMARK    7  A    between atoms: N_10  and  C_9 
ROOT
ATOM      1  C   UNL d   1      -0.375  -5.146  -0.046  0.00  0.00     0.218 C 
ATOM      2  N   UNL d   1      -0.292  -3.775   0.066  0.00  0.00    -0.357 N 
ATOM      3  O   UNL d   1       0.611  -5.845  -0.245  0.00  0.00    -0.274 OA
ATOM      4  H   UNL d   1      -1.071  -3.261   0.455  0.00  0.00     0.162 HD
ENDROOT
BRANCH   2   5
ATOM      5  C   UNL d   1       0.993  -3.121  -0.047  0.00  0.00     0.162 C 
BRANCH   5   6
ATOM      6  C   UNL d   1       0.825  -1.654   0.186  0.00  0.00    -0.022 A 
ATOM      7  C   UNL d   1       0.897  -1.077   1.440  0.00  0.00     0.060 A 
ATOM      8  S   UNL d   1       0.678   0.608   1.413  0.00  0.00    -0.101 SA
ATOM      9  C   UNL d   1       0.486   0.629  -0.295  0.00  0.00     0.015 A 
ATOM     10  C   UNL d   1       0.594  -0.655  -0.841  0.00  0.00    -0.011 A 
ATOM     11  C   UNL d   1       0.250   1.764  -1.098  0.00  0.00     0.019 A 
ATOM     12  C   UNL d   1       0.467  -0.777  -2.251  0.00  0.00     0.013 A 
ATOM     13  C   UNL d   1       0.236   0.348  -3.052  0.00  0.00     0.001 A 
ATOM     14  C   UNL d   1       0.126   1.605  -2.478  0.00  0.00     0.001 A 
ENDBRANCH   5   6
ENDBRANCH   2   5
BRANCH   1  15
ATOM     15  C   UNL d   1      -1.796  -5.683   0.074  0.00  0.00     0.112 C 
BRANCH  15  16
ATOM     16  C   UNL d   1      -1.963  -7.227  -0.005  0.00  0.00    -0.030 C 
ATOM     17  C   UNL d   1      -3.468  -7.569   0.096  0.00  0.00     0.016 C 
ATOM     18  C   UNL d   1      -1.497  -7.744  -1.388  0.00  0.00     0.016 C 
BRANCH  16  19
ATOM     19  C   UNL d   1      -1.174  -7.990   1.092  0.00  0.00     0.119 C 
BRANCH  19  20
ATOM     20  C   UNL d   1      -1.503  -7.638   2.533  0.00  0.00     0.140 C 
ATOM     21  O   UNL d   1      -2.331  -6.823   2.904  0.00  0.00    -0.650 OA
BRANCH  20  22
ATOM     22  O   UNL d   1      -0.761  -8.352   3.413  0.00  0.00    -0.776 OA
ATOM     23  H   UNL d   1      -0.120  -8.953   2.986  0.00  0.00     0.167 HD
ENDBRANCH  20  22
ENDBRANCH  19  20
ENDBRANCH  16  19
ENDBRANCH  15  16
ENDBRANCH   1  15
TORSDOF 7
