REMARK  2 active torsions:
REMARK  status: ('A' for Active; 'I' for Inactive)
REMARK    1  A    between atoms: O_7  and  C_1 
REMARK    2  A    between atoms: C_10  and  O_7 
ROOT
ATOM      1  C   UNL d   1      -0.674   1.679  -0.072  0.00  0.00     0.090 A 
ATOM      2  N   UNL d   1      -1.058  -1.075  -0.017  0.00  0.00    -0.359 N 
ATOM      3  HN  UNL d   1      -1.206  -2.083   0.039  1.00  0.00     0.166 HD
ATOM      4  C   UNL d   1       0.443   0.820  -0.021  0.00  0.00     0.025 A 
ATOM      5  C   UNL d   1       0.185  -0.564  -0.003  0.00  0.00     0.045 A 
ATOM      6  C   UNL d   1      -1.956   1.143  -0.184  0.00  0.00     0.062 A 
ATOM      7  C   UNL d   1      -2.108  -0.231  -0.108  0.00  0.00     0.008 A 
ATOM      8  C   UNL d   1       1.782   1.276   0.004  0.00  0.00     0.016 A 
ATOM      9  C   UNL d   1       1.261  -1.441   0.034  0.00  0.00     0.030 A 
ATOM     10  C   UNL d   1      -3.482  -0.831  -0.067  0.00  0.00     0.068 C 
ATOM     11  C   UNL d   1       2.844   0.374   0.034  0.00  0.00     0.001 A 
ATOM     12  C   UNL d   1       2.582  -0.989   0.046  0.00  0.00     0.002 A 
ENDROOT
BRANCH   1  13
ATOM     13  O   UNL d   1      -0.435   3.042  -0.066  0.00  0.00    -0.310 OA
BRANCH  13  14
ATOM     14  C   UNL d   1      -1.335   3.900   0.529  0.00  0.00     0.076 A 
ATOM     15  C   UNL d   1      -2.131   3.573   1.631  0.00  0.00     0.044 A 
ATOM     16  C   UNL d   1      -3.088   4.476   2.120  0.00  0.00    -0.053 A 
ATOM     17  C   UNL d   1      -4.026   4.027   3.209  0.00  0.00     0.049 C 
ATOM     18  C   UNL d   1      -3.167   5.768   1.565  0.00  0.00    -0.056 A 
ATOM     19  C   UNL d   1      -2.306   6.113   0.512  0.00  0.00     0.010 A 
ATOM     20  C   UNL d   1      -4.158   6.779   2.073  0.00  0.00     0.049 C 
ATOM     21  C   UNL d   1      -1.403   5.183  -0.007  0.00  0.00     0.038 A 
ENDBRANCH  13  14
ENDBRANCH   1  13
TORSDOF 2
