REMARK  6 active torsions:
REMARK  status: ('A' for Active; 'I' for Inactive)
REMARK    1  A    between atoms: N_6  and  S_1 
REMARK    2  A    between atoms: C_12  and  S_1 
REMARK    3  A    between atoms: C_2  and  N_7 
REMARK    4  A    between atoms: C_10  and  C_3 
REMARK    5  A    between atoms: O_24  and  C_10 
REMARK    6  A    between atoms: C_30  and  O_24 
ROOT
ATOM      1  C   UNL d   1      -3.080   2.642  -1.410  0.00  0.00     0.120 A 
ATOM      2  C   UNL d   1      -3.083   3.771  -2.243  0.00  0.00     0.085 A 
ATOM      3  N   UNL d   1      -4.247   2.201  -0.866  0.00  0.00    -0.344 N 
ATOM      4  HN  UNL d   1      -4.246   1.366  -0.280  1.00  0.00     0.167 HD
ATOM      5  C   UNL d   1      -4.290   4.452  -2.471  0.00  0.00     0.046 A 
ATOM      6  C   UNL d   1      -5.474   4.000  -1.888  0.00  0.00     0.068 A 
ATOM      7  C   UNL d   1      -5.417   2.860  -1.095  0.00  0.00     0.027 A 
ATOM      8  N   UNL d   1      -7.673   5.282  -2.365  0.00  0.00    -0.191 NA
ATOM      9  C   UNL d   1      -6.691   4.702  -2.145  0.00  0.00     0.101 C 
ATOM     10  C   UNL d   1      -6.624   2.264  -0.427  0.00  0.00     0.070 C 
ENDROOT
BRANCH   2  11
ATOM     11  C   UNL d   1      -1.880   4.203  -3.003  0.00  0.00     0.297 C 
ATOM     12  O   UNL d   1      -1.006   3.466  -3.423  0.00  0.00    -0.259 OA
BRANCH  11  13
ATOM     13  O   UNL d   1      -1.885   5.557  -3.130  0.00  0.00    -0.318 OA
BRANCH  13  14
ATOM     14  C   UNL d   1      -0.709   6.131  -3.728  0.00  0.00     0.174 C 
ATOM     15  C   UNL d   1      -0.709   5.978  -5.239  0.00  0.00     0.034 C 
ENDBRANCH  13  14
ENDBRANCH  11  13
ENDBRANCH   2  11
BRANCH   1  16
ATOM     16  N   UNL d   1      -1.957   1.899  -1.133  0.00  0.00    -0.363 N 
ATOM     17  C   UNL d   1      -2.081   0.474  -0.795  0.00  0.00     0.145 C 
ATOM     18  C   UNL d   1      -0.894  -0.261  -1.448  0.00  0.00     0.155 C 
ATOM     19  N   UNL d   1       0.424   0.312  -1.030  0.00  0.00    -0.304 N 
ATOM     20  C   UNL d   1       0.496   1.798  -1.222  0.00  0.00     0.155 C 
ATOM     21  C   UNL d   1      -0.729   2.511  -0.602  0.00  0.00     0.145 C 
BRANCH  19  22
ATOM     22  S   UNL d   1       1.148  -0.308   0.360  0.00  0.00     0.260 S 
ATOM     23  O   UNL d   1       0.718  -1.675   0.557  0.00  0.00    -0.200 OA
ATOM     24  O   UNL d   1       1.040   0.685   1.407  0.00  0.00    -0.200 OA
BRANCH  22  25
ATOM     25  C   UNL d   1       2.848  -0.382  -0.170  0.00  0.00     0.079 A 
ATOM     26  C   UNL d   1       3.828   0.380   0.470  0.00  0.00     0.027 A 
ATOM     27  C   UNL d   1       5.149   0.314   0.015  0.00  0.00     0.025 A 
ATOM     28  C   UNL d   1       5.475  -0.507  -1.067  0.00  0.00     0.034 A 
ATOM     29  C   UNL d   1       4.495  -1.273  -1.699  0.00  0.00     0.025 A 
ATOM     30 CL   UNL d   1       7.100  -0.573  -1.629  0.00  0.00    -0.084 Cl
ATOM     31  C   UNL d   1       3.175  -1.214  -1.249  0.00  0.00     0.027 A 
ENDBRANCH  22  25
ENDBRANCH  19  22
ENDBRANCH   1  16
TORSDOF 6
