REMARK  7 active torsions:
REMARK  status: ('A' for Active; 'I' for Inactive)
REMARK    1  A    between atoms: N_5  and  S_1 
REMARK    2  A    between atoms: C_15  and  S_1 
REMARK    3  A    between atoms: N_4  and  C_2 
REMARK    4  A    between atoms: C_3  and  C_7 
REMARK    5  A    between atoms: N_9  and  N_5 
REMARK       I    between atoms: C_7  and  N_9 
REMARK    6  A    between atoms: O_22  and  C_14 
REMARK    7  A    between atoms: O_23  and  C_16 
ROOT
ATOM      1  C   UNL d   1      -1.385  -3.622  -1.707  0.00  0.00     0.058 A 
ATOM      2  C   UNL d   1      -0.228  -3.792  -2.487  0.00  0.00     0.063 A 
ATOM      3  C   UNL d   1      -2.012  -4.778  -1.194  0.00  0.00     0.070 A 
ATOM      4  C   UNL d   1       0.227  -5.117  -2.743  0.00  0.00     0.059 A 
ATOM      5  C   UNL d   1      -1.566  -6.076  -1.472  0.00  0.00     0.103 A 
ATOM      6  C   UNL d   1      -0.436  -6.258  -2.268  0.00  0.00     0.102 A 
ENDROOT
BRANCH   2   7
ATOM      7  C   UNL d   1       0.661  -2.750  -3.090  0.00  0.00     0.269 C 
ATOM      8  N   UNL d   1       0.097  -1.591  -3.603  0.00  0.00    -0.274 N 
ATOM      9  H   UNL d   1      -0.872  -1.369  -3.401  0.00  0.00     0.185 HD
ATOM     10  O   UNL d   1       1.870  -2.967  -3.056  0.00  0.00    -0.266 OA
BRANCH   8  11
ATOM     11  N   UNL d   1       1.000  -0.423  -3.894  0.00  0.00    -0.123 NA
ATOM     12  H   UNL d   1       0.527   0.483  -3.933  0.00  0.00     0.166 HD
BRANCH  11  13
ATOM     13  S   UNL d   1       2.117  -0.561  -5.199  0.00  0.00     0.258 S 
ATOM     14  O   UNL d   1       1.332  -0.754  -6.398  0.00  0.00    -0.204 OA
ATOM     15  O   UNL d   1       3.230  -1.428  -4.870  0.00  0.00    -0.204 OA
BRANCH  13  16
ATOM     16  C   UNL d   1       2.779   1.100  -5.272  0.00  0.00     0.076 A 
ATOM     17  C   UNL d   1       3.959   1.403  -4.588  0.00  0.00     0.025 A 
ATOM     18  C   UNL d   1       4.548   2.662  -4.742  0.00  0.00     0.008 A 
ATOM     19  C   UNL d   1       3.968   3.619  -5.586  0.00  0.00    -0.062 A 
ATOM     20  C   UNL d   1       2.776   3.310  -6.254  0.00  0.00     0.008 A 
ATOM     21  C   UNL d   1       4.632   4.956  -5.770  0.00  0.00     0.048 C 
ATOM     22  C   UNL d   1       2.183   2.050  -6.109  0.00  0.00     0.025 A 
ENDBRANCH  13  16
ENDBRANCH  11  13
ENDBRANCH   8  11
ENDBRANCH   2   7
BRANCH   1  23
ATOM     23  N   UNL d   1      -1.977  -2.376  -1.324  0.00  0.00    -0.319 N 
ATOM     24  C   UNL d   1      -3.361  -2.116  -1.286  0.00  0.00     0.013 A 
ATOM     25  C   UNL d   1      -3.558  -0.852  -0.766  0.00  0.00     0.027 A 
ATOM     26  C   UNL d   1      -4.469  -3.009  -1.759  0.00  0.00     0.068 C 
ATOM     27  C   UNL d   1      -2.303  -0.292  -0.516  0.00  0.00     0.027 A 
ATOM     28  C   UNL d   1      -1.338  -1.230  -0.836  0.00  0.00     0.013 A 
ATOM     29  C   UNL d   1       0.119  -1.050  -0.560  0.00  0.00     0.068 C 
ENDBRANCH   1  23
BRANCH   6  30
ATOM     30  O   UNL d   1      -0.060  -7.540  -2.558  0.00  0.00    -0.353 OA
ATOM     31  C   UNL d   1       1.129  -7.742  -3.310  0.00  0.00     0.210 C 
ENDBRANCH   6  30
BRANCH   5  32
ATOM     32  O   UNL d   1      -2.378  -7.045  -0.943  0.00  0.00    -0.353 OA
ATOM     33  C   UNL d   1      -1.742  -8.235  -0.493  0.00  0.00     0.210 C 
ENDBRANCH   5  32
TORSDOF 7
