REMARK  5 active torsions:
REMARK  status: ('A' for Active; 'I' for Inactive)
REMARK    1  A    between atoms: N_3  and  C_1 
REMARK    2  A    between atoms: C_4  and  C_2 
REMARK       I    between atoms: N_6  and  C_4 
REMARK    3  A    between atoms: O_17  and  C_5 
REMARK    4  A    between atoms: C_13  and  N_6 
REMARK    5  A    between atoms: O_22  and  C_10 
ROOT
ATOM      1  C   UNL d   1       1.353  -0.442   0.263  0.00  0.00     0.137 C 
ATOM      2  C   UNL d   1      -0.945  -1.184   0.100  0.00  0.00     0.101 C 
ATOM      3  C   UNL d   1       0.418  -1.495   0.322  0.00  0.00     0.119 C 
ATOM      4  C   UNL d   1       0.984   0.867  -0.054  0.00  0.00     0.042 C 
ATOM      5  C   UNL d   1      -1.284   0.113  -0.399  0.00  0.00     0.086 C 
ATOM      6  C   UNL d   1      -0.329   1.132  -0.419  0.00  0.00     0.040 C 
ENDROOT
BRANCH   2   7
ATOM      7  C   UNL d   1      -2.096  -2.106   0.461  0.00  0.00     0.261 C 
ATOM      8  N   UNL d   1      -1.837  -3.428   0.798  0.00  0.00    -0.323 N 
ATOM      9  H   UNL d   1      -0.869  -3.688   0.949  0.00  0.00     0.169 HD
ATOM     10  O   UNL d   1      -3.223  -1.625   0.551  0.00  0.00    -0.267 OA
BRANCH   8  11
ATOM     11  C   UNL d   1      -2.845  -4.358   1.193  0.00  0.00     0.036 A 
ATOM     12  C   UNL d   1      -4.210  -4.174   0.917  0.00  0.00     0.056 A 
ATOM     13  C   UNL d   1      -5.168  -5.072   1.389  0.00  0.00     0.074 A 
ATOM     14 CL   UNL d   1      -6.837  -4.791   1.060  0.00  0.00    -0.081 Cl
ATOM     15  C   UNL d   1      -4.769  -6.181   2.121  0.00  0.00     0.138 A 
ATOM     16  C   UNL d   1      -3.417  -6.406   2.372  0.00  0.00     0.046 A 
ATOM     17  F   UNL d   1      -5.670  -7.055   2.596  0.00  0.00    -0.204 F 
ATOM     18  C   UNL d   1      -2.455  -5.501   1.901  0.00  0.00     0.032 A 
ENDBRANCH   8  11
ENDBRANCH   2   7
BRANCH   3  19
ATOM     19  O   UNL d   1       0.763  -2.790   0.622  0.00  0.00    -0.352 OA
ATOM     20  C   UNL d   1       1.745  -3.347  -0.268  0.00  0.00     0.210 C 
ENDBRANCH   3  19
BRANCH   5  21
ATOM     21  O   UNL d   1      -2.569   0.306  -0.821  0.00  0.00    -0.355 OA
ATOM     22  C   UNL d   1      -2.944   1.389  -1.654  0.00  0.00     0.210 C 
ENDBRANCH   5  21
BRANCH   1  23
ATOM     23  N   UNL d   1       2.759  -0.647   0.547  0.00  0.00    -0.113 N 
ATOM     24  O   UNL d   1       3.062  -1.018   1.688  0.00  0.00    -0.532 OA
ATOM     25  O   UNL d   1       3.547  -0.429  -0.376  0.00  0.00    -0.532 OA
ENDBRANCH   1  23
TORSDOF 5
