REMARK  8 active torsions:
REMARK  status: ('A' for Active; 'I' for Inactive)
REMARK    1  A    between atoms: C_8  and  S_1 
REMARK    2  A    between atoms: C_9  and  S_1 
REMARK    3  A    between atoms: C_2  and  C_18 
REMARK    4  A    between atoms: C_3  and  C_19 
REMARK    5  A    between atoms: C_18  and  O_30 
REMARK    6  A    between atoms: C_19  and  O_31 
REMARK    7  A    between atoms: O_30  and  C_33 
REMARK    8  A    between atoms: O_31  and  C_32 
ROOT
ATOM      1  S   UNL d   1       0.960  -0.051   0.032  0.00  0.00     0.206 S 
ATOM      2  O   UNL d   1       0.228   0.736   1.005  0.00  0.00    -0.217 OA
ATOM      3  O   UNL d   1       2.413  -0.051   0.017  0.00  0.00    -0.217 OA
ENDROOT
BRANCH   1   4
ATOM      4  C   UNL d   1       0.435   0.455  -1.586  0.00  0.00     0.064 A 
ATOM      5  C   UNL d   1      -0.809   1.074  -1.721  0.00  0.00     0.026 A 
ATOM      6  C   UNL d   1      -1.269   1.408  -2.990  0.00  0.00     0.038 A 
ATOM      7  C   UNL d   1      -0.469   1.173  -4.112  0.00  0.00     0.069 A 
ATOM      8  C   UNL d   1       0.777   0.554  -3.963  0.00  0.00     0.038 A 
ATOM      9  C   UNL d   1       1.238   0.195  -2.697  0.00  0.00     0.026 A 
BRANCH   7  10
ATOM     10  O   UNL d   1      -0.812   1.506  -5.394  0.00  0.00    -0.347 OA
BRANCH  10  11
ATOM     11  C   UNL d   1      -1.820   2.519  -5.504  0.00  0.00     0.217 C 
BRANCH  11  12
ATOM     12  C   UNL d   1      -1.789   3.138  -6.878  0.00  0.00     0.002 A 
ATOM     13  C   UNL d   1      -2.056   4.507  -7.051  0.00  0.00     0.088 A 
ATOM     14  C   UNL d   1      -2.058   5.082  -8.325  0.00  0.00     0.001 A 
ATOM     15  O   UNL d   1      -2.333   5.249  -5.931  0.00  0.00    -0.325 OA
ATOM     16  C   UNL d   1      -2.325   6.549  -8.478  0.00  0.00     0.212 C 
ATOM     17  C   UNL d   1      -1.772   4.285  -9.440  0.00  0.00     0.036 A 
ATOM     18  O   UNL d   1      -2.962   7.074  -7.320  0.00  0.00    -0.362 OA
ATOM     19  C   UNL d   1      -2.262   6.656  -6.157  0.00  0.00     0.345 C 
ATOM     20  C   UNL d   1      -1.518   2.925  -9.278  0.00  0.00     0.035 A 
ATOM     21  C   UNL d   1      -1.536   2.349  -8.011  0.00  0.00     0.036 A 
ATOM     22 CL   UNL d   1      -1.177   1.950 -10.654  0.00  0.00    -0.084 Cl
ENDBRANCH  11  12
ENDBRANCH  10  11
ENDBRANCH   7  10
ENDBRANCH   1   4
BRANCH   1  23
ATOM     23  C   UNL d   1       0.433  -1.733   0.242  0.00  0.00     0.064 A 
ATOM     24  C   UNL d   1       1.232  -2.583   1.004  0.00  0.00     0.026 A 
ATOM     25  C   UNL d   1       0.882  -3.926   1.126  0.00  0.00     0.038 A 
ATOM     26  C   UNL d   1      -0.275  -4.409   0.510  0.00  0.00     0.069 A 
ATOM     27  C   UNL d   1      -1.065  -3.554  -0.261  0.00  0.00     0.038 A 
ATOM     28  C   UNL d   1      -0.717  -2.211  -0.394  0.00  0.00     0.026 A 
BRANCH  26  29
ATOM     29  O   UNL d   1      -0.723  -5.699   0.585  0.00  0.00    -0.347 OA
BRANCH  29  30
ATOM     30  C   UNL d   1      -0.216  -6.450   1.692  0.00  0.00     0.217 C 
BRANCH  30  31
ATOM     31  C   UNL d   1      -1.091  -7.651   1.948  0.00  0.00     0.002 A 
ATOM     32  C   UNL d   1      -1.278  -8.121   3.258  0.00  0.00     0.088 A 
ATOM     33  C   UNL d   1      -2.062  -9.252   3.510  0.00  0.00     0.001 A 
ATOM     34  O   UNL d   1      -0.648  -7.446   4.272  0.00  0.00    -0.325 OA
ATOM     35  C   UNL d   1      -2.253  -9.722   4.920  0.00  0.00     0.212 C 
ATOM     36  C   UNL d   1      -2.687  -9.906   2.442  0.00  0.00     0.036 A 
ATOM     37  O   UNL d   1      -1.247  -9.190   5.773  0.00  0.00    -0.362 OA
ATOM     38  C   UNL d   1      -1.135  -7.789   5.568  0.00  0.00     0.345 C 
ATOM     39  C   UNL d   1      -2.500  -9.451   1.139  0.00  0.00     0.035 A 
ATOM     40  C   UNL d   1      -1.697  -8.341   0.886  0.00  0.00     0.036 A 
ATOM     41 CL   UNL d   1      -3.269 -10.262  -0.168  0.00  0.00    -0.084 Cl
ENDBRANCH  30  31
ENDBRANCH  29  30
ENDBRANCH  26  29
ENDBRANCH   1  23
TORSDOF 8
