REMARK  4 active torsions:
REMARK  status: ('A' for Active; 'I' for Inactive)
REMARK       I    between atoms: N_2  and  C_1 
REMARK       I    between atoms: N_3  and  C_1 
REMARK    1  A    between atoms: C_8  and  N_2 
REMARK    2  A    between atoms: C_9  and  N_3 
REMARK    3  A    between atoms: C_7  and  C_9 
REMARK    4  A    between atoms: S_11  and  C_10 
ROOT
ATOM      1  C   UNL d   1       1.072   0.033  -0.146  0.00  0.00     0.320 C 
ATOM      2  N   UNL d   1       0.498   0.695   0.919  0.00  0.00    -0.309 N 
ATOM      3  N   UNL d   1       0.181  -0.814  -0.762  0.00  0.00    -0.339 N 
ATOM      4  O   UNL d   1       2.235   0.130  -0.520  0.00  0.00    -0.247 OA
ATOM      5  H   UNL d   1      -0.423   0.389   1.189  0.00  0.00     0.170 HD
ATOM      6  H   UNL d   1      -0.803  -0.727  -0.565  0.00  0.00     0.164 HD
ENDROOT
BRANCH   2   7
ATOM      7  C   UNL d   1       1.128   1.626   1.772  0.00  0.00     0.036 A 
ATOM      8  C   UNL d   1       2.388   2.171   1.524  0.00  0.00     0.031 A 
ATOM      9  C   UNL d   1       2.974   3.067   2.426  0.00  0.00     0.021 A 
ATOM     10  C   UNL d   1       2.316   3.431   3.600  0.00  0.00    -0.000 A 
ATOM     11  C   UNL d   1       1.036   2.915   3.833  0.00  0.00     0.021 A 
ATOM     12  C   UNL d   1       0.445   2.023   2.926  0.00  0.00     0.031 A 
BRANCH  10  13
ATOM     13  S   UNL d   1       3.003   4.561   4.800  0.00  0.00    -0.134 SA
ATOM     14  C   UNL d   1       4.782   4.221   4.667  0.00  0.00     0.095 C 
ENDBRANCH  10  13
ENDBRANCH   2   7
BRANCH   3  15
ATOM     15  C   UNL d   1       0.572  -1.619  -1.902  0.00  0.00     0.164 C 
BRANCH  15  16
ATOM     16  C   UNL d   1      -0.127  -1.187  -3.158  0.00  0.00    -0.025 A 
ATOM     17  C   UNL d   1      -0.973  -2.054  -3.842  0.00  0.00     0.096 A 
ATOM     18  N   UNL d   1      -1.626  -1.738  -4.984  0.00  0.00    -0.375 N 
ATOM     19  C   UNL d   1      -1.416  -0.500  -5.480  0.00  0.00     0.087 A 
ATOM     20  HN  UNL d   1      -2.246  -2.403  -5.447  1.00  0.00     0.164 HD
ATOM     21  C   UNL d   1      -0.586   0.436  -4.886  0.00  0.00     0.018 A 
ATOM     22  C   UNL d   1       0.068   0.084  -3.709  0.00  0.00     0.011 A 
ENDBRANCH  15  16
ENDBRANCH   3  15
TORSDOF 4
