REMARK  6 active torsions:
REMARK  status: ('A' for Active; 'I' for Inactive)
REMARK    1  A    between atoms: C_9  and  C_3 
REMARK    2  A    between atoms: C_10  and  C_7 
REMARK    3  A    between atoms: C_8  and  O_12 
REMARK    4  A    between atoms: C_17  and  C_11 
REMARK    5  A    between atoms: O_12  and  C_18 
REMARK    6  A    between atoms: N_20  and  C_19 
ROOT
ATOM      1  N   UNL d   1       0.995  -0.667   0.098  0.00  0.00    -0.277 N 
ATOM      2  HN  UNL d   1       1.835  -1.245   0.100  1.00  0.00     0.189 HD
ATOM      3  C   UNL d   1      -0.250  -1.088   0.116  0.00  0.00     0.174 A 
ATOM      4  O   UNL d   1      -1.153  -0.057   0.106  0.00  0.00    -0.274 OA
ATOM      5  N   UNL d   1       0.940   0.703   0.077  0.00  0.00    -0.278 N 
ATOM      6  HN  UNL d   1       1.741   1.335   0.060  1.00  0.00     0.189 HD
ATOM      7  C   UNL d   1      -0.336   1.062   0.082  0.00  0.00     0.164 A 
ENDROOT
BRANCH   7   8
ATOM      8  C   UNL d   1      -0.787   2.406   0.048  0.00  0.00     0.059 C 
ATOM      9  C   UNL d   1      -2.086   2.754   0.018  0.00  0.00     0.015 C 
BRANCH   9  10
ATOM     10  C   UNL d   1      -2.525   4.155  -0.069  0.00  0.00    -0.036 A 
ATOM     11  C   UNL d   1      -1.770   5.133  -0.734  0.00  0.00     0.014 A 
ATOM     12  C   UNL d   1      -2.215   6.457  -0.832  0.00  0.00     0.038 A 
ATOM     13  C   UNL d   1      -3.454   6.814  -0.318  0.00  0.00     0.078 A 
ATOM     14  C   UNL d   1      -4.206   5.853   0.366  0.00  0.00     0.038 A 
ATOM     15  C   UNL d   1      -3.752   4.533   0.483  0.00  0.00     0.014 A 
BRANCH  13  16
ATOM     16  O   UNL d   1      -4.027   8.047  -0.380  0.00  0.00    -0.255 OA
BRANCH  16  17
ATOM     17  C   UNL d   1      -3.696   8.922  -1.450  0.00  0.00     0.530 C 
ATOM     18  F   UNL d   1      -3.054   8.326  -2.477  0.00  0.00    -0.144 F 
ATOM     19  F   UNL d   1      -4.843   9.447  -1.938  0.00  0.00    -0.144 F 
ATOM     20  F   UNL d   1      -2.934   9.935  -0.986  0.00  0.00    -0.144 F 
ENDBRANCH  16  17
ENDBRANCH  13  16
ENDBRANCH   9  10
ENDBRANCH   7   8
BRANCH   3  21
ATOM     21  C   UNL d   1      -0.760  -2.452   0.136  0.00  0.00     0.018 A 
ATOM     22  C   UNL d   1      -2.133  -2.741   0.120  0.00  0.00     0.039 A 
ATOM     23  C   UNL d   1      -2.595  -4.062   0.102  0.00  0.00     0.006 A 
ATOM     24  C   UNL d   1      -1.668  -5.101   0.213  0.00  0.00     0.023 A 
ATOM     25  C   UNL d   1      -0.300  -4.836   0.231  0.00  0.00     0.003 A 
ATOM     26  C   UNL d   1       0.151  -3.519   0.182  0.00  0.00     0.016 A 
BRANCH  23  27
ATOM     27  N   UNL d   1      -3.965  -4.332   0.207  0.00  0.00    -0.303 NA
ATOM     28  H   UNL d   1      -4.560  -3.611  -0.190  0.00  0.00     0.124 HD
ATOM     29  H   UNL d   1      -4.224  -5.260  -0.116  0.00  0.00     0.124 HD
ENDBRANCH  23  27
ENDBRANCH   3  21
TORSDOF 6
