REMARK  7 active torsions:
REMARK  status: ('A' for Active; 'I' for Inactive)
REMARK    1  A    between atoms: C_2  and  N_1 
REMARK    2  A    between atoms: C_3  and  C_4 
REMARK       I    between atoms: N_12  and  C_3 
REMARK    3  A    between atoms: O_16  and  C_7 
REMARK    4  A    between atoms: O_17  and  C_9 
REMARK    5  A    between atoms: C_18  and  N_12 
REMARK    6  A    between atoms: C_14  and  C_22 
REMARK    7  A    between atoms: C_22  and  C_18 
ROOT
ATOM      1  C   UNL d   1       0.736  -4.108  -2.519  0.00  0.00     0.251 C 
ATOM      2  O   UNL d   1       0.093  -4.798  -3.298  0.00  0.00    -0.268 OA
ATOM      3  N   UNL d   1       1.794  -4.585  -1.771  0.00  0.00    -0.357 N 
ATOM      4  H   UNL d   1       2.167  -4.028  -1.013  0.00  0.00     0.162 HD
ENDROOT
BRANCH   3   5
ATOM      5  C   UNL d   1       2.171  -5.984  -1.856  0.00  0.00     0.127 C 
BRANCH   5   6
ATOM      6  C   UNL d   1       3.344  -6.321  -0.935  0.00  0.00     0.058 C 
BRANCH   6   7
ATOM      7  C   UNL d   1       3.745  -7.774  -1.014  0.00  0.00    -0.054 A 
ATOM      8  C   UNL d   1       3.667  -8.593   0.124  0.00  0.00     0.046 A 
ATOM      9  C   UNL d   1       4.017  -9.952   0.077  0.00  0.00     0.102 A 
ATOM     10  C   UNL d   1       4.440 -10.500  -1.146  0.00  0.00     0.101 A 
ATOM     11  C   UNL d   1       4.554  -9.674  -2.271  0.00  0.00     0.040 A 
ATOM     12  C   UNL d   1       4.212  -8.324  -2.210  0.00  0.00     0.010 A 
BRANCH   9  13
ATOM     13  O   UNL d   1       3.997 -10.769   1.177  0.00  0.00    -0.353 OA
ATOM     14  C   UNL d   1       3.593 -10.208   2.419  0.00  0.00     0.210 C 
ENDBRANCH   9  13
BRANCH  10  15
ATOM     15  O   UNL d   1       4.830 -11.793  -1.387  0.00  0.00    -0.353 OA
ATOM     16  C   UNL d   1       4.167 -12.808  -0.644  0.00  0.00     0.210 C 
ENDBRANCH  10  15
ENDBRANCH   6   7
ENDBRANCH   5   6
ENDBRANCH   3   5
BRANCH   1  17
ATOM     17  C   UNL d   1       0.369  -2.682  -2.312  0.00  0.00     0.034 A 
ATOM     18  C   UNL d   1       1.317  -1.715  -1.956  0.00  0.00     0.053 A 
ATOM     19  C   UNL d   1       0.905  -0.385  -1.785  0.00  0.00     0.103 A 
ATOM     20  C   UNL d   1      -0.435  -0.016  -1.967  0.00  0.00     0.036 A 
ATOM     21  C   UNL d   1      -1.369  -0.982  -2.338  0.00  0.00     0.003 A 
ATOM     22  C   UNL d   1      -0.968  -2.308  -2.514  0.00  0.00     0.017 A 
BRANCH  19  23
ATOM     23  N   UNL d   1       1.893   0.634  -1.400  0.00  0.00    -0.116 N 
ATOM     24  O   UNL d   1       3.056   0.259  -1.212  0.00  0.00    -0.532 OA
ATOM     25  O   UNL d   1       1.499   1.803  -1.280  0.00  0.00    -0.532 OA
ENDBRANCH  19  23
ENDBRANCH   1  17
TORSDOF 7
