REMARK  2 active torsions:
REMARK  status: ('A' for Active; 'I' for Inactive)
REMARK    1  A    between atoms: C_5  and  C_3 
REMARK    2  A    between atoms: C_12  and  C_4 
ROOT
ATOM      1  N   UNL d   1       1.284   0.163  -0.023  0.00  0.00    -0.318 N 
ATOM      2  HN  UNL d   1       2.294   0.298  -0.067  1.00  0.00     0.169 HD
ATOM      3  C   UNL d   1       0.605  -0.963  -0.017  0.00  0.00     0.183 A 
ATOM      4  C   UNL d   1       0.289   1.118   0.046  0.00  0.00     0.138 A 
ATOM      5  N   UNL d   1      -0.948   0.603   0.142  0.00  0.00    -0.242 N 
ATOM      6  HN  UNL d   1      -1.834   1.103   0.217  1.00  0.00     0.196 HD
ATOM      7  O   UNL d   1      -0.738  -0.773   0.113  0.00  0.00    -0.217 OA
ENDROOT
BRANCH   3   8
ATOM      8  C   UNL d   1       1.099  -2.335  -0.047  0.00  0.00     0.039 A 
ATOM      9  C   UNL d   1       0.410  -3.414  -0.631  0.00  0.00     0.051 A 
ATOM     10  C   UNL d   1       0.967  -4.699  -0.628  0.00  0.00     0.067 A 
ATOM     11 CL   UNL d   1      -1.113  -3.245  -1.435  0.00  0.00    -0.083 Cl
ATOM     12  C   UNL d   1       2.211  -4.911  -0.051  0.00  0.00     0.118 A 
ATOM     13  C   UNL d   1       2.918  -3.866   0.524  0.00  0.00     0.043 A 
ATOM     14  F   UNL d   1       2.741  -6.141  -0.059  0.00  0.00    -0.206 F 
ATOM     15  C   UNL d   1       2.366  -2.583   0.522  0.00  0.00     0.020 A 
ENDBRANCH   3   8
BRANCH   4  16
ATOM     16  C   UNL d   1       0.575   2.547   0.007  0.00  0.00     0.010 A 
ATOM     17  C   UNL d   1       1.897   3.004  -0.083  0.00  0.00     0.016 A 
ATOM     18  C   UNL d   1       2.176   4.373  -0.142  0.00  0.00     0.007 A 
ATOM     19  C   UNL d   1       1.138   5.311  -0.113  0.00  0.00    -0.062 A 
ATOM     20  C   UNL d   1      -0.182   4.860  -0.020  0.00  0.00     0.007 A 
ATOM     21  C   UNL d   1       1.448   6.776  -0.196  0.00  0.00     0.048 C 
ATOM     22  C   UNL d   1      -0.460   3.491   0.040  0.00  0.00     0.016 A 
ENDBRANCH   4  16
TORSDOF 2
