REMARK  3 active torsions:
REMARK  status: ('A' for Active; 'I' for Inactive)
REMARK    1  A    between atoms: C_2  and  C_1 
REMARK    2  A    between atoms: O_7  and  C_2 
REMARK    3  A    between atoms: N_3  and  O_7 
ROOT
ATOM      1  N   UNL d   1       1.633   3.769  -0.195  0.00  0.00    -0.260 N 
ATOM      2  HN  UNL d   1       0.619   3.745  -0.295  1.00  0.00     0.194 HD
ATOM      3  C   UNL d   1       2.315   4.879  -0.141  0.00  0.00     0.052 C 
ATOM      4  C   UNL d   1       1.565   6.179  -0.231  0.00  0.00    -0.004 A 
ATOM      5  S   UNL d   1       4.319   6.098   1.256  0.00  0.00    -0.158 SA
ATOM      6  C   UNL d   1       2.162   7.414   0.092  0.00  0.00    -0.037 A 
ATOM      7  C   UNL d   1       3.824   4.951  -0.045  0.00  0.00     0.134 C 
ATOM      8  C   UNL d   1       3.596   7.571   0.519  0.00  0.00     0.113 C 
ATOM      9  C   UNL d   1       0.221   6.146  -0.642  0.00  0.00     0.014 A 
ATOM     10  C   UNL d   1       1.395   8.590  -0.035  0.00  0.00     0.009 A 
ATOM     11  C   UNL d   1      -0.524   7.321  -0.751  0.00  0.00     0.001 A 
ATOM     12  C   UNL d   1       0.064   8.543  -0.449  0.00  0.00     0.001 A 
ENDROOT
BRANCH   1  13
ATOM     13  O   UNL d   1       2.425   2.606  -0.103  0.00  0.00    -0.195 OA
BRANCH  13  14
ATOM     14  C   UNL d   1       1.619   1.503  -0.131  0.00  0.00     0.316 C 
ATOM     15  O   UNL d   1       0.399   1.511  -0.271  0.00  0.00    -0.257 OA
BRANCH  14  16
ATOM     16  C   UNL d   1       2.356   0.207   0.019  0.00  0.00     0.063 A 
ATOM     17  C   UNL d   1       3.732   0.026   0.225  0.00  0.00     0.050 A 
ATOM     18 CL   UNL d   1       4.895   1.293   0.349  0.00  0.00    -0.083 Cl
ATOM     19  C   UNL d   1       4.262  -1.271   0.350  0.00  0.00     0.025 A 
ATOM     20  C   UNL d   1       3.443  -2.395   0.275  0.00  0.00     0.002 A 
ATOM     21  C   UNL d   1       2.080  -2.235   0.073  0.00  0.00     0.001 A 
ATOM     22  C   UNL d   1       1.545  -0.950  -0.052  0.00  0.00     0.019 A 
ENDBRANCH  14  16
ENDBRANCH  13  14
ENDBRANCH   1  13
TORSDOF 3
