REMARK  7 active torsions:
REMARK  status: ('A' for Active; 'I' for Inactive)
REMARK    1  A    between atoms: N_6  and  S_1 
REMARK    2  A    between atoms: C_7  and  S_1 
REMARK    3  A    between atoms: C_2  and  C_4 
REMARK    4  A    between atoms: C_3  and  C_5 
REMARK    5  A    between atoms: C_23  and  N_6 
REMARK    6  A    between atoms: C_9  and  O_14 
REMARK    7  A    between atoms: O_14  and  C_24 
ROOT
ATOM      1  C   UNL d   1       0.755   1.583   2.224  0.00  0.00     0.042 A 
ATOM      2  C   UNL d   1       1.563   2.138   4.840  0.00  0.00     0.076 A 
ATOM      3  C   UNL d   1       2.065   1.319   2.618  0.00  0.00     0.033 A 
ATOM      4  C   UNL d   1      -0.156   2.122   3.132  0.00  0.00     0.033 A 
ATOM      5  C   UNL d   1       2.480   1.630   3.916  0.00  0.00     0.039 A 
ATOM      6  C   UNL d   1       0.248   2.392   4.443  0.00  0.00     0.039 A 
ENDROOT
BRANCH   2   7
ATOM      7  O   UNL d   1       1.895   2.486   6.131  0.00  0.00    -0.311 OA
BRANCH   7   8
ATOM      8  C   UNL d   1       2.755   1.689   6.854  0.00  0.00     0.077 A 
ATOM      9  C   UNL d   1       3.508   2.326   7.844  0.00  0.00     0.053 A 
ATOM     10  C   UNL d   1       4.386   1.594   8.662  0.00  0.00     0.051 A 
ATOM     11  C   UNL d   1       4.505   0.209   8.460  0.00  0.00     0.032 A 
ATOM     12  C   UNL d   1       3.727  -0.449   7.495  0.00  0.00     0.051 A 
ATOM     13  C   UNL d   1       2.840   0.302   6.708  0.00  0.00     0.053 A 
BRANCH  10  14
ATOM     14  C   UNL d   1       5.161   2.286   9.760  0.00  0.00     0.417 C 
ATOM     15  F   UNL d   1       5.928   1.435  10.497  0.00  0.00    -0.166 F 
ATOM     16  F   UNL d   1       6.009   3.238   9.286  0.00  0.00    -0.166 F 
ATOM     17  F   UNL d   1       4.346   2.915  10.651  0.00  0.00    -0.166 F 
ENDBRANCH  10  14
BRANCH  12  18
ATOM     18  C   UNL d   1       3.804  -1.944   7.301  0.00  0.00     0.417 C 
ATOM     19  F   UNL d   1       4.628  -2.564   8.189  0.00  0.00    -0.166 F 
ATOM     20  F   UNL d   1       2.589  -2.542   7.434  0.00  0.00    -0.166 F 
ATOM     21  F   UNL d   1       4.259  -2.283   6.064  0.00  0.00    -0.166 F 
ENDBRANCH  12  18
ENDBRANCH   7   8
ENDBRANCH   2   7
BRANCH   1  22
ATOM     22  N   UNL d   1       0.368   1.316   0.887  0.00  0.00    -0.281 N 
ATOM     23  H   UNL d   1      -0.049   2.065   0.338  0.00  0.00     0.179 HD
BRANCH  22  24
ATOM     24  S   UNL d   1      -0.137  -0.227   0.444  0.00  0.00     0.263 S 
ATOM     25  O   UNL d   1       0.840  -1.198   0.877  0.00  0.00    -0.200 OA
ATOM     26  O   UNL d   1      -0.550  -0.134  -0.943  0.00  0.00    -0.200 OA
BRANCH  24  27
ATOM     27  C   UNL d   1      -1.611  -0.457   1.416  0.00  0.00     0.080 A 
ATOM     28  C   UNL d   1      -2.849  -0.056   0.899  0.00  0.00     0.027 A 
ATOM     29  C   UNL d   1      -4.002  -0.226   1.668  0.00  0.00     0.025 A 
ATOM     30  C   UNL d   1      -3.912  -0.800   2.938  0.00  0.00     0.034 A 
ATOM     31  C   UNL d   1      -2.681  -1.221   3.441  0.00  0.00     0.025 A 
ATOM     32 CL   UNL d   1      -5.332  -0.987   3.890  0.00  0.00    -0.084 Cl
ATOM     33  C   UNL d   1      -1.524  -1.062   2.675  0.00  0.00     0.027 A 
ENDBRANCH  24  27
ENDBRANCH  22  24
ENDBRANCH   1  22
TORSDOF 7
