REMARK  5 active torsions:
REMARK  status: ('A' for Active; 'I' for Inactive)
REMARK    1  A    between atoms: C_9  and  C_3 
REMARK    2  A    between atoms: C_7  and  C_5 
REMARK    3  A    between atoms: C_6  and  C_7 
REMARK    4  A    between atoms: O_11  and  C_6 
REMARK    5  A    between atoms: C_18  and  O_11 
ROOT
ATOM      1  N   UNL d   1       1.378  -0.632  -0.033  0.00  0.00    -0.352 N 
ATOM      2  HN  UNL d   1       2.240  -1.176  -0.068  1.00  0.00     0.166 HD
ATOM      3  C   UNL d   1       0.164  -1.152  -0.023  0.00  0.00     0.084 A 
ATOM      4  S   UNL d   1      -1.110   0.009  -0.030  0.00  0.00    -0.081 SA
ATOM      5  C   UNL d   1       1.321   0.756   0.010  0.00  0.00     0.025 A 
ATOM      6  C   UNL d   1       0.040   1.272  -0.011  0.00  0.00     0.077 A 
ENDROOT
BRANCH   3   7
ATOM      7  C   UNL d   1      -0.120  -2.598  -0.064  0.00  0.00    -0.002 A 
ATOM      8  C   UNL d   1      -1.260  -3.165   0.533  0.00  0.00     0.016 A 
ATOM      9  C   UNL d   1      -1.493  -4.543   0.468  0.00  0.00     0.024 A 
ATOM     10  C   UNL d   1      -0.590  -5.370  -0.192  0.00  0.00     0.034 A 
ATOM     11  C   UNL d   1       0.553  -4.833  -0.779  0.00  0.00     0.024 A 
ATOM     12 CL   UNL d   1      -0.883  -7.062  -0.278  0.00  0.00    -0.084 Cl
ATOM     13  C   UNL d   1       0.787  -3.455  -0.709  0.00  0.00     0.016 A 
ENDBRANCH   3   7
BRANCH   5  14
ATOM     14  C   UNL d   1       2.605   1.524   0.030  0.00  0.00     0.168 C 
BRANCH  14  15
ATOM     15  C   UNL d   1       2.731   2.422   1.240  0.00  0.00     0.264 C 
ATOM     16  O   UNL d   1       1.801   2.953   1.834  0.00  0.00    -0.265 OA
BRANCH  15  17
ATOM     17  O   UNL d   1       4.051   2.625   1.536  0.00  0.00    -0.317 OA
BRANCH  17  18
ATOM     18  C   UNL d   1       4.318   3.484   2.662  0.00  0.00     0.123 C 
ATOM     19  C   UNL d   1       4.169   2.698   3.960  0.00  0.00     0.040 C 
ATOM     20  C   UNL d   1       5.744   4.005   2.515  0.00  0.00     0.040 C 
ENDBRANCH  17  18
ENDBRANCH  15  17
ENDBRANCH  14  15
ENDBRANCH   5  14
TORSDOF 5
