REMARK  4 active torsions:
REMARK  status: ('A' for Active; 'I' for Inactive)
REMARK    1  A    between atoms: C_6  and  N_1 
REMARK    2  A    between atoms: C_12  and  C_4 
REMARK    3  A    between atoms: C_10  and  C_11 
REMARK    4  A    between atoms: O_22  and  C_12 
ROOT
ATOM      1  N   UNL d   1      -0.326  -1.155  -0.021  0.00  0.00    -0.256 N 
ATOM      2  N   UNL d   1       0.964  -0.755  -0.080  0.00  0.00    -0.297 N 
ATOM      3  HN  UNL d   1       1.788  -1.356  -0.093  1.00  0.00     0.187 HD
ATOM      4  C   UNL d   1      -0.369   1.084  -0.101  0.00  0.00     0.085 A 
ATOM      5  C   UNL d   1      -1.174  -0.048   0.013  0.00  0.00     0.049 A 
ATOM      6  C   UNL d   1       0.951   0.578  -0.119  0.00  0.00     0.041 A 
ATOM      7  C   UNL d   1      -2.646  -0.079   0.256  0.00  0.00     0.071 C 
ATOM      8  C   UNL d   1       2.246   1.304  -0.162  0.00  0.00     0.071 C 
ENDROOT
BRANCH   1   9
ATOM      9  C   UNL d   1      -0.608  -2.553   0.048  0.00  0.00     0.100 A 
ATOM     10  C   UNL d   1       0.219  -3.411   0.811  0.00  0.00     0.065 A 
ATOM     11  C   UNL d   1      -0.056  -4.787   0.895  0.00  0.00     0.042 A 
ATOM     12 CL   UNL d   1       1.555  -2.899   1.796  0.00  0.00    -0.082 Cl
ATOM     13  C   UNL d   1      -1.167  -5.345   0.260  0.00  0.00     0.051 A 
ATOM     14  C   UNL d   1      -1.968  -4.507  -0.521  0.00  0.00     0.042 A 
ATOM     15  C   UNL d   1      -1.672  -3.138  -0.662  0.00  0.00     0.065 A 
ATOM     16 CL   UNL d   1      -2.560  -2.344  -1.918  0.00  0.00    -0.082 Cl
BRANCH  13  17
ATOM     17  C   UNL d   1      -1.450  -6.822   0.386  0.00  0.00     0.417 C 
ATOM     18  F   UNL d   1      -2.658  -7.187  -0.123  0.00  0.00    -0.166 F 
ATOM     19  F   UNL d   1      -0.523  -7.581  -0.256  0.00  0.00    -0.166 F 
ATOM     20  F   UNL d   1      -1.449  -7.240   1.682  0.00  0.00    -0.166 F 
ENDBRANCH  13  17
ENDBRANCH   1   9
BRANCH   4  21
ATOM     21  C   UNL d   1      -0.852   2.454  -0.157  0.00  0.00     0.180 C 
ATOM     22  O   UNL d   1      -1.890   2.779  -0.712  0.00  0.00    -0.646 OA
BRANCH  21  23
ATOM     23  O   UNL d   1      -0.079   3.366   0.487  0.00  0.00    -0.773 OA
ATOM     24  H   UNL d   1       0.598   2.950   1.053  0.00  0.00     0.167 HD
ENDBRANCH  21  23
ENDBRANCH   4  21
TORSDOF 4
