REMARK  3 active torsions:
REMARK  status: ('A' for Active; 'I' for Inactive)
REMARK    1  A    between atoms: C_6  and  N_1 
REMARK    2  A    between atoms: C_18  and  C_17 
REMARK    3  A    between atoms: C_20  and  C_18 
ROOT
ATOM      1  N   UNL d   1       2.449   0.028   0.090  0.00  0.00    -0.252 N 
ATOM      2  C   UNL d   1       1.661  -1.117   0.038  0.00  0.00     0.236 C 
ATOM      3  C   UNL d   1       1.657   1.172   0.144  0.00  0.00     0.236 C 
ATOM      4  C   UNL d   1       0.284  -0.635  -0.305  0.00  0.00     0.092 C 
ATOM      5  C   UNL d   1       0.259   0.697   0.415  0.00  0.00     0.092 C 
ATOM      6  C   UNL d   1      -0.911   1.535  -0.060  0.00  0.00     0.015 C 
ATOM      7  O   UNL d   1       1.965  -2.290   0.182  0.00  0.00    -0.272 OA
ATOM      8  O   UNL d   1       1.963   2.347   0.022  0.00  0.00    -0.272 OA
ATOM      9  C   UNL d   1      -0.939  -1.452   0.058  0.00  0.00     0.019 C 
ATOM     10  C   UNL d   1      -2.215   0.761   0.200  0.00  0.00     0.005 C 
ATOM     11  C   UNL d   1      -2.212  -0.680  -0.365  0.00  0.00    -0.018 C 
ATOM     12  C   UNL d   1      -2.374  -0.662  -1.891  0.00  0.00     0.010 C 
ENDROOT
BRANCH   1  13
ATOM     13  C   UNL d   1       3.865   0.037   0.027  0.00  0.00     0.045 A 
ATOM     14  C   UNL d   1       4.572  -1.060  -0.487  0.00  0.00     0.031 A 
ATOM     15  C   UNL d   1       5.966  -1.036  -0.592  0.00  0.00     0.009 A 
ATOM     16  C   UNL d   1       6.692   0.078  -0.163  0.00  0.00    -0.058 A 
ATOM     17  C   UNL d   1       5.996   1.173   0.356  0.00  0.00     0.009 A 
ATOM     18  C   UNL d   1       4.602   1.151   0.447  0.00  0.00     0.031 A 
BRANCH  16  19
ATOM     19  C   UNL d   1       8.197   0.094  -0.256  0.00  0.00     0.038 C 
BRANCH  19  20
ATOM     20  C   UNL d   1       8.897   0.222   1.101  0.00  0.00     0.000 C 
ATOM     21  C   UNL d   1       8.619  -0.951   2.031  0.00  0.00     0.005 C 
ENDBRANCH  19  20
ENDBRANCH  16  19
ENDBRANCH   1  13
TORSDOF 3
