REMARK  4 active torsions:
REMARK  status: ('A' for Active; 'I' for Inactive)
REMARK    1  A    between atoms: C_13  and  C_1 
REMARK    2  A    between atoms: C_2  and  C_12 
REMARK    3  A    between atoms: S_11  and  C_13 
REMARK    4  A    between atoms: C_12  and  S_11 
ROOT
ATOM      1  S   UNL d   1      -0.701  -3.846   0.767  0.00  0.00    -0.160 SA
ENDROOT
BRANCH   1   2
ATOM      2  C   UNL d   1       0.915  -3.246   0.190  0.00  0.00     0.114 C 
BRANCH   2   3
ATOM      3  C   UNL d   1       1.061  -1.777   0.466  0.00  0.00    -0.031 A 
ATOM      4  C   UNL d   1       0.597  -0.793  -0.386  0.00  0.00     0.059 A 
ATOM      5  S   UNL d   1       0.908   0.781   0.177  0.00  0.00    -0.101 SA
ATOM      6  C   UNL d   1       1.683   0.198   1.596  0.00  0.00     0.015 A 
ATOM      7  C   UNL d   1       1.700  -1.200   1.636  0.00  0.00    -0.011 A 
ATOM      8  C   UNL d   1       2.248   0.979   2.625  0.00  0.00     0.019 A 
ATOM      9  C   UNL d   1       2.308  -1.814   2.762  0.00  0.00     0.013 A 
ATOM     10  C   UNL d   1       2.872  -1.043   3.785  0.00  0.00     0.001 A 
ATOM     11  C   UNL d   1       2.841   0.341   3.715  0.00  0.00     0.001 A 
ENDBRANCH   2   3
ENDBRANCH   1   2
BRANCH   1  12
ATOM     12  C   UNL d   1      -0.591  -5.564   0.179  0.00  0.00     0.114 C 
BRANCH  12  13
ATOM     13  C   UNL d   1      -1.820  -6.331   0.575  0.00  0.00    -0.031 A 
ATOM     14  C   UNL d   1      -1.925  -7.053   1.750  0.00  0.00     0.059 A 
ATOM     15  S   UNL d   1      -3.437  -7.808   1.937  0.00  0.00    -0.101 SA
ATOM     16  C   UNL d   1      -4.012  -7.193   0.438  0.00  0.00     0.015 A 
ATOM     17  C   UNL d   1      -3.041  -6.418  -0.204  0.00  0.00    -0.011 A 
ATOM     18  C   UNL d   1      -5.287  -7.406  -0.124  0.00  0.00     0.019 A 
ATOM     19  C   UNL d   1      -3.384  -5.848  -1.460  0.00  0.00     0.013 A 
ATOM     20  C   UNL d   1      -4.647  -6.061  -2.024  0.00  0.00     0.001 A 
ATOM     21  C   UNL d   1      -5.590  -6.831  -1.360  0.00  0.00     0.001 A 
ENDBRANCH  12  13
ENDBRANCH   1  12
TORSDOF 4
