REMARK  5 active torsions:
REMARK  status: ('A' for Active; 'I' for Inactive)
REMARK    1  A    between atoms: S_3  and  C_9 
REMARK    2  A    between atoms: C_12  and  S_3 
REMARK    3  A    between atoms: C_9  and  C_4 
REMARK    4  A    between atoms: C_13  and  C_5 
REMARK    5  A    between atoms: C_14  and  C_12 
ROOT
ATOM      1  C   UNL d   1       0.731   2.454   0.012  0.00  0.00     0.218 C 
ENDROOT
BRANCH   1   2
ATOM      2  S   UNL d   1       2.496   2.668   0.021  0.00  0.00     0.155 S 
ATOM      3  O   UNL d   1       2.730   4.103  -0.023  0.00  0.00    -0.227 OA
ATOM      4  O   UNL d   1       3.046   1.876   1.109  0.00  0.00    -0.227 OA
BRANCH   2   5
ATOM      5  C   UNL d   1       3.038   1.982  -1.547  0.00  0.00     0.179 C 
BRANCH   5   6
ATOM      6  C   UNL d   1       4.542   2.061  -1.641  0.00  0.00    -0.044 A 
ATOM      7  C   UNL d   1       5.331   1.004  -1.154  0.00  0.00     0.011 A 
ATOM      8  C   UNL d   1       6.723   1.056  -1.242  0.00  0.00     0.043 A 
ATOM      9  C   UNL d   1       7.328   2.168  -1.813  0.00  0.00     0.116 A 
ATOM     10  C   UNL d   1       6.570   3.227  -2.295  0.00  0.00     0.043 A 
ATOM     11  F   UNL d   1       8.664   2.217  -1.899  0.00  0.00    -0.206 F 
ATOM     12  C   UNL d   1       5.176   3.178  -2.207  0.00  0.00     0.011 A 
ENDBRANCH   5   6
ENDBRANCH   2   5
ENDBRANCH   1   2
BRANCH   1  13
ATOM     13  C   UNL d   1       0.329   1.040   0.083  0.00  0.00     0.117 A 
ATOM     14  N   UNL d   1       0.597   0.137  -0.916  0.00  0.00    -0.326 N 
ATOM     15  C   UNL d   1       0.008  -0.958  -0.481  0.00  0.00     0.152 A 
ATOM     16  HN  UNL d   1       1.121   0.279  -1.779  1.00  0.00     0.169 HD
ATOM     17  O   UNL d   1      -0.628  -0.772   0.716  0.00  0.00    -0.222 OA
ATOM     18  N   UNL d   1      -0.428   0.558   1.077  0.00  0.00    -0.246 N 
ATOM     19  HN  UNL d   1      -0.774   1.048   1.901  1.00  0.00     0.196 HD
BRANCH  15  20
ATOM     20  C   UNL d   1      -0.043  -2.274  -1.235  0.00  0.00     0.063 C 
ATOM     21  C   UNL d   1       1.343  -2.907  -1.568  0.00  0.00     0.013 C 
ATOM     22  C   UNL d   1       0.726  -3.345  -2.913  0.00  0.00     0.002 C 
ATOM     23  C   UNL d   1      -0.190  -2.116  -2.779  0.00  0.00     0.013 C 
ENDBRANCH  15  20
ENDBRANCH   1  13
TORSDOF 5
