REMARK  4 active torsions:
REMARK  status: ('A' for Active; 'I' for Inactive)
REMARK    1  A    between atoms: C_2  and  C_1 
REMARK    2  A    between atoms: C_15  and  N_3 
REMARK    3  A    between atoms: C_16  and  N_6 
REMARK    4  A    between atoms: S_17  and  C_11 
ROOT
ATOM      1  C   UNL d   1      -0.090  -1.527  -0.232  0.00  0.00     0.160 C 
ATOM      2  N   UNL d   1       1.002  -0.837   0.283  0.00  0.00    -0.274 N 
ATOM      3  N   UNL d   1      -0.915  -0.683  -0.819  0.00  0.00    -0.281 N 
ATOM      4  HN  UNL d   1      -1.737  -0.931  -1.369  1.00  0.00     0.188 HD
ATOM      5  C   UNL d   1       0.660   0.494   0.104  0.00  0.00     0.165 C 
ATOM      6  N   UNL d   1      -0.471   0.586  -0.559  0.00  0.00    -0.278 N 
ATOM      7  HN  UNL d   1      -0.936   1.452  -0.833  1.00  0.00     0.189 HD
ENDROOT
BRANCH   1   8
ATOM      8  C   UNL d   1      -0.377  -2.981  -0.093  0.00  0.00     0.119 A 
ATOM      9  N   UNL d   1       0.107  -3.724   0.906  0.00  0.00    -0.274 N 
ATOM     10  N   UNL d   1      -0.401  -4.953   0.637  0.00  0.00    -0.196 N 
ATOM     11  HN  UNL d   1       0.709  -3.439   1.679  1.00  0.00     0.189 HD
ATOM     12  N   UNL d   1      -1.133  -5.053  -0.505  0.00  0.00    -0.281 N 
ATOM     13  C   UNL d   1      -1.163  -3.786  -0.942  0.00  0.00     0.056 A 
ATOM     14  HN  UNL d   1      -1.552  -5.884  -0.924  1.00  0.00     0.189 HD
ATOM     15  C   UNL d   1      -1.864  -3.421  -2.194  0.00  0.00     0.072 C 
BRANCH  10  16
ATOM     16  C   UNL d   1      -0.164  -6.060   1.492  0.00  0.00     0.074 A 
ATOM     17  C   UNL d   1       0.454  -5.864   2.737  0.00  0.00     0.033 A 
ATOM     18  C   UNL d   1       0.664  -6.949   3.589  0.00  0.00     0.002 A 
ATOM     19  C   UNL d   1       0.279  -8.230   3.196  0.00  0.00     0.000 A 
ATOM     20  C   UNL d   1      -0.323  -8.431   1.953  0.00  0.00     0.002 A 
ATOM     21  C   UNL d   1      -0.554  -7.348   1.102  0.00  0.00     0.033 A 
ENDBRANCH  10  16
ENDBRANCH   1   8
BRANCH   2  22
ATOM     22  C   UNL d   1       2.235  -1.398   0.723  0.00  0.00     0.043 A 
ATOM     23  C   UNL d   1       2.780  -2.487   0.018  0.00  0.00     0.032 A 
ATOM     24  C   UNL d   1       3.982  -3.066   0.432  0.00  0.00     0.026 A 
ATOM     25  C   UNL d   1       4.646  -2.555   1.541  0.00  0.00     0.034 A 
ATOM     26  C   UNL d   1       4.119  -1.468   2.240  0.00  0.00     0.026 A 
ATOM     27 CL   UNL d   1       6.124  -3.269   2.051  0.00  0.00    -0.084 Cl
ATOM     28  C   UNL d   1       2.912  -0.888   1.836  0.00  0.00     0.032 A 
ENDBRANCH   2  22
BRANCH   5  29
ATOM     29  S   UNL d   1       1.649   1.875   0.458  0.00  0.00    -0.105 SA
ATOM     30  H   UNL d   1       2.858   1.316   0.317  0.00  0.00     0.110 HD
ENDBRANCH   5  29
TORSDOF 4
