REMARK  5 active torsions:
REMARK  status: ('A' for Active; 'I' for Inactive)
REMARK    1  A    between atoms: C_3  and  C_1 
REMARK    2  A    between atoms: N_2  and  C_5 
REMARK    3  A    between atoms: S_8  and  C_6 
REMARK    4  A    between atoms: C_15  and  S_8 
REMARK    5  A    between atoms: C_17  and  C_15 
ROOT
ATOM      1  C   UNL d   1       1.452  -0.378   0.089  0.00  0.00     0.067 A 
ATOM      2  C   UNL d   1       0.468  -1.397   0.044  0.00  0.00     0.053 A 
ATOM      3  C   UNL d   1      -0.892  -1.083  -0.065  0.00  0.00     0.103 A 
ATOM      4  C   UNL d   1       1.047   0.966  -0.023  0.00  0.00     0.016 A 
ATOM      5  C   UNL d   1      -1.297   0.249  -0.147  0.00  0.00     0.037 A 
ATOM      6  C   UNL d   1      -0.328   1.262  -0.130  0.00  0.00     0.022 A 
ENDROOT
BRANCH   4   7
ATOM      7  S   UNL d   1       2.142   2.382   0.136  0.00  0.00    -0.124 SA
BRANCH   7   8
ATOM      8  C   UNL d   1       3.030   2.377  -1.463  0.00  0.00     0.117 C 
BRANCH   8   9
ATOM      9  C   UNL d   1       3.865   3.627  -1.643  0.00  0.00    -0.049 A 
ATOM     10  C   UNL d   1       5.126   3.740  -1.030  0.00  0.00     0.009 A 
ATOM     11  C   UNL d   1       5.908   4.884  -1.211  0.00  0.00     0.024 A 
ATOM     12  C   UNL d   1       5.434   5.927  -2.006  0.00  0.00     0.034 A 
ATOM     13  C   UNL d   1       4.184   5.835  -2.614  0.00  0.00     0.024 A 
ATOM     14 CL   UNL d   1       6.398   7.332  -2.239  0.00  0.00    -0.084 Cl
ATOM     15  C   UNL d   1       3.401   4.692  -2.430  0.00  0.00     0.009 A 
ENDBRANCH   8   9
ENDBRANCH   7   8
ENDBRANCH   4   7
BRANCH   1  16
ATOM     16  C   UNL d   1       2.889  -0.793   0.301  0.00  0.00     0.418 C 
ATOM     17  F   UNL d   1       3.029  -2.133   0.520  0.00  0.00    -0.166 F 
ATOM     18  F   UNL d   1       3.677  -0.531  -0.776  0.00  0.00    -0.166 F 
ATOM     19  F   UNL d   1       3.476  -0.192   1.369  0.00  0.00    -0.166 F 
ENDBRANCH   1  16
BRANCH   3  20
ATOM     20  N   UNL d   1      -1.895  -2.160  -0.060  0.00  0.00    -0.116 N 
ATOM     21  O   UNL d   1      -1.481  -3.326  -0.015  0.00  0.00    -0.532 OA
ATOM     22  O   UNL d   1      -3.088  -1.834  -0.101  0.00  0.00    -0.532 OA
ENDBRANCH   3  20
TORSDOF 5
