REMARK  7 active torsions:
REMARK  status: ('A' for Active; 'I' for Inactive)
REMARK    1  A    between atoms: C_9  and  C_1 
REMARK    2  A    between atoms: C_21  and  C_3 
REMARK    3  A    between atoms: C_6  and  O_12 
REMARK    4  A    between atoms: C_8  and  C_6 
REMARK    5  A    between atoms: C_10  and  C_9 
REMARK    6  A    between atoms: O_12  and  C_14 
REMARK    7  A    between atoms: C_30  and  C_21 
ROOT
ATOM      1  C   UNL d   1      -1.781  -1.330  -0.097  0.00  0.00     0.029 C 
ATOM      2  C   UNL d   1      -1.933   0.145   0.041  0.00  0.00     0.295 C 
ATOM      3  C   UNL d   1      -0.530  -1.854  -0.053  0.00  0.00    -0.033 C 
ATOM      4  O   UNL d   1      -0.966   0.897  -0.590  0.00  0.00    -0.274 OA
ATOM      5  C   UNL d   1       0.339   0.433  -0.418  0.00  0.00     0.093 A 
ATOM      6  C   UNL d   1       0.607  -0.897  -0.077  0.00  0.00     0.005 A 
ATOM      7  C   UNL d   1       1.339   1.397  -0.552  0.00  0.00     0.075 A 
ATOM      8  C   UNL d   1       1.947  -1.226   0.173  0.00  0.00     0.017 A 
ATOM      9  C   UNL d   1       2.656   1.049  -0.280  0.00  0.00     0.082 A 
ATOM     10  O   UNL d   1      -2.896   0.658   0.594  0.00  0.00    -0.259 OA
ATOM     11  C   UNL d   1       2.967  -0.256   0.093  0.00  0.00     0.038 A 
ENDROOT
BRANCH   9  12
ATOM     12  O   UNL d   1       3.576   2.124  -0.330  0.00  0.00    -0.275 OA
BRANCH  12  13
ATOM     13  C   UNL d   1       4.959   2.014  -0.314  0.00  0.00     0.300 C 
ATOM     14  O   UNL d   1       5.624   0.994  -0.401  0.00  0.00    -0.259 OA
BRANCH  13  15
ATOM     15  C   UNL d   1       5.550   3.371  -0.346  0.00  0.00     0.061 A 
ATOM     16  C   UNL d   1       5.152   4.417   0.497  0.00  0.00     0.050 A 
ATOM     17 CL   UNL d   1       4.002   4.217   1.770  0.00  0.00    -0.083 Cl
ATOM     18  C   UNL d   1       5.742   5.681   0.363  0.00  0.00     0.025 A 
ATOM     19  C   UNL d   1       6.741   5.901  -0.588  0.00  0.00     0.002 A 
ATOM     20  C   UNL d   1       7.172   4.851  -1.396  0.00  0.00     0.001 A 
ATOM     21  C   UNL d   1       6.583   3.590  -1.272  0.00  0.00     0.019 A 
ENDBRANCH  13  15
ENDBRANCH  12  13
ENDBRANCH   9  12
BRANCH   3  22
ATOM     22  C   UNL d   1      -0.240  -3.341  -0.099  0.00  0.00     0.040 C 
BRANCH  22  23
ATOM     23  C   UNL d   1      -0.013  -4.039   1.252  0.00  0.00     0.000 C 
ATOM     24  C   UNL d   1      -1.235  -4.102   2.157  0.00  0.00     0.005 C 
ENDBRANCH  22  23
ENDBRANCH   3  22
BRANCH   1  25
ATOM     25  C   UNL d   1      -3.101  -2.074  -0.144  0.00  0.00     0.089 C 
BRANCH  25  26
ATOM     26  C   UNL d   1      -3.673  -2.294  -1.534  0.00  0.00     0.007 A 
ATOM     27  C   UNL d   1      -3.919  -3.566  -2.080  0.00  0.00     0.043 A 
ATOM     28 CL   UNL d   1      -3.594  -5.032  -1.220  0.00  0.00    -0.084 Cl
ATOM     29  C   UNL d   1      -4.481  -3.710  -3.358  0.00  0.00     0.024 A 
ATOM     30  C   UNL d   1      -4.829  -2.591  -4.111  0.00  0.00     0.005 A 
ATOM     31  C   UNL d   1      -4.617  -1.327  -3.582  0.00  0.00     0.043 A 
ATOM     32  C   UNL d   1      -4.053  -1.191  -2.315  0.00  0.00     0.124 A 
ATOM     33  F   UNL d   1      -3.900   0.054  -1.848  0.00  0.00    -0.205 F 
ENDBRANCH  25  26
ENDBRANCH   1  25
TORSDOF 7
