REMARK  3 active torsions:
REMARK  status: ('A' for Active; 'I' for Inactive)
REMARK    1  A    between atoms: C_6  and  N_1 
REMARK    2  A    between atoms: O_18  and  C_15 
REMARK    3  A    between atoms: O_19  and  C_16 
ROOT
ATOM      1  N   UNL d   1      -2.288   0.009  -0.273  0.00  0.00    -0.252 N 
ATOM      2  C   UNL d   1      -1.477   1.123  -0.213  0.00  0.00     0.236 C 
ATOM      3  C   UNL d   1      -1.566  -1.123   0.046  0.00  0.00     0.236 C 
ATOM      4  C   UNL d   1      -0.271   0.793   0.638  0.00  0.00     0.096 C 
ATOM      5  C   UNL d   1      -0.268  -0.719   0.713  0.00  0.00     0.096 C 
ATOM      6  C   UNL d   1       0.998   1.513   0.191  0.00  0.00     0.049 C 
ATOM      7  C   UNL d   1       0.936  -1.478   0.159  0.00  0.00     0.049 C 
ATOM      8  C   UNL d   1       2.078   0.677  -0.436  0.00  0.00    -0.081 C 
ATOM      9  C   UNL d   1       2.053  -0.669  -0.445  0.00  0.00    -0.081 C 
ATOM     10  O   UNL d   1      -1.669   2.243  -0.667  0.00  0.00    -0.272 OA
ATOM     11  O   UNL d   1      -1.855  -2.296  -0.158  0.00  0.00    -0.272 OA
ATOM     12  C   UNL d   1       3.234   1.464  -1.006  0.00  0.00     0.043 C 
ATOM     13  C   UNL d   1       3.188  -1.484  -1.017  0.00  0.00     0.043 C 
ENDROOT
BRANCH   1  14
ATOM     14  C   UNL d   1      -3.677   0.020  -0.642  0.00  0.00     0.050 A 
ATOM     15  C   UNL d   1      -4.314   1.182  -1.115  0.00  0.00     0.067 A 
ATOM     16  C   UNL d   1      -5.693   1.224  -1.355  0.00  0.00     0.073 A 
ATOM     17  C   UNL d   1      -6.471   0.094  -1.112  0.00  0.00     0.073 A 
ATOM     18  C   UNL d   1      -5.877  -1.078  -0.660  0.00  0.00     0.073 A 
ATOM     19  C   UNL d   1      -4.492  -1.107  -0.437  0.00  0.00     0.067 A 
BRANCH  16  20
ATOM     20  O   UNL d   1      -6.397   2.306  -1.812  0.00  0.00    -0.356 OA
ATOM     21  C   UNL d   1      -5.657   3.481  -2.119  0.00  0.00     0.210 C 
ENDBRANCH  16  20
BRANCH  18  22
ATOM     22  O   UNL d   1      -6.528  -2.249  -0.383  0.00  0.00    -0.356 OA
ATOM     23  C   UNL d   1      -7.940  -2.261  -0.564  0.00  0.00     0.210 C 
ENDBRANCH  18  22
ENDBRANCH   1  14
TORSDOF 3
