REMARK  4 active torsions:
REMARK  status: ('A' for Active; 'I' for Inactive)
REMARK    1  A    between atoms: C_2  and  C_1 
REMARK    2  A    between atoms: C_5  and  C_1 
REMARK    3  A    between atoms: S_3  and  C_8 
REMARK    4  A    between atoms: C_9  and  S_3 
ROOT
ATOM      1  C   UNL d   1       0.129  -1.292  -0.160  0.00  0.00     0.015 A 
ATOM      2  C   UNL d   1       0.337  -2.205   0.880  0.00  0.00     0.017 A 
ATOM      3  C   UNL d   1      -0.766  -1.612  -1.188  0.00  0.00     0.017 A 
ATOM      4  C   UNL d   1      -1.283  -3.721  -0.105  0.00  0.00     0.005 A 
ATOM      5  C   UNL d   1      -0.375  -3.408   0.914  0.00  0.00     0.020 A 
ATOM      6  C   UNL d   1      -1.478  -2.816  -1.151  0.00  0.00     0.020 A 
ENDROOT
BRANCH   1   7
ATOM      7  C   UNL d   1       0.902  -0.020  -0.154  0.00  0.00     0.192 C 
ATOM      8  O   UNL d   1       2.015   0.002   0.365  0.00  0.00    -0.287 OA
BRANCH   7   9
ATOM      9  C   UNL d   1       0.365   1.220  -0.773  0.00  0.00     0.015 A 
ATOM     10  C   UNL d   1       1.259   2.096  -1.400  0.00  0.00     0.015 A 
ATOM     11  C   UNL d   1       0.786   3.256  -2.016  0.00  0.00     0.001 A 
ATOM     12  C   UNL d   1      -0.578   3.550  -1.997  0.00  0.00     0.000 A 
ATOM     13  C   UNL d   1      -1.468   2.697  -1.344  0.00  0.00     0.001 A 
ATOM     14  C   UNL d   1      -0.998   1.540  -0.720  0.00  0.00     0.015 A 
ENDBRANCH   7   9
ENDBRANCH   1   7
BRANCH   4  15
ATOM     15  S   UNL d   1      -2.229  -5.225  -0.035  0.00  0.00    -0.091 SA
BRANCH  15  16
ATOM     16  C   UNL d   1      -1.289  -6.380  -1.023  0.00  0.00     0.005 A 
ATOM     17  C   UNL d   1       0.106  -6.371  -1.103  0.00  0.00     0.019 A 
ATOM     18  C   UNL d   1       0.786  -7.368  -1.812  0.00  0.00     0.008 A 
ATOM     19  C   UNL d   1       0.083  -8.396  -2.447  0.00  0.00    -0.062 A 
ATOM     20  C   UNL d   1      -1.313  -8.395  -2.390  0.00  0.00     0.008 A 
ATOM     21  C   UNL d   1       0.829  -9.488  -3.156  0.00  0.00     0.048 C 
ATOM     22  C   UNL d   1      -1.991  -7.397  -1.682  0.00  0.00     0.019 A 
ENDBRANCH  15  16
ENDBRANCH   4  15
TORSDOF 4
