REMARK  5 active torsions:
REMARK  status: ('A' for Active; 'I' for Inactive)
REMARK    1  A    between atoms: C_8  and  C_1 
REMARK    2  A    between atoms: C_12  and  N_6 
REMARK    3  A    between atoms: C_9  and  C_11 
REMARK       I    between atoms: C_11  and  N_15 
REMARK    4  A    between atoms: C_14  and  C_12 
REMARK       I    between atoms: N_18  and  C_14 
REMARK    5  A    between atoms: N_15  and  N_18 
ROOT
ATOM      1  C   UNL d   1       1.891   1.354   0.064  0.00  0.00     0.271 C 
ENDROOT
BRANCH   1   2
ATOM      2  N   UNL d   1       0.766   0.634  -0.497  0.00  0.00    -0.207 N 
ATOM      3  N   UNL d   1       0.820  -0.651  -0.886  0.00  0.00    -0.268 N 
ATOM      4  C   UNL d   1      -0.368  -0.774  -1.511  0.00  0.00     0.146 A 
ATOM      5  HN  UNL d   1       1.557  -1.342  -0.746  1.00  0.00     0.190 HD
ATOM      6  N   UNL d   1      -1.117   0.370  -1.432  0.00  0.00    -0.266 N 
ATOM      7  N   UNL d   1      -0.393   1.260  -0.763  0.00  0.00    -0.002 NA
ATOM      8  HN  UNL d   1      -2.052   0.512  -1.815  1.00  0.00     0.186 HD
BRANCH   4   9
ATOM      9  C   UNL d   1      -0.709  -1.963  -2.285  0.00  0.00     0.034 A 
ATOM     10  C   UNL d   1      -2.018  -2.414  -2.529  0.00  0.00     0.069 A 
ATOM     11  C   UNL d   1      -2.206  -3.610  -3.251  0.00  0.00     0.056 A 
ATOM     12 CL   UNL d   1      -3.402  -1.546  -1.940  0.00  0.00    -0.082 Cl
ATOM     13 CL   UNL d   1      -3.775  -4.274  -3.568  0.00  0.00    -0.083 Cl
ATOM     14  C   UNL d   1      -1.113  -4.339  -3.736  0.00  0.00     0.026 A 
ATOM     15  C   UNL d   1       0.180  -3.881  -3.520  0.00  0.00     0.003 A 
ATOM     16  C   UNL d   1       0.375  -2.707  -2.802  0.00  0.00     0.017 A 
ENDBRANCH   4   9
ENDBRANCH   1   2
BRANCH   1  17
ATOM     17  C   UNL d   1       3.267   0.739  -0.076  0.00  0.00     0.257 C 
ATOM     18  N   UNL d   1       3.398  -0.616  -0.259  0.00  0.00    -0.266 N 
ATOM     19  H   UNL d   1       2.593  -1.242  -0.374  0.00  0.00     0.190 HD
ATOM     20  O   UNL d   1       4.274   1.458   0.026  0.00  0.00    -0.270 OA
BRANCH  18  21
ATOM     21  N   UNL d   1       4.677  -1.159  -0.472  0.00  0.00    -0.263 N 
ATOM     22  C   UNL d   1       4.935  -2.451  -0.070  0.00  0.00     0.271 C 
ATOM     23  O   UNL d   1       4.038  -3.167   0.386  0.00  0.00    -0.266 OA
ATOM     24  H   UNL d   1       5.409  -0.501  -0.742  0.00  0.00     0.190 HD
BRANCH  22  25
ATOM     25  C   UNL d   1       6.320  -3.013  -0.234  0.00  0.00     0.055 A 
ATOM     26  C   UNL d   1       7.446  -2.346  -0.744  0.00  0.00     0.051 A 
ATOM     27  C   UNL d   1       8.661  -3.033  -0.928  0.00  0.00     0.048 A 
ATOM     28 CL   UNL d   1       7.471  -0.674  -1.180  0.00  0.00    -0.083 Cl
ATOM     29  C   UNL d   1       8.770  -4.379  -0.591  0.00  0.00     0.035 A 
ATOM     30  C   UNL d   1       7.684  -5.048  -0.044  0.00  0.00     0.025 A 
ATOM     31 CL   UNL d   1      10.247  -5.215  -0.858  0.00  0.00    -0.084 Cl
ATOM     32  C   UNL d   1       6.473  -4.370   0.133  0.00  0.00     0.020 A 
ENDBRANCH  22  25
ENDBRANCH  18  21
ENDBRANCH   1  17
TORSDOF 5
