REMARK  7 active torsions:
REMARK  status: ('A' for Active; 'I' for Inactive)
REMARK    1  A    between atoms: O_5  and  C_1 
REMARK    2  A    between atoms: C_14  and  C_4 
REMARK    3  A    between atoms: C_7  and  O_5 
REMARK    4  A    between atoms: C_11  and  C_6 
REMARK       I    between atoms: N_15  and  C_7 
REMARK    5  A    between atoms: C_23  and  C_10 
REMARK    6  A    between atoms: C_17  and  C_14 
REMARK    7  A    between atoms: O_24  and  C_23 
ROOT
ATOM      1  C   UNL d   1       0.957  -0.887  -0.606  0.00  0.00     0.163 C 
ATOM      2  N   UNL d   1       1.049   0.412  -0.941  0.00  0.00    -0.321 N 
ATOM      3  HN  UNL d   1       1.768   0.772  -1.568  1.00  0.00     0.169 HD
ATOM      4  C   UNL d   1       0.014  -1.429   0.252  0.00  0.00     0.022 C 
ATOM      5  C   UNL d   1       0.113   1.195  -0.381  0.00  0.00     0.117 C 
ATOM      6  N   UNL d   1      -1.007   0.715   0.197  0.00  0.00    -0.343 N 
ATOM      7  HN  UNL d   1      -1.780   1.335   0.439  1.00  0.00     0.167 HD
ATOM      8  C   UNL d   1      -1.074  -0.610   0.446  0.00  0.00     0.045 C 
ENDROOT
BRANCH   5   9
ATOM      9  C   UNL d   1       0.298   2.662  -0.322  0.00  0.00     0.010 A 
ATOM     10  C   UNL d   1      -0.585   3.463   0.435  0.00  0.00     0.039 A 
ATOM     11  C   UNL d   1      -0.406   4.843   0.576  0.00  0.00     0.041 A 
ATOM     12 CL   UNL d   1      -1.541   5.709   1.551  0.00  0.00    -0.084 Cl
ATOM     13  C   UNL d   1       0.671   5.486  -0.043  0.00  0.00    -0.040 A 
ATOM     14  C   UNL d   1       1.552   4.709  -0.810  0.00  0.00     0.009 A 
ATOM     15  C   UNL d   1       0.898   6.964   0.106  0.00  0.00     0.050 C 
ATOM     16  C   UNL d   1       1.370   3.322  -0.943  0.00  0.00     0.016 A 
ENDBRANCH   5   9
BRANCH   1  17
ATOM     17  O   UNL d   1       1.504  -1.906  -1.475  0.00  0.00    -0.243 OA
BRANCH  17  18
ATOM     18  C   UNL d   1       2.524  -1.825  -2.401  0.00  0.00     0.368 C 
ATOM     19  N   UNL d   1       2.502  -2.906  -3.284  0.00  0.00    -0.336 N 
ATOM     20  C   UNL d   1       3.584  -3.090  -4.230  0.00  0.00     0.154 C 
ATOM     21  C   UNL d   1       1.392  -3.843  -3.384  0.00  0.00     0.154 C 
ATOM     22  O   UNL d   1       3.373  -0.939  -2.410  0.00  0.00    -0.238 OA
ENDBRANCH  17  18
ENDBRANCH   1  17
BRANCH   8  23
ATOM     23  C   UNL d   1      -2.462  -1.187   0.628  0.00  0.00     0.224 C 
BRANCH  23  24
ATOM     24  O   UNL d   1      -2.728  -1.809   1.875  0.00  0.00    -0.390 OA
ATOM     25  C   UNL d   1      -2.981  -0.865   2.905  0.00  0.00     0.201 C 
ENDBRANCH  23  24
ENDBRANCH   8  23
BRANCH   4  26
ATOM     26  C   UNL d   1       0.193  -2.780   0.879  0.00  0.00     0.078 C 
BRANCH  26  27
ATOM     27  C   UNL d   1       0.501  -2.705   2.370  0.00  0.00    -0.089 C 
ATOM     28  C   UNL d   1      -0.194  -3.424   3.269  0.00  0.00     0.014 C 
ATOM     29  C   UNL d   1       1.631  -1.816   2.826  0.00  0.00     0.043 C 
ENDBRANCH  26  27
ENDBRANCH   4  26
TORSDOF 7
