REMARK  3 active torsions:
REMARK  status: ('A' for Active; 'I' for Inactive)
REMARK    1  A    between atoms: N_2  and  C_1 
REMARK    2  A    between atoms: N_3  and  C_5 
REMARK    3  A    between atoms: O_13  and  C_6 
ROOT
ATOM      1  C   UNL d   1      -1.011   1.183  -0.008  0.00  0.00     0.139 A 
ATOM      2  C   UNL d   1      -1.780   0.013   0.013  0.00  0.00     0.075 A 
ATOM      3  C   UNL d   1      -1.110  -1.201   0.022  0.00  0.00     0.105 A 
ATOM      4  C   UNL d   1       0.407   1.202  -0.031  0.00  0.00     0.107 A 
ATOM      5  C   UNL d   1       1.073  -0.039  -0.002  0.00  0.00    -0.024 A 
ATOM      6  C   UNL d   1       0.291  -1.228   0.021  0.00  0.00     0.045 A 
ATOM      7  C   UNL d   1       2.554  -0.308  -0.028  0.00  0.00     0.051 C 
ENDROOT
BRANCH   1   8
ATOM      8  N   UNL d   1      -1.748   2.437  -0.012  0.00  0.00    -0.113 N 
ATOM      9  O   UNL d   1      -2.466   2.656  -0.996  0.00  0.00    -0.532 OA
ATOM     10  O   UNL d   1      -1.664   3.149   0.999  0.00  0.00    -0.532 OA
ENDBRANCH   1   8
BRANCH   4  11
ATOM     11  O   UNL d   1       0.919   2.461  -0.122  0.00  0.00    -0.353 OA
ATOM     12  C   UNL d   1       2.299   2.748  -0.043  0.00  0.00     0.210 C 
ENDBRANCH   4  11
BRANCH   3  13
ATOM     13  N   UNL d   1      -1.868  -2.458   0.029  0.00  0.00    -0.116 N 
ATOM     14  O   UNL d   1      -3.104  -2.382   0.050  0.00  0.00    -0.532 OA
ATOM     15  O   UNL d   1      -1.226  -3.517   0.013  0.00  0.00    -0.532 OA
ENDBRANCH   3  13
TORSDOF 3
