REMARK  5 active torsions:
REMARK  status: ('A' for Active; 'I' for Inactive)
REMARK    1  A    between atoms: N_5  and  C_1 
REMARK    2  A    between atoms: N_6  and  C_1 
REMARK       I    between atoms: C_2  and  N_4 
REMARK    3  A    between atoms: C_3  and  C_2 
REMARK    4  A    between atoms: N_4  and  N_5 
REMARK    5  A    between atoms: C_12  and  N_6 
ROOT
ATOM      1  N   UNL d   1       0.537   1.086   1.046  0.00  0.00    -0.273 N 
ATOM      2  H   UNL d   1      -0.458   1.314   0.992  0.00  0.00     0.189 HD
ENDROOT
BRANCH   1   3
ATOM      3  N   UNL d   1       1.111   1.239   2.309  0.00  0.00    -0.264 N 
ATOM      4  C   UNL d   1       0.279   1.580   3.359  0.00  0.00     0.271 C 
ATOM      5  O   UNL d   1      -0.945   1.575   3.271  0.00  0.00    -0.266 OA
ATOM      6  H   UNL d   1       2.107   1.435   2.310  0.00  0.00     0.190 HD
BRANCH   4   7
ATOM      7  C   UNL d   1       0.950   2.038   4.601  0.00  0.00     0.049 A 
ATOM      8  C   UNL d   1       0.212   2.766   5.524  0.00  0.00     0.104 A 
ATOM      9  N   UNL d   1       0.731   3.294   6.662  0.00  0.00    -0.374 N 
ATOM     10  C   UNL d   1       2.043   3.073   6.891  0.00  0.00     0.087 A 
ATOM     11  HN  UNL d   1       0.158   3.832   7.312  1.00  0.00     0.164 HD
ATOM     12  C   UNL d   1       2.857   2.338   6.045  0.00  0.00     0.018 A 
ATOM     13  C   UNL d   1       2.300   1.805   4.884  0.00  0.00     0.020 A 
ENDBRANCH   4   7
ENDBRANCH   1   3
BRANCH   1  14
ATOM     14  C   UNL d   1       1.033   0.191   0.128  0.00  0.00     0.191 C 
ATOM     15  S   UNL d   1       2.282  -0.887   0.407  0.00  0.00    -0.039 SA
BRANCH  14  16
ATOM     16  N   UNL d   1       0.420   0.197  -1.099  0.00  0.00    -0.332 N 
ATOM     17  H   UNL d   1       0.568  -0.640  -1.652  0.00  0.00     0.168 HD
BRANCH  16  18
ATOM     18  C   UNL d   1      -0.221   1.274  -1.750  0.00  0.00     0.034 A 
ATOM     19  C   UNL d   1      -0.013   2.611  -1.389  0.00  0.00     0.029 A 
ATOM     20  C   UNL d   1      -0.644   3.641  -2.086  0.00  0.00     0.002 A 
ATOM     21  C   UNL d   1      -1.486   3.343  -3.154  0.00  0.00     0.000 A 
ATOM     22  C   UNL d   1      -1.679   2.017  -3.536  0.00  0.00     0.002 A 
ATOM     23  C   UNL d   1      -1.036   0.986  -2.846  0.00  0.00     0.029 A 
ENDBRANCH  16  18
ENDBRANCH  14  16
ENDBRANCH   1  14
TORSDOF 5
