REMARK  3 active torsions:
REMARK  status: ('A' for Active; 'I' for Inactive)
REMARK    1  A    between atoms: C_6  and  C_1 
REMARK    2  A    between atoms: C_5  and  C_2 
REMARK    3  A    between atoms: O_16  and  C_13 
ROOT
ATOM      1  C   UNL d   1       1.045  -0.009  -0.058  0.00  0.00     0.057 C 
ATOM      2  C   UNL d   1       2.215  -0.181   0.598  0.00  0.00     0.060 C 
ATOM      3  C   UNL d   1       0.397  -1.103  -0.725  0.00  0.00     0.100 C 
ATOM      4  N   UNL d   1      -0.179  -1.973  -1.238  0.00  0.00    -0.191 NA
ENDROOT
BRANCH   1   5
ATOM      5  C   UNL d   1       0.357   1.319  -0.046  0.00  0.00    -0.015 A 
ATOM      6  C   UNL d   1       1.069   2.533  -0.020  0.00  0.00     0.015 A 
ATOM      7  C   UNL d   1       0.409   3.772  -0.042  0.00  0.00     0.037 A 
ATOM      8  C   UNL d   1      -0.980   3.825  -0.108  0.00  0.00     0.068 A 
ATOM      9  C   UNL d   1      -1.701   2.635  -0.168  0.00  0.00     0.037 A 
ATOM     10  C   UNL d   1      -1.045   1.399  -0.127  0.00  0.00     0.015 A 
BRANCH   8  11
ATOM     11  O   UNL d   1      -1.730   4.965  -0.180  0.00  0.00    -0.356 OA
ATOM     12  C   UNL d   1      -1.185   6.111   0.464  0.00  0.00     0.210 C 
ENDBRANCH   8  11
ENDBRANCH   1   5
BRANCH   2  13
ATOM     13  C   UNL d   1       2.953  -1.403   0.594  0.00  0.00     0.076 A 
ATOM     14  O   UNL d   1       2.928  -2.311  -0.441  0.00  0.00    -0.323 OA
ATOM     15  C   UNL d   1       3.735  -3.350  -0.130  0.00  0.00     0.142 A 
ATOM     16  C   UNL d   1       4.323  -3.145   1.090  0.00  0.00     0.027 A 
ATOM     17  C   UNL d   1       3.835  -1.897   1.550  0.00  0.00     0.039 A 
ENDBRANCH   2  13
TORSDOF 3
