REMARK  3 active torsions:
REMARK  status: ('A' for Active; 'I' for Inactive)
REMARK    1  A    between atoms: N_10  and  C_3 
REMARK    2  A    between atoms: N_17  and  C_6 
REMARK    3  A    between atoms: C_7  and  N_10 
ROOT
ATOM      1  N   UNL d   1      -0.411   1.259   0.712  0.00  0.00    -0.166 N 
ATOM      2  HN  UNL d   1      -1.063   2.043   0.689  1.00  0.00     0.187 HD
ATOM      3  C   UNL d   1      -0.763   0.033   0.332  0.00  0.00     0.685 A 
ATOM      4  N   UNL d   1       0.069  -1.005   0.322  0.00  0.00    -0.188 N 
ATOM      5  HN  UNL d   1      -0.217  -1.932   0.006  1.00  0.00     0.185 HD
ATOM      6  C   UNL d   1       0.843   1.395   1.121  0.00  0.00     0.170 A 
ATOM      7  N   UNL d   1       1.738   0.423   1.183  0.00  0.00    -0.328 N 
ATOM      8  HN  UNL d   1       2.687   0.563   1.532  1.00  0.00     0.169 HD
ATOM      9  C   UNL d   1       1.294  -0.749   0.753  0.00  0.00     0.200 A 
ENDROOT
BRANCH   3  10
ATOM     10  N   UNL d   1      -2.089  -0.135  -0.066  0.00  0.00    -0.191 N 
ATOM     11  H   UNL d   1      -2.592   0.739  -0.009  0.00  0.00     0.184 HD
BRANCH  10  12
ATOM     12  C   UNL d   1      -2.894  -1.289  -0.021  0.00  0.00     0.061 A 
ATOM     13  C   UNL d   1      -2.869  -2.206   1.059  0.00  0.00    -0.034 A 
ATOM     14  C   UNL d   1      -3.619  -3.394   0.981  0.00  0.00     0.015 A 
ATOM     15  C   UNL d   1      -2.071  -1.998   2.317  0.00  0.00     0.050 C 
ATOM     16  C   UNL d   1      -4.448  -3.668  -0.106  0.00  0.00    -0.061 A 
ATOM     17  C   UNL d   1      -4.551  -2.715  -1.121  0.00  0.00     0.015 A 
ATOM     18  C   UNL d   1      -5.197  -4.963  -0.170  0.00  0.00     0.048 C 
ATOM     19  C   UNL d   1      -3.800  -1.527  -1.085  0.00  0.00    -0.034 A 
ATOM     20  C   UNL d   1      -3.957  -0.584  -2.251  0.00  0.00     0.050 C 
ENDBRANCH  10  12
ENDBRANCH   3  10
BRANCH   6  21
ATOM     21  N   UNL d   1       1.236   2.636   1.583  0.00  0.00    -0.273 NA
ATOM     22  H   UNL d   1       0.435   3.159   1.906  0.00  0.00     0.127 HD
ATOM     23  H   UNL d   1       2.009   2.532   2.225  0.00  0.00     0.127 HD
ENDBRANCH   6  21
TORSDOF 3
