REMARK  5 active torsions:
REMARK  status: ('A' for Active; 'I' for Inactive)
REMARK    1  A    between atoms: C_3  and  O_6 
REMARK       I    between atoms: N_10  and  C_3 
REMARK    2  A    between atoms: C_11  and  C_4 
REMARK    3  A    between atoms: O_6  and  C_5 
REMARK    4  A    between atoms: C_21  and  C_12 
REMARK    5  A    between atoms: O_20  and  C_21 
ROOT
ATOM      1  N   UNL d   1       1.216   0.588   0.056  0.00  0.00    -0.322 N 
ATOM      2  HN  UNL d   1       2.153   0.981  -0.035  1.00  0.00     0.169 HD
ATOM      3  C   UNL d   1       0.118   1.362   0.028  0.00  0.00     0.117 A 
ATOM      4  C   UNL d   1       1.012  -0.737   0.210  0.00  0.00     0.156 A 
ATOM      5  N   UNL d   1      -1.141   0.890   0.091  0.00  0.00    -0.343 N 
ATOM      6  HN  UNL d   1      -1.943   1.517   0.023  1.00  0.00     0.167 HD
ATOM      7  C   UNL d   1      -0.235  -1.305   0.333  0.00  0.00     0.083 A 
ATOM      8  C   UNL d   1      -1.305  -0.439   0.245  0.00  0.00     0.038 A 
ENDROOT
BRANCH   3   9
ATOM      9  C   UNL d   1       0.272   2.830  -0.076  0.00  0.00     0.008 A 
ATOM     10  C   UNL d   1       1.533   3.455  -0.060  0.00  0.00     0.017 A 
ATOM     11  C   UNL d   1       1.657   4.852  -0.104  0.00  0.00     0.025 A 
ATOM     12  C   UNL d   1       0.519   5.650  -0.171  0.00  0.00     0.034 A 
ATOM     13  C   UNL d   1      -0.742   5.065  -0.211  0.00  0.00     0.025 A 
ATOM     14 CL   UNL d   1       0.667   7.362  -0.194  0.00  0.00    -0.084 Cl
ATOM     15  C   UNL d   1      -0.859   3.672  -0.167  0.00  0.00     0.017 A 
ENDBRANCH   3   9
BRANCH   4  16
ATOM     16  O   UNL d   1       2.190  -1.510   0.059  0.00  0.00    -0.244 OA
BRANCH  16  17
ATOM     17  C   UNL d   1       2.313  -2.873   0.336  0.00  0.00     0.368 C 
ATOM     18  N   UNL d   1       3.487  -3.418  -0.173  0.00  0.00    -0.336 N 
ATOM     19  C   UNL d   1       4.530  -2.622  -0.796  0.00  0.00     0.154 C 
ATOM     20  C   UNL d   1       3.801  -4.807   0.107  0.00  0.00     0.154 C 
ATOM     21  O   UNL d   1       1.480  -3.528   0.951  0.00  0.00    -0.238 OA
ENDBRANCH  16  17
ENDBRANCH   4  16
BRANCH   8  22
ATOM     22  C   UNL d   1      -2.717  -0.967   0.227  0.00  0.00     0.224 C 
BRANCH  22  23
ATOM     23  O   UNL d   1      -3.046  -1.576   1.474  0.00  0.00    -0.390 OA
ATOM     24  C   UNL d   1      -4.368  -2.100   1.448  0.00  0.00     0.201 C 
ENDBRANCH  22  23
ENDBRANCH   8  22
TORSDOF 5
