REMARK  3 active torsions:
REMARK  status: ('A' for Active; 'I' for Inactive)
REMARK    1  A    between atoms: N_7  and  C_3 
REMARK       I    between atoms: C_9  and  N_8 
REMARK    2  A    between atoms: O_19  and  C_9 
REMARK    3  A    between atoms: C_20  and  O_19 
ROOT
ATOM      1  N   UNL d   1      -1.304   3.078  -0.140  0.00  0.00    -0.364 N 
ATOM      2  N   UNL d   1      -2.818   5.422  -0.783  0.00  0.00    -0.325 N 
ATOM      3  C   UNL d   1      -3.011   6.784  -0.736  0.00  0.00     0.362 C 
ATOM      4  C   UNL d   1      -2.169   3.700   0.895  0.00  0.00     0.144 C 
ATOM      5  C   UNL d   1      -0.740   4.108  -1.052  0.00  0.00     0.144 C 
ATOM      6  C   UNL d   1      -1.880   4.863  -1.754  0.00  0.00     0.148 C 
ATOM      7  C   UNL d   1      -3.325   4.472   0.218  0.00  0.00     0.148 C 
ATOM      8  O   UNL d   1      -2.460   7.577  -1.491  0.00  0.00    -0.238 OA
ENDROOT
BRANCH   1   9
ATOM      9  C   UNL d   1      -0.698   1.821   0.022  0.00  0.00     0.114 A 
ATOM     10  N   UNL d   1      -1.424   0.640   0.169  0.00  0.00    -0.289 N 
ATOM     11  C   UNL d   1      -0.835  -0.627   0.246  0.00  0.00     0.332 A 
ATOM     12  C   UNL d   1      -2.881   0.675   0.162  0.00  0.00     0.163 C 
ATOM     13  N   UNL d   1       0.543  -0.676   0.122  0.00  0.00    -0.271 N 
ATOM     14  O   UNL d   1      -1.505  -1.651   0.399  0.00  0.00    -0.246 OA
ATOM     15  C   UNL d   1       1.210  -1.964   0.084  0.00  0.00     0.164 C 
ATOM     16  C   UNL d   1       1.336   0.438   0.003  0.00  0.00     0.254 A 
ATOM     17  C   UNL d   1       0.642   1.725  -0.035  0.00  0.00     0.123 A 
ATOM     18  O   UNL d   1       2.560   0.420  -0.093  0.00  0.00    -0.268 OA
ENDBRANCH   1   9
BRANCH   3  19
ATOM     19  O   UNL d   1      -3.820   7.154   0.292  0.00  0.00    -0.304 OA
BRANCH  19  20
ATOM     20  C   UNL d   1      -3.761   8.542   0.646  0.00  0.00     0.176 C 
ATOM     21  C   UNL d   1      -2.627   8.717   1.639  0.00  0.00     0.034 C 
ENDBRANCH  19  20
ENDBRANCH   3  19
TORSDOF 3
