REMARK  3 active torsions:
REMARK  status: ('A' for Active; 'I' for Inactive)
REMARK    1  A    between atoms: N_5  and  C_3 
REMARK    2  A    between atoms: N_11  and  C_4 
REMARK    3  A    between atoms: C_16  and  N_11 
ROOT
ATOM      1  N   UNL d   1      -0.450  -1.118  -0.556  0.00  0.00    -0.021 N 
ATOM      2  HN  UNL d   1      -0.852  -1.972  -0.942  1.00  0.00     0.203 HD
ATOM      3  C   UNL d   1      -1.071   0.059  -0.653  0.00  0.00     0.703 A 
ATOM      4  C   UNL d   1       0.722  -1.114   0.070  0.00  0.00     0.698 A 
ATOM      5  N   UNL d   1      -0.625   1.198  -0.116  0.00  0.00    -0.186 N 
ATOM      6  HN  UNL d   1      -1.130   2.081  -0.187  1.00  0.00     0.185 HD
ATOM      7  N   UNL d   1       1.260  -0.033   0.626  0.00  0.00    -0.187 N 
ATOM      8  HN  UNL d   1       2.163  -0.053   1.100  1.00  0.00     0.185 HD
ATOM      9  C   UNL d   1       0.534   1.077   0.519  0.00  0.00     0.215 A 
ENDROOT
BRANCH   4  10
ATOM     10  N   UNL d   1       1.484  -2.282   0.102  0.00  0.00    -0.191 N 
ATOM     11  H   UNL d   1       2.352  -2.112   0.592  0.00  0.00     0.184 HD
BRANCH  10  12
ATOM     12  C   UNL d   1       1.036  -3.612   0.147  0.00  0.00     0.050 A 
ATOM     13  C   UNL d   1       1.850  -4.620  -0.378  0.00  0.00     0.054 A 
ATOM     14  C   UNL d   1       1.444  -5.960  -0.344  0.00  0.00     0.042 A 
ATOM     15 CL   UNL d   1       2.494  -7.138  -1.051  0.00  0.00    -0.084 Cl
ATOM     16  C   UNL d   1       0.225  -6.325   0.242  0.00  0.00    -0.040 A 
ATOM     17  C   UNL d   1      -0.586  -5.315   0.775  0.00  0.00     0.011 A 
ATOM     18  C   UNL d   1      -0.228  -7.755   0.319  0.00  0.00     0.050 C 
ATOM     19  C   UNL d   1      -0.188  -3.976   0.719  0.00  0.00     0.030 A 
ENDBRANCH  10  12
ENDBRANCH   4  10
BRANCH   3  20
ATOM     20  N   UNL d   1      -2.281   0.094  -1.411  0.00  0.00    -0.168 N 
ATOM     21  C   UNL d   1      -3.030   1.216  -1.711  0.00  0.00     0.114 A 
ATOM     22  C   UNL d   1      -4.110   0.839  -2.480  0.00  0.00     0.020 A 
ATOM     23  C   UNL d   1      -4.032  -0.561  -2.656  0.00  0.00     0.020 A 
ATOM     24  C   UNL d   1      -2.903  -0.994  -1.999  0.00  0.00     0.114 A 
ENDBRANCH   3  20
TORSDOF 3
