REMARK  7 active torsions:
REMARK  status: ('A' for Active; 'I' for Inactive)
REMARK    1  A    between atoms: C_3  and  C_1 
REMARK    2  A    between atoms: C_4  and  C_1 
REMARK    3  A    between atoms: C_5  and  C_1 
REMARK    4  A    between atoms: C_2  and  C_8 
REMARK    5  A    between atoms: C_9  and  C_3 
REMARK    6  A    between atoms: C_6  and  C_4 
REMARK    7  A    between atoms: C_10  and  C_6 
ROOT
ATOM      1  C   UNL d   1       1.057  -0.019   0.199  0.00  0.00     0.107 C 
ENDROOT
BRANCH   1   2
ATOM      2  C   UNL d   1       0.810  -0.234   1.698  0.00  0.00     0.169 C 
ATOM      3  O   UNL d   1       0.542   0.707   2.450  0.00  0.00    -0.292 OA
BRANCH   2   4
ATOM      4  C   UNL d   1       0.993  -1.594   2.303  0.00  0.00     0.010 A 
ATOM      5  C   UNL d   1       1.328  -1.671   3.664  0.00  0.00     0.016 A 
ATOM      6  C   UNL d   1       1.484  -2.909   4.297  0.00  0.00     0.017 A 
ATOM      7  C   UNL d   1       1.299  -4.100   3.583  0.00  0.00     0.048 A 
ATOM      8  C   UNL d   1       0.972  -4.021   2.219  0.00  0.00     0.017 A 
ATOM      9  C   UNL d   1       0.820  -2.780   1.583  0.00  0.00     0.016 A 
BRANCH   7  10
ATOM     10  C   UNL d   1       1.425  -5.448   4.258  0.00  0.00     0.417 C 
ATOM     11  F   UNL d   1       1.750  -5.369   5.578  0.00  0.00    -0.166 F 
ATOM     12  F   UNL d   1       0.270  -6.167   4.201  0.00  0.00    -0.166 F 
ATOM     13  F   UNL d   1       2.380  -6.230   3.684  0.00  0.00    -0.166 F 
ENDBRANCH   7  10
ENDBRANCH   2   4
ENDBRANCH   1   2
BRANCH   1  14
ATOM     14  C   UNL d   1       0.369   1.276  -0.293  0.00  0.00     0.101 C 
BRANCH  14  15
ATOM     15  C   UNL d   1      -1.143   1.116  -0.336  0.00  0.00     0.160 C 
ATOM     16  O   UNL d   1      -1.660  -0.002  -0.380  0.00  0.00    -0.292 OA
BRANCH  15  17
ATOM     17  C   UNL d   1      -2.029   2.331  -0.391  0.00  0.00     0.010 A 
ATOM     18  C   UNL d   1      -1.542   3.639  -0.331  0.00  0.00     0.015 A 
ATOM     19  C   UNL d   1      -2.428   4.729  -0.368  0.00  0.00     0.007 A 
ATOM     20  C   UNL d   1      -3.810   4.529  -0.477  0.00  0.00    -0.062 A 
ATOM     21  C   UNL d   1      -4.295   3.221  -0.552  0.00  0.00     0.007 A 
ATOM     22  C   UNL d   1      -4.746   5.705  -0.507  0.00  0.00     0.048 C 
ATOM     23  C   UNL d   1      -3.414   2.135  -0.508  0.00  0.00     0.015 A 
ENDBRANCH  15  17
ENDBRANCH  14  15
ENDBRANCH   1  14
BRANCH   1  24
ATOM     24  C   UNL d   1       2.560   0.065   0.005  0.00  0.00    -0.006 A 
ATOM     25  S   UNL d   1       3.352  -1.032  -1.051  0.00  0.00    -0.106 SA
ATOM     26  C   UNL d   1       4.889  -0.379  -0.686  0.00  0.00     0.050 A 
ATOM     27  C   UNL d   1       4.808   0.668   0.204  0.00  0.00     0.008 A 
ATOM     28  C   UNL d   1       3.464   0.929   0.597  0.00  0.00     0.016 A 
ENDBRANCH   1  24
TORSDOF 7
