REMARK  5 active torsions:
REMARK  status: ('A' for Active; 'I' for Inactive)
REMARK    1  A    between atoms: C_6  and  C_1 
REMARK    2  A    between atoms: O_16  and  C_3 
REMARK    3  A    between atoms: C_12  and  C_7 
REMARK    4  A    between atoms: O_17  and  C_9 
REMARK    5  A    between atoms: O_23  and  C_13 
ROOT
ATOM      1  C   UNL d   1      -0.751   1.118  -0.106  0.00  0.00     0.004 C 
ATOM      2  C   UNL d   1      -1.357  -0.096  -0.505  0.00  0.00     0.106 C 
ATOM      3  C   UNL d   1      -0.593  -1.255  -0.485  0.00  0.00     0.162 C 
ATOM      4  N   UNL d   1       0.728  -1.280  -0.243  0.00  0.00    -0.335 N 
ATOM      5  HN  UNL d   1       1.253  -2.152  -0.304  1.00  0.00     0.168 HD
ATOM      6  C   UNL d   1       1.345  -0.124   0.083  0.00  0.00     0.045 C 
ATOM      7  C   UNL d   1       0.613   1.053   0.239  0.00  0.00     0.044 C 
ATOM      8  C   UNL d   1      -2.718  -0.183  -0.962  0.00  0.00     0.104 C 
ATOM      9  N   UNL d   1      -3.820  -0.316  -1.297  0.00  0.00    -0.191 NA
ENDROOT
BRANCH   1  10
ATOM     10  C   UNL d   1      -1.476   2.425  -0.016  0.00  0.00     0.012 A 
ATOM     11  C   UNL d   1      -0.944   3.690  -0.410  0.00  0.00     0.112 A 
ATOM     12  C   UNL d   1      -1.702   4.870  -0.221  0.00  0.00     0.102 A 
ATOM     13  C   UNL d   1      -2.978   4.806   0.349  0.00  0.00     0.040 A 
ATOM     14  C   UNL d   1      -3.506   3.593   0.750  0.00  0.00     0.004 A 
ATOM     15  C   UNL d   1      -2.757   2.432   0.590  0.00  0.00     0.015 A 
BRANCH  11  16
ATOM     16  O   UNL d   1       0.375   3.862  -0.768  0.00  0.00    -0.352 OA
ATOM     17  C   UNL d   1       0.771   3.274  -2.006  0.00  0.00     0.210 C 
ENDBRANCH  11  16
BRANCH  12  18
ATOM     18  O   UNL d   1      -1.279   6.156  -0.433  0.00  0.00    -0.353 OA
ATOM     19  C   UNL d   1      -0.591   6.394  -1.653  0.00  0.00     0.210 C 
ENDBRANCH  12  18
ENDBRANCH   1  10
BRANCH   3  20
ATOM     20  O   UNL d   1      -1.110  -2.497  -0.722  0.00  0.00    -0.345 OA
ATOM     21  H   UNL d   1      -2.042  -2.524  -0.453  0.00  0.00     0.219 HD
ENDBRANCH   3  20
BRANCH   6  22
ATOM     22  C   UNL d   1       2.825  -0.176   0.148  0.00  0.00    -0.009 A 
ATOM     23  C   UNL d   1       3.529  -1.201  -0.524  0.00  0.00     0.017 A 
ATOM     24  C   UNL d   1       4.926  -1.249  -0.536  0.00  0.00     0.043 A 
ATOM     25  C   UNL d   1       5.646  -0.269   0.129  0.00  0.00     0.116 A 
ATOM     26  C   UNL d   1       4.995   0.753   0.803  0.00  0.00     0.043 A 
ATOM     27  F   UNL d   1       6.984  -0.307   0.118  0.00  0.00    -0.206 F 
ATOM     28  C   UNL d   1       3.596   0.797   0.815  0.00  0.00     0.017 A 
ENDBRANCH   6  22
TORSDOF 5
