REMARK  5 active torsions:
REMARK  status: ('A' for Active; 'I' for Inactive)
REMARK    1  A    between atoms: C_15  and  C_4 
REMARK    2  A    between atoms: O_16  and  C_9 
REMARK    3  A    between atoms: C_11  and  O_19 
REMARK    4  A    between atoms: C_14  and  O_16 
REMARK    5  A    between atoms: O_19  and  C_28 
ROOT
ATOM      1  N   UNL d   1       1.239   0.103   0.017  0.00  0.00    -0.317 N 
ATOM      2  HN  UNL d   1       2.248   0.245   0.063  1.00  0.00     0.169 HD
ATOM      3  C   UNL d   1       0.574  -1.032  -0.021  0.00  0.00     0.206 A 
ATOM      4  C   UNL d   1       0.244   1.051  -0.022  0.00  0.00     0.138 A 
ATOM      5  N   UNL d   1      -0.991   0.536  -0.073  0.00  0.00    -0.242 N 
ATOM      6  HN  UNL d   1      -1.880   1.036  -0.103  1.00  0.00     0.196 HD
ATOM      7  C   UNL d   1       1.211  -2.313   0.007  0.00  0.00     0.131 A 
ATOM      8  O   UNL d   1      -0.779  -0.843  -0.075  0.00  0.00    -0.215 OA
ATOM      9  C   UNL d   1       1.464  -4.503   0.074  0.00  0.00     0.191 A 
ATOM     10  O   UNL d   1       0.538  -3.510  -0.024  0.00  0.00    -0.283 OA
ATOM     11  C   UNL d   1       2.570  -2.569   0.090  0.00  0.00     0.047 A 
ATOM     12  C   UNL d   1       2.734  -3.970   0.107  0.00  0.00     0.067 A 
ENDROOT
BRANCH   4  13
ATOM     13  C   UNL d   1       0.550   2.478  -0.031  0.00  0.00     0.010 A 
ATOM     14  C   UNL d   1       1.886   2.913  -0.022  0.00  0.00     0.018 A 
ATOM     15  C   UNL d   1       2.203   4.277  -0.076  0.00  0.00     0.038 A 
ATOM     16  C   UNL d   1       1.188   5.224  -0.170  0.00  0.00     0.078 A 
ATOM     17  C   UNL d   1      -0.144   4.801  -0.123  0.00  0.00     0.038 A 
ATOM     18  C   UNL d   1      -0.464   3.441  -0.061  0.00  0.00     0.018 A 
BRANCH  16  19
ATOM     19  O   UNL d   1       1.348   6.572  -0.272  0.00  0.00    -0.255 OA
BRANCH  19  20
ATOM     20  C   UNL d   1       2.519   7.088  -0.888  0.00  0.00     0.530 C 
ATOM     21  F   UNL d   1       3.188   6.186  -1.638  0.00  0.00    -0.144 F 
ATOM     22  F   UNL d   1       2.158   8.107  -1.700  0.00  0.00    -0.144 F 
ATOM     23  F   UNL d   1       3.350   7.577   0.057  0.00  0.00    -0.144 F 
ENDBRANCH  19  20
ENDBRANCH  16  19
ENDBRANCH   4  13
BRANCH   9  24
ATOM     24  O   UNL d   1       0.944  -5.729   0.130  0.00  0.00    -0.288 OA
BRANCH  24  25
ATOM     25  C   UNL d   1       1.643  -6.745   0.740  0.00  0.00     0.081 A 
ATOM     26  C   UNL d   1       2.329  -6.560   1.944  0.00  0.00     0.061 A 
ATOM     27  C   UNL d   1       3.024  -7.623   2.514  0.00  0.00     0.038 A 
ATOM     28 CL   UNL d   1       3.917  -7.371   3.963  0.00  0.00    -0.084 Cl
ATOM     29  C   UNL d   1       3.007  -8.881   1.919  0.00  0.00     0.048 A 
ATOM     30  C   UNL d   1       2.281  -9.068   0.744  0.00  0.00     0.038 A 
ATOM     31  C   UNL d   1       1.595  -8.007   0.150  0.00  0.00     0.061 A 
ATOM     32 CL   UNL d   1       2.232 -10.628   0.019  0.00  0.00    -0.084 Cl
ENDBRANCH  24  25
ENDBRANCH   9  24
TORSDOF 5
