REMARK  5 active torsions:
REMARK  status: ('A' for Active; 'I' for Inactive)
REMARK    1  A    between atoms: C_10  and  C_4 
REMARK    2  A    between atoms: C_11  and  C_4 
REMARK    3  A    between atoms: C_8  and  N_6 
REMARK    4  A    between atoms: O_18  and  C_10 
REMARK    5  A    between atoms: O_17  and  C_11 
ROOT
ATOM      1  C   UNL d   1      -0.275  -1.165   0.068  0.00  0.00     0.141 C 
ATOM      2  N   UNL d   1      -1.428  -0.585   0.035  0.00  0.00    -0.356 N 
ATOM      3  HN  UNL d   1      -2.316  -1.070   0.164  1.00  0.00     0.162 HD
ATOM      4  C   UNL d   1      -1.302   0.880  -0.216  0.00  0.00     0.083 C 
ATOM      5  S   UNL d   1       1.120  -0.140  -0.191  0.00  0.00    -0.091 SA
ATOM      6  N   UNL d   1       0.004  -2.480   0.285  0.00  0.00    -0.337 N 
ATOM      7  C   UNL d   1       0.117   1.324   0.159  0.00  0.00     0.117 C 
ATOM      8  H   UNL d   1       0.979  -2.736   0.213  0.00  0.00     0.168 HD
ENDROOT
BRANCH   6   9
ATOM      9  C   UNL d   1      -0.819  -3.432   0.915  0.00  0.00     0.034 A 
ATOM     10  C   UNL d   1      -2.029  -3.109   1.541  0.00  0.00     0.031 A 
ATOM     11  C   UNL d   1      -2.844  -4.088   2.117  0.00  0.00     0.020 A 
ATOM     12  C   UNL d   1      -2.464  -5.423   2.054  0.00  0.00     0.006 A 
ATOM     13  C   UNL d   1      -1.276  -5.779   1.420  0.00  0.00     0.020 A 
ATOM     14  I   UNL d   1      -3.678  -6.880   2.897  0.00  0.00    -0.045 I 
ATOM     15  C   UNL d   1      -0.462  -4.787   0.851  0.00  0.00     0.031 A 
ENDBRANCH   6   9
BRANCH   4  16
ATOM     16  C   UNL d   1      -2.362   1.563   0.675  0.00  0.00     0.198 C 
BRANCH  16  17
ATOM     17  O   UNL d   1      -2.130   1.254   2.051  0.00  0.00    -0.398 OA
ATOM     18  H   UNL d   1      -2.106   0.279   2.091  0.00  0.00     0.209 HD
ENDBRANCH  16  17
ENDBRANCH   4  16
BRANCH   4  19
ATOM     19  C   UNL d   1      -1.607   1.154  -1.704  0.00  0.00     0.198 C 
BRANCH  19  20
ATOM     20  O   UNL d   1      -2.881   0.624  -2.066  0.00  0.00    -0.398 OA
ATOM     21  H   UNL d   1      -2.889  -0.292  -1.723  0.00  0.00     0.209 HD
ENDBRANCH  19  20
ENDBRANCH   4  19
TORSDOF 5
