REMARK  4 active torsions:
REMARK  status: ('A' for Active; 'I' for Inactive)
REMARK    1  A    between atoms: C_2  and  C_1 
REMARK       I    between atoms: N_5  and  C_2 
REMARK    2  A    between atoms: C_8  and  N_5 
REMARK    3  A    between atoms: C_9  and  N_5 
REMARK    4  A    between atoms: C_10  and  C_8 
ROOT
ATOM      1  C   UNL d   1       3.808  -0.003  -0.078  0.00  0.00     0.268 C 
ATOM      2  N   UNL d   1       4.524  -1.217  -0.086  0.00  0.00    -0.288 N 
ATOM      3  O   UNL d   1       4.410   1.072  -0.028  0.00  0.00    -0.266 OA
ENDROOT
BRANCH   2   4
ATOM      4  C   UNL d   1       6.011  -1.277  -0.019  0.00  0.00     0.147 C 
ATOM      5  C   UNL d   1       6.795   0.003   0.298  0.00  0.00     0.040 C 
BRANCH   4   6
ATOM      6  C   UNL d   1       6.542  -1.859  -1.308  0.00  0.00     0.075 A 
ATOM      7  O   UNL d   1       6.226  -1.214  -2.471  0.00  0.00    -0.325 OA
ATOM      8  C   UNL d   1       6.799  -1.914  -3.480  0.00  0.00     0.142 A 
ATOM      9  C   UNL d   1       7.477  -3.006  -2.990  0.00  0.00     0.027 A 
ATOM     10  C   UNL d   1       7.310  -2.973  -1.585  0.00  0.00     0.037 A 
ENDBRANCH   4   6
ENDBRANCH   2   4
BRANCH   2  11
ATOM     11  C   UNL d   1       3.925  -2.496  -0.236  0.00  0.00     0.110 A 
ATOM     12  N   UNL d   1       4.303  -3.452   0.648  0.00  0.00    -0.352 N 
ATOM     13  C   UNL d   1       3.676  -4.646   0.594  0.00  0.00     0.089 A 
ATOM     14  HN  UNL d   1       5.037  -3.274   1.333  1.00  0.00     0.166 HD
ATOM     15  C   UNL d   1       2.719  -4.967  -0.349  0.00  0.00     0.017 A 
ATOM     16  C   UNL d   1       2.404  -4.009  -1.305  0.00  0.00     0.005 A 
ATOM     17  C   UNL d   1       3.014  -2.758  -1.255  0.00  0.00     0.049 A 
ENDBRANCH   2  11
BRANCH   1  18
ATOM     18  C   UNL d   1       2.341   0.023  -0.128  0.00  0.00     0.096 C 
ATOM     19  S   UNL d   1       1.644   1.305  -1.048  0.00  0.00    -0.082 SA
ATOM     20  C   UNL d   1       0.051   0.711  -0.856  0.00  0.00     0.017 A 
ATOM     21  C   UNL d   1      -1.127   1.271  -1.389  0.00  0.00     0.020 A 
ATOM     22  C   UNL d   1       0.033  -0.451  -0.087  0.00  0.00     0.004 A 
ATOM     23  C   UNL d   1      -2.332   0.587  -1.229  0.00  0.00     0.001 A 
ATOM     24  C   UNL d   1      -2.369  -0.621  -0.549  0.00  0.00     0.001 A 
ATOM     25  C   UNL d   1      -1.209  -1.130   0.045  0.00  0.00     0.014 A 
ATOM     26  C   UNL d   1       1.337  -0.709   0.481  0.00  0.00     0.068 C 
ATOM     27 CL   UNL d   1       1.521  -1.843   1.762  0.00  0.00    -0.082 Cl
ENDBRANCH   1  18
TORSDOF 4
