REMARK  2 active torsions:
REMARK  status: ('A' for Active; 'I' for Inactive)
REMARK    1  A    between atoms: C_2  and  C_1 
REMARK    2  A    between atoms: C_14  and  C_9 
ROOT
ATOM      1  N   UNL d   1       6.956   2.619   3.092  0.00  0.00    -0.197 NA
ATOM      2  C   UNL d   1       6.776   2.492   1.953  0.00  0.00     0.065 C 
ATOM      3  C   UNL d   1       6.577   2.346   0.505  0.00  0.00     0.188 C 
ENDROOT
BRANCH   3   4
ATOM      4  C   UNL d   1       5.610   1.240   0.237  0.00  0.00     0.064 A 
ATOM      5  N   UNL d   1       4.308   1.409   0.164  0.00  0.00    -0.352 N 
ATOM      6  C   UNL d   1       3.660   0.202  -0.025  0.00  0.00     0.057 A 
ATOM      7  HN  UNL d   1       3.838   2.312   0.238  1.00  0.00     0.166 HD
ATOM      8  C   UNL d   1       4.514  -0.879  -0.149  0.00  0.00     0.082 A 
ATOM      9  S   UNL d   1       6.148  -0.372  -0.009  0.00  0.00    -0.085 SA
BRANCH   6  10
ATOM     10  C   UNL d   1       2.151   0.108  -0.062  0.00  0.00     0.039 A 
ATOM     11  S   UNL d   1       1.339  -1.396  -0.159  0.00  0.00    -0.087 SA
ATOM     12  C   UNL d   1      -0.212  -0.678  -0.077  0.00  0.00     0.016 A 
ATOM     13  C   UNL d   1      -1.456  -1.341  -0.070  0.00  0.00     0.019 A 
ATOM     14  C   UNL d   1      -0.121   0.712  -0.015  0.00  0.00    -0.012 A 
ATOM     15  C   UNL d   1      -2.629  -0.585  -0.009  0.00  0.00     0.001 A 
ATOM     16  C   UNL d   1      -2.571   0.799   0.039  0.00  0.00     0.001 A 
ATOM     17  C   UNL d   1      -1.333   1.448   0.037  0.00  0.00     0.013 A 
ATOM     18  C   UNL d   1       1.260   1.172  -0.005  0.00  0.00    -0.031 A 
ATOM     19  C   UNL d   1       1.574   2.638   0.073  0.00  0.00     0.050 C 
ENDBRANCH   6  10
ENDBRANCH   3   4
TORSDOF 2
