REMARK  6 active torsions:
REMARK  status: ('A' for Active; 'I' for Inactive)
REMARK    1  A    between atoms: C_5  and  C_1 
REMARK    2  A    between atoms: S_10  and  C_4 
REMARK    3  A    between atoms: C_6  and  C_7 
REMARK    4  A    between atoms: O_19  and  C_6 
REMARK    5  A    between atoms: C_13  and  S_10 
REMARK    6  A    between atoms: C_11  and  C_13 
ROOT
ATOM      1  N   UNL d   1      -2.181  -3.283   1.312  0.00  0.00    -0.333 N 
ATOM      2  HN  UNL d   1      -3.119  -2.908   1.176  1.00  0.00     0.168 HD
ATOM      3  C   UNL d   1      -1.609  -3.307   2.527  0.00  0.00     0.144 A 
ATOM      4  C   UNL d   1      -1.461  -3.779   0.270  0.00  0.00     0.119 A 
ATOM      5  N   UNL d   1      -0.384  -3.797   2.773  0.00  0.00    -0.347 N 
ATOM      6  HN  UNL d   1       0.007  -3.805   3.715  1.00  0.00     0.167 HD
ATOM      7  C   UNL d   1      -0.187  -4.295   0.444  0.00  0.00     0.051 A 
ATOM      8  C   UNL d   1       0.305  -4.275   1.725  0.00  0.00     0.092 A 
ENDROOT
BRANCH   3   9
ATOM      9  S   UNL d   1      -2.568  -2.676   3.884  0.00  0.00    -0.089 SA
BRANCH   9  10
ATOM     10  C   UNL d   1      -1.392  -2.955   5.245  0.00  0.00     0.122 C 
BRANCH  10  11
ATOM     11  C   UNL d   1      -1.984  -2.608   6.596  0.00  0.00    -0.032 A 
ATOM     12  C   UNL d   1      -1.991  -1.307   7.146  0.00  0.00     0.046 A 
ATOM     13  C   UNL d   1      -2.574  -1.093   8.412  0.00  0.00     0.018 A 
ATOM     14  C   UNL d   1      -3.153  -2.143   9.125  0.00  0.00     0.001 A 
ATOM     15  C   UNL d   1      -3.158  -3.422   8.584  0.00  0.00     0.001 A 
ATOM     16  C   UNL d   1      -2.585  -3.651   7.333  0.00  0.00     0.009 A 
BRANCH  12  17
ATOM     17  C   UNL d   1      -1.358  -0.146   6.451  0.00  0.00     0.293 C 
ATOM     18  O   UNL d   1      -0.421  -0.224   5.676  0.00  0.00    -0.259 OA
BRANCH  17  19
ATOM     19  O   UNL d   1      -1.980   1.003   6.821  0.00  0.00    -0.323 OA
ATOM     20  C   UNL d   1      -1.444   2.192   6.237  0.00  0.00     0.213 C 
ENDBRANCH  17  19
ENDBRANCH  12  17
ENDBRANCH  10  11
ENDBRANCH   9  10
ENDBRANCH   3   9
BRANCH   4  21
ATOM     21  C   UNL d   1      -2.050  -3.779  -1.133  0.00  0.00     0.432 C 
ATOM     22  F   UNL d   1      -3.300  -3.250  -1.227  0.00  0.00    -0.165 F 
ATOM     23  F   UNL d   1      -2.135  -5.038  -1.655  0.00  0.00    -0.165 F 
ATOM     24  F   UNL d   1      -1.278  -3.076  -2.015  0.00  0.00    -0.165 F 
ENDBRANCH   4  21
TORSDOF 6
