REMARK  5 active torsions:
REMARK  status: ('A' for Active; 'I' for Inactive)
REMARK    1  A    between atoms: O_10  and  C_2 
REMARK    2  A    between atoms: C_19  and  C_3 
REMARK    3  A    between atoms: C_4  and  O_10 
REMARK    4  A    between atoms: C_13  and  C_5 
REMARK    5  A    between atoms: O_21  and  C_13 
ROOT
ATOM      1  C   UNL d   1       0.301   0.944   0.075  0.00  0.00     0.061 A 
ATOM      2  C   UNL d   1       1.674   1.210   0.225  0.00  0.00     0.165 A 
ATOM      3  C   UNL d   1      -0.907   1.754   0.013  0.00  0.00    -0.002 A 
ATOM      4  C   UNL d   1      -2.035   0.954  -0.084  0.00  0.00     0.065 A 
ATOM      5  C   UNL d   1      -0.006  -0.406  -0.032  0.00  0.00     0.090 A 
ATOM      6  S   UNL d   1      -1.675  -0.712  -0.129  0.00  0.00    -0.082 SA
ATOM      7  N   UNL d   1       2.579   0.204   0.175  0.00  0.00    -0.332 N 
ATOM      8  HN  UNL d   1       3.579   0.395   0.247  1.00  0.00     0.168 HD
ATOM      9  N   UNL d   1       0.859  -1.435  -0.060  0.00  0.00    -0.346 N 
ATOM     10  HN  UNL d   1       0.572  -2.411  -0.139  1.00  0.00     0.167 HD
ATOM     11  C   UNL d   1       2.129  -1.045   0.027  0.00  0.00     0.183 A 
ENDROOT
BRANCH   2  12
ATOM     12  O   UNL d   1       2.138   2.507   0.342  0.00  0.00    -0.269 OA
BRANCH  12  13
ATOM     13  C   UNL d   1       3.272   2.773   0.982  0.00  0.00     0.192 A 
ATOM     14  O   UNL d   1       3.824   3.967   0.635  0.00  0.00    -0.281 OA
ATOM     15  C   UNL d   1       4.979   4.114   1.361  0.00  0.00     0.153 A 
ATOM     16  C   UNL d   1       5.134   3.021   2.194  0.00  0.00     0.048 A 
ATOM     17  C   UNL d   1       4.036   2.161   1.953  0.00  0.00     0.067 A 
BRANCH  15  18
ATOM     18  C   UNL d   1       5.811   5.279   1.183  0.00  0.00     0.317 C 
ATOM     19  O   UNL d   1       6.847   5.505   1.800  0.00  0.00    -0.257 OA
BRANCH  18  20
ATOM     20  O   UNL d   1       5.293   6.099   0.222  0.00  0.00    -0.321 OA
ATOM     21  C   UNL d   1       6.068   7.271  -0.023  0.00  0.00     0.213 C 
ENDBRANCH  18  20
ENDBRANCH  15  18
ENDBRANCH  12  13
ENDBRANCH   2  12
BRANCH   3  22
ATOM     22  C   UNL d   1      -1.048   3.216   0.028  0.00  0.00    -0.024 A 
ATOM     23  C   UNL d   1      -0.159   4.029  -0.687  0.00  0.00     0.012 A 
ATOM     24  C   UNL d   1      -0.264   5.422  -0.643  0.00  0.00     0.001 A 
ATOM     25  C   UNL d   1      -1.294   6.022   0.075  0.00  0.00     0.000 A 
ATOM     26  C   UNL d   1      -2.218   5.230   0.751  0.00  0.00     0.001 A 
ATOM     27  C   UNL d   1      -2.089   3.837   0.738  0.00  0.00     0.012 A 
ENDBRANCH   3  22
TORSDOF 5
