REMARK  6 active torsions:
REMARK  status: ('A' for Active; 'I' for Inactive)
REMARK    1  A    between atoms: N_4  and  C_1 
REMARK    2  A    between atoms: N_6  and  C_1 
REMARK    3  A    between atoms: N_2  and  N_6 
REMARK    4  A    between atoms: C_14  and  N_4 
REMARK    5  A    between atoms: C_15  and  C_7 
REMARK    6  A    between atoms: C_11  and  C_10 
ROOT
ATOM      1  C   UNL d   1      -0.781  -1.070   0.602  0.00  0.00     0.191 C 
ATOM      2  S   UNL d   1      -2.235  -1.128   1.432  0.00  0.00    -0.039 SA
ENDROOT
BRANCH   1   3
ATOM      3  N   UNL d   1       0.462  -0.779   1.111  0.00  0.00    -0.332 N 
ATOM      4  H   UNL d   1       1.075  -0.318   0.452  0.00  0.00     0.168 HD
BRANCH   3   5
ATOM      5  C   UNL d   1       0.956  -1.031   2.406  0.00  0.00     0.034 A 
ATOM      6  C   UNL d   1       0.543  -2.146   3.133  0.00  0.00     0.030 A 
ATOM      7  C   UNL d   1       1.162  -2.476   4.338  0.00  0.00     0.010 A 
ATOM      8  C   UNL d   1       2.200  -1.689   4.854  0.00  0.00    -0.055 A 
ATOM      9  C   UNL d   1       2.578  -0.540   4.143  0.00  0.00     0.010 A 
ATOM     10  C   UNL d   1       1.978  -0.227   2.916  0.00  0.00     0.030 A 
BRANCH   8  11
ATOM     11  C   UNL d   1       2.963  -2.119   6.095  0.00  0.00     0.010 C 
ATOM     12  C   UNL d   1       2.056  -2.295   7.316  0.00  0.00     0.015 C 
ATOM     13  C   UNL d   1       3.750  -3.405   5.809  0.00  0.00     0.015 C 
ENDBRANCH   8  11
ENDBRANCH   3   5
ENDBRANCH   1   3
BRANCH   1  14
ATOM     14  N   UNL d   1      -0.817  -1.296  -0.754  0.00  0.00    -0.276 N 
ATOM     15  H   UNL d   1      -1.734  -1.536  -1.128  0.00  0.00     0.189 HD
BRANCH  14  16
ATOM     16  N   UNL d   1       0.303  -1.579  -1.491  0.00  0.00    -0.309 N 
ATOM     17  C   UNL d   1       0.036  -2.038  -2.676  0.00  0.00     0.120 C 
ATOM     18  HN  UNL d   1       1.253  -1.443  -1.143  1.00  0.00     0.186 HD
BRANCH  17  19
ATOM     19  C   UNL d   1       1.072  -2.464  -3.630  0.00  0.00    -0.004 A 
ATOM     20  C   UNL d   1       0.694  -2.808  -4.922  0.00  0.00     0.100 A 
ATOM     21  N   UNL d   1       1.566  -3.205  -5.880  0.00  0.00    -0.374 N 
ATOM     22  C   UNL d   1       2.868  -3.267  -5.525  0.00  0.00     0.087 A 
ATOM     23  HN  UNL d   1       1.255  -3.444  -6.821  1.00  0.00     0.164 HD
ATOM     24  C   UNL d   1       3.337  -2.960  -4.255  0.00  0.00     0.018 A 
ATOM     25  C   UNL d   1       2.419  -2.553  -3.288  0.00  0.00     0.015 A 
ENDBRANCH  17  19
ENDBRANCH  14  16
ENDBRANCH   1  14
TORSDOF 6
