REMARK  2 active torsions:
REMARK  status: ('A' for Active; 'I' for Inactive)
REMARK    1  A    between atoms: C_2  and  C_1 
REMARK    2  A    between atoms: C_4  and  C_2 
ROOT
ATOM      1  C   UNL d   1      -1.171  -1.112   0.037  0.00  0.00     0.032 A 
ATOM      2  C   UNL d   1       0.193  -0.665  -0.024  0.00  0.00    -0.011 A 
ATOM      3  C   UNL d   1      -2.225  -0.179   0.196  0.00  0.00    -0.047 A 
ATOM      4  C   UNL d   1       0.444   0.731   0.002  0.00  0.00    -0.025 A 
ATOM      5  C   UNL d   1      -1.930   1.192   0.166  0.00  0.00     0.009 A 
ATOM      6  C   UNL d   1      -0.618   1.637   0.070  0.00  0.00     0.013 A 
ATOM      7  C   UNL d   1       1.336  -1.506  -0.097  0.00  0.00     0.013 A 
ATOM      8  C   UNL d   1      -3.674  -0.537   0.411  0.00  0.00     0.049 C 
ATOM      9  C   UNL d   1       1.759   1.231  -0.028  0.00  0.00     0.012 A 
ATOM     10  C   UNL d   1       2.641  -0.998  -0.108  0.00  0.00     0.001 A 
ATOM     11  C   UNL d   1       2.851   0.371  -0.072  0.00  0.00     0.001 A 
ENDROOT
BRANCH   1  12
ATOM     12  C   UNL d   1      -1.460  -2.583   0.007  0.00  0.00     0.193 C 
ATOM     13  O   UNL d   1      -0.839  -3.336   0.756  0.00  0.00    -0.287 OA
BRANCH  12  14
ATOM     14  C   UNL d   1      -2.532  -3.164  -0.854  0.00  0.00     0.015 A 
ATOM     15  C   UNL d   1      -3.134  -4.357  -0.433  0.00  0.00     0.016 A 
ATOM     16  C   UNL d   1      -4.251  -4.862  -1.103  0.00  0.00     0.007 A 
ATOM     17  C   UNL d   1      -4.782  -4.181  -2.204  0.00  0.00    -0.062 A 
ATOM     18  C   UNL d   1      -4.140  -3.024  -2.663  0.00  0.00     0.007 A 
ATOM     19  C   UNL d   1      -6.020  -4.701  -2.874  0.00  0.00     0.048 C 
ATOM     20  C   UNL d   1      -3.010  -2.525  -2.003  0.00  0.00     0.016 A 
ENDBRANCH  12  14
ENDBRANCH   1  12
TORSDOF 2
