REMARK  4 active torsions:
REMARK  status: ('A' for Active; 'I' for Inactive)
REMARK    1  A    between atoms: C_4  and  C_1 
REMARK    2  A    between atoms: N_2  and  C_11 
REMARK    3  A    between atoms: C_6  and  C_5 
REMARK    4  A    between atoms: C_10  and  C_6 
ROOT
ATOM      1  C   UNL d   1      -1.312   4.618  -7.064  0.00  0.00     0.048 A 
ATOM      2  C   UNL d   1      -0.941   1.932  -6.226  0.00  0.00     0.032 A 
ATOM      3  C   UNL d   1      -1.210   3.579  -7.999  0.00  0.00     0.018 A 
ATOM      4  C   UNL d   1      -1.185   4.308  -5.706  0.00  0.00     0.018 A 
ATOM      5  C   UNL d   1      -1.002   2.255  -7.583  0.00  0.00     0.030 A 
ATOM      6  C   UNL d   1      -1.006   2.981  -5.301  0.00  0.00     0.030 A 
ENDROOT
BRANCH   2   7
ATOM      7  N   UNL d   1      -0.753   0.652  -5.690  0.00  0.00    -0.363 N 
ATOM      8  C   UNL d   1      -1.298  -0.447  -6.114  0.00  0.00    -0.010 C 
ATOM      9  C   UNL d   1      -2.184  -0.608  -7.324  0.00  0.00     0.064 C 
ATOM     10  HN  UNL d   1      -0.127   0.577  -4.888  1.00  0.00     0.165 HD
BRANCH   8  11
ATOM     11  C   UNL d   1      -1.060  -1.679  -5.264  0.00  0.00     0.130 C 
BRANCH  11  12
ATOM     12  C   UNL d   1      -0.391  -2.836  -5.956  0.00  0.00     0.128 C 
ATOM     13  O   UNL d   1      -0.062  -2.807  -7.142  0.00  0.00    -0.298 OA
ATOM     14  C   UNL d   1      -0.170  -4.076  -5.128  0.00  0.00     0.091 C 
ENDBRANCH  11  12
ENDBRANCH   8  11
ENDBRANCH   2   7
BRANCH   1  15
ATOM     15  C   UNL d   1      -1.533   6.048  -7.491  0.00  0.00     0.417 C 
ATOM     16  F   UNL d   1      -1.774   6.190  -8.824  0.00  0.00    -0.166 F 
ATOM     17  F   UNL d   1      -0.463   6.846  -7.218  0.00  0.00    -0.166 F 
ATOM     18  F   UNL d   1      -2.595   6.624  -6.859  0.00  0.00    -0.166 F 
ENDBRANCH   1  15
TORSDOF 4
