REMARK  6 active torsions:
REMARK  status: ('A' for Active; 'I' for Inactive)
REMARK    1  A    between atoms: C_9  and  N_6 
REMARK    2  A    between atoms: C_10  and  C_9 
REMARK    3  A    between atoms: O_13  and  C_10 
REMARK    4  A    between atoms: C_11  and  C_15 
REMARK    5  A    between atoms: C_12  and  C_11 
REMARK    6  A    between atoms: C_15  and  O_13 
ROOT
ATOM      1  C   UNL d   1      -0.677  -1.093  -0.533  0.00  0.00     0.709 A 
ATOM      2  N   UNL d   1      -0.016  -0.437   0.430  0.00  0.00    -0.115 N 
ATOM      3  HN  UNL d   1      -0.065  -0.541   1.443  1.00  0.00     0.207 HD
ATOM      4  N   UNL d   1      -0.403  -0.595  -1.787  0.00  0.00    -0.113 N 
ATOM      5  HN  UNL d   1      -0.800  -0.920  -2.668  1.00  0.00     0.203 HD
ATOM      6  N   UNL d   1       0.729   0.396  -0.316  0.00  0.00    -0.194 N 
ATOM      7  N   UNL d   1       0.473   0.388  -1.634  0.00  0.00     0.011 NA
ATOM      8  N   UNL d   1      -1.547  -2.099  -0.364  0.00  0.00    -0.215 N 
ATOM      9  C   UNL d   1      -1.929  -2.983  -1.450  0.00  0.00     0.141 C 
ATOM     10  C   UNL d   1      -1.897  -2.638   0.936  0.00  0.00     0.141 C 
ATOM     11  C   UNL d   1      -2.540  -3.992   0.627  0.00  0.00     0.022 C 
ATOM     12  C   UNL d   1      -3.001  -3.862  -0.819  0.00  0.00     0.022 C 
ENDROOT
BRANCH   6  13
ATOM     13  C   UNL d   1       1.605   1.376   0.275  0.00  0.00     0.278 C 
BRANCH  13  14
ATOM     14  C   UNL d   1       3.062   1.025   0.189  0.00  0.00     0.280 C 
ATOM     15  O   UNL d   1       3.932   1.822   0.535  0.00  0.00    -0.263 OA
BRANCH  14  16
ATOM     16  O   UNL d   1       3.328  -0.204  -0.322  0.00  0.00    -0.313 OA
BRANCH  16  17
ATOM     17  C   UNL d   1       4.700  -0.497  -0.613  0.00  0.00     0.258 C 
BRANCH  17  18
ATOM     18  C   UNL d   1       5.315  -1.638   0.214  0.00  0.00     0.158 C 
ATOM     19  O   UNL d   1       4.654  -2.232   1.069  0.00  0.00    -0.295 OA
BRANCH  18  20
ATOM     20  C   UNL d   1       6.798  -2.007  -0.069  0.00  0.00     0.012 C 
ATOM     21  C   UNL d   1       7.710  -0.836   0.321  0.00  0.00     0.022 C 
ATOM     22  C   UNL d   1       7.208  -3.238   0.760  0.00  0.00     0.022 C 
ATOM     23  C   UNL d   1       6.991  -2.344  -1.555  0.00  0.00     0.022 C 
ENDBRANCH  18  20
ENDBRANCH  17  18
ENDBRANCH  16  17
ENDBRANCH  14  16
ENDBRANCH  13  14
ENDBRANCH   6  13
TORSDOF 6
