REMARK  1 active torsions:
REMARK  status: ('A' for Active; 'I' for Inactive)
REMARK    1  A    between atoms: C_2  and  C_5 
ROOT
ATOM      1  C   UNL d   1      -3.107   1.268  -1.260  0.00  0.00    -0.022 A 
ATOM      2  C   UNL d   1      -4.367   1.654  -0.736  0.00  0.00    -0.045 A 
ATOM      3  C   UNL d   1      -2.460   2.060  -2.239  0.00  0.00    -0.045 A 
ATOM      4  C   UNL d   1      -4.943   2.885  -1.136  0.00  0.00    -0.049 A 
ATOM      5  C   UNL d   1      -3.027   3.303  -2.623  0.00  0.00    -0.049 A 
ATOM      6  C   UNL d   1      -4.258   3.723  -2.056  0.00  0.00    -0.049 A 
ATOM      7  C   UNL d   1      -1.167   1.600  -2.879  0.00  0.00     0.049 C 
ATOM      8  C   UNL d   1      -5.119   0.774   0.236  0.00  0.00     0.049 C 
ATOM      9  C   UNL d   1      -6.281   3.341  -0.590  0.00  0.00     0.049 C 
ATOM     10  C   UNL d   1      -2.335   4.194  -3.633  0.00  0.00     0.049 C 
ATOM     11  C   UNL d   1      -4.868   5.065  -2.411  0.00  0.00     0.049 C 
ENDROOT
BRANCH   1  12
ATOM     12  C   UNL d   1      -2.445   0.054  -0.741  0.00  0.00     0.036 C 
ATOM     13  C   UNL d   1      -2.580  -1.198  -1.219  0.00  0.00     0.115 C 
ATOM     14  C   UNL d   1      -1.934  -2.291  -0.476  0.00  0.00     0.302 C 
ATOM     15  C   UNL d   1      -3.381  -1.523  -2.402  0.00  0.00     0.302 C 
ATOM     16  O   UNL d   1      -2.500  -3.503  -0.662  0.00  0.00    -0.280 OA
ATOM     17  O   UNL d   1      -0.967  -2.131   0.263  0.00  0.00    -0.259 OA
ATOM     18  C   UNL d   1      -3.821  -3.554  -1.210  0.00  0.00     0.175 C 
ATOM     19  O   UNL d   1      -3.999  -2.715  -2.351  0.00  0.00    -0.280 OA
ATOM     20  C   UNL d   1      -4.864  -3.243  -0.132  0.00  0.00     0.080 C 
ATOM     21  C   UNL d   1      -4.047  -4.981  -1.711  0.00  0.00     0.080 C 
ATOM     22  O   UNL d   1      -3.474  -0.798  -3.387  0.00  0.00    -0.259 OA
ENDBRANCH   1  12
TORSDOF 1
