REMARK  3 active torsions:
REMARK  status: ('A' for Active; 'I' for Inactive)
REMARK    1  A    between atoms: N_7  and  C_5 
REMARK    2  A    between atoms: C_9  and  C_6 
REMARK    3  A    between atoms: C_8  and  N_7 
ROOT
ATOM      1  N   UNL d   1      -1.083  -0.618   0.040  0.00  0.00    -0.298 N 
ATOM      2  HN  UNL d   1      -2.011  -1.041   0.039  1.00  0.00     0.187 HD
ATOM      3  N   UNL d   1      -0.958   0.755   0.076  0.00  0.00    -0.285 N 
ATOM      4  HN  UNL d   1      -1.798   1.333   0.117  1.00  0.00     0.188 HD
ATOM      5  C   UNL d   1       0.253   1.347   0.060  0.00  0.00     0.120 A 
ATOM      6  C   UNL d   1       0.011  -1.405   0.005  0.00  0.00     0.058 A 
ATOM      7  C   UNL d   1       1.273  -0.829  -0.035  0.00  0.00     0.035 A 
ATOM      8  C   UNL d   1       1.393   0.562  -0.016  0.00  0.00     0.052 A 
ENDROOT
BRANCH   5   9
ATOM      9  N   UNL d   1       0.393   2.752   0.151  0.00  0.00    -0.341 N 
ATOM     10  H   UNL d   1       0.908   3.104  -0.645  0.00  0.00     0.167 HD
BRANCH   9  11
ATOM     11  C   UNL d   1      -0.615   3.635   0.598  0.00  0.00     0.034 A 
ATOM     12  C   UNL d   1      -1.450   3.298   1.675  0.00  0.00     0.036 A 
ATOM     13  C   UNL d   1      -2.443   4.172   2.135  0.00  0.00    -0.060 A 
ATOM     14  C   UNL d   1      -3.339   3.777   3.271  0.00  0.00     0.048 C 
ATOM     15  C   UNL d   1      -2.595   5.412   1.509  0.00  0.00     0.007 A 
ATOM     16  C   UNL d   1      -1.756   5.774   0.455  0.00  0.00     0.003 A 
ATOM     17  C   UNL d   1      -0.763   4.896   0.012  0.00  0.00     0.029 A 
ENDBRANCH   9  11
ENDBRANCH   5   9
BRANCH   6  18
ATOM     18  C   UNL d   1      -0.237  -2.856   0.037  0.00  0.00    -0.008 A 
ATOM     19  C   UNL d   1      -1.380  -3.404  -0.577  0.00  0.00     0.014 A 
ATOM     20  C   UNL d   1      -1.645  -4.778  -0.532  0.00  0.00     0.001 A 
ATOM     21  C   UNL d   1      -0.771  -5.632   0.134  0.00  0.00     0.000 A 
ATOM     22  C   UNL d   1       0.363  -5.116   0.754  0.00  0.00     0.001 A 
ATOM     23  C   UNL d   1       0.627  -3.743   0.707  0.00  0.00     0.014 A 
ENDBRANCH   6  18
TORSDOF 3
