REMARK  9 active torsions:
REMARK  status: ('A' for Active; 'I' for Inactive)
REMARK    1  A    between atoms: C_15  and  N_1 
REMARK    2  A    between atoms: C_16  and  C_2 
REMARK    3  A    between atoms: N_3  and  C_16 
REMARK    4  A    between atoms: C_19  and  C_6 
REMARK    5  A    between atoms: S_23  and  C_9 
REMARK    6  A    between atoms: C_17  and  C_20 
REMARK    7  A    between atoms: C_18  and  C_21 
REMARK    8  A    between atoms: C_31  and  S_23 
REMARK    9  A    between atoms: C_28  and  C_31 
ROOT
ATOM      1  N   UNL d   1      -0.364  -1.313   0.064  0.00  0.00    -0.277 N 
ATOM      2  C   UNL d   1       0.926  -0.780  -0.064  0.00  0.00     0.126 A 
ATOM      3  C   UNL d   1      -1.189  -0.200  -0.092  0.00  0.00     0.168 A 
ATOM      4  N   UNL d   1       0.844   0.524  -0.259  0.00  0.00    -0.285 N 
ATOM      5  HN  UNL d   1       1.634   1.159  -0.372  1.00  0.00     0.188 HD
ATOM      6  N   UNL d   1      -0.467   0.880  -0.283  0.00  0.00    -0.278 N 
ATOM      7  HN  UNL d   1      -0.828   1.823  -0.426  1.00  0.00     0.189 HD
ENDROOT
BRANCH   2   8
ATOM      8  C   UNL d   1       2.236  -1.497  -0.066  0.00  0.00     0.245 C 
BRANCH   8   9
ATOM      9  N   UNL d   1       2.371  -2.538  -1.070  0.00  0.00    -0.209 N 
ATOM     10  N   UNL d   1       1.458  -2.788  -2.024  0.00  0.00    -0.268 N 
ATOM     11  C   UNL d   1       1.986  -3.884  -2.595  0.00  0.00     0.144 A 
ATOM     12  HN  UNL d   1       0.601  -2.284  -2.252  1.00  0.00     0.190 HD
ATOM     13  N   UNL d   1       3.170  -4.260  -2.011  0.00  0.00    -0.266 N 
ATOM     14  N   UNL d   1       3.409  -3.394  -1.035  0.00  0.00    -0.002 NA
ATOM     15  HN  UNL d   1       3.754  -5.053  -2.277  1.00  0.00     0.186 HD
BRANCH  11  16
ATOM     16  C   UNL d   1       1.332  -4.625  -3.663  0.00  0.00     0.012 A 
ATOM     17  C   UNL d   1       0.133  -4.141  -4.206  0.00  0.00     0.031 A 
ATOM     18  C   UNL d   1      -0.564  -4.850  -5.194  0.00  0.00     0.049 A 
ATOM     19  C   UNL d   1      -0.031  -6.065  -5.649  0.00  0.00     0.032 A 
ATOM     20  C   UNL d   1       1.177  -6.569  -5.133  0.00  0.00     0.049 A 
ATOM     21  C   UNL d   1       1.851  -5.838  -4.138  0.00  0.00     0.031 A 
BRANCH  18  22
ATOM     22  C   UNL d   1      -1.869  -4.327  -5.742  0.00  0.00     0.417 C 
ATOM     23  F   UNL d   1      -2.235  -3.125  -5.217  0.00  0.00    -0.166 F 
ATOM     24  F   UNL d   1      -1.838  -4.156  -7.091  0.00  0.00    -0.166 F 
ATOM     25  F   UNL d   1      -2.905  -5.173  -5.491  0.00  0.00    -0.166 F 
ENDBRANCH  18  22
BRANCH  20  26
ATOM     26  C   UNL d   1       1.708  -7.893  -5.634  0.00  0.00     0.417 C 
ATOM     27  F   UNL d   1       2.922  -8.227  -5.120  0.00  0.00    -0.166 F 
ATOM     28  F   UNL d   1       0.874  -8.927  -5.332  0.00  0.00    -0.166 F 
ATOM     29  F   UNL d   1       1.853  -7.915  -6.987  0.00  0.00    -0.166 F 
ENDBRANCH  20  26
ENDBRANCH  11  16
ENDBRANCH   8   9
ENDBRANCH   2   8
BRANCH   1  30
ATOM     30  C   UNL d   1      -0.744  -2.670   0.308  0.00  0.00     0.044 A 
ATOM     31  C   UNL d   1       0.024  -3.493   1.143  0.00  0.00     0.055 A 
ATOM     32  C   UNL d   1      -0.347  -4.827   1.369  0.00  0.00     0.058 A 
ATOM     33 CL   UNL d   1       0.668  -5.772   2.401  0.00  0.00    -0.082 Cl
ATOM     34  C   UNL d   1      -1.502  -5.346   0.780  0.00  0.00     0.055 A 
ATOM     35  C   UNL d   1      -2.273  -4.532  -0.049  0.00  0.00     0.028 A 
ATOM     36 CL   UNL d   1      -2.031  -6.968   1.038  0.00  0.00    -0.083 Cl
ATOM     37  C   UNL d   1      -1.891  -3.207  -0.294  0.00  0.00     0.032 A 
ENDBRANCH   1  30
BRANCH   3  38
ATOM     38  S   UNL d   1      -2.912  -0.154   0.156  0.00  0.00    -0.087 SA
BRANCH  38  39
ATOM     39  C   UNL d   1      -3.268   1.583  -0.256  0.00  0.00     0.122 C 
BRANCH  39  40
ATOM     40  C   UNL d   1      -4.750   1.887  -0.229  0.00  0.00    -0.027 A 
ATOM     41  C   UNL d   1      -5.575   1.748  -1.361  0.00  0.00     0.041 A 
ATOM     42 CL   UNL d   1      -4.965   1.183  -2.875  0.00  0.00    -0.084 Cl
ATOM     43  C   UNL d   1      -6.935   2.074  -1.293  0.00  0.00     0.024 A 
ATOM     44  C   UNL d   1      -7.492   2.526  -0.101  0.00  0.00     0.002 A 
ATOM     45  C   UNL d   1      -6.693   2.649   1.031  0.00  0.00     0.001 A 
ATOM     46  C   UNL d   1      -5.336   2.329   0.971  0.00  0.00     0.009 A 
ENDBRANCH  39  40
ENDBRANCH  38  39
ENDBRANCH   3  38
TORSDOF 9
