REMARK  5 active torsions:
REMARK  status: ('A' for Active; 'I' for Inactive)
REMARK    1  A    between atoms: C_8  and  N_1 
REMARK    2  A    between atoms: S_7  and  C_2 
REMARK    3  A    between atoms: C_15  and  S_7 
REMARK    4  A    between atoms: C_12  and  C_15 
REMARK    5  A    between atoms: O_23  and  C_18 
ROOT
ATOM      1  N   UNL d   1      -0.125  -1.363  -0.057  0.00  0.00    -0.219 N 
ATOM      2  C   UNL d   1       1.082  -0.696   0.103  0.00  0.00     0.177 C 
ATOM      3  N   UNL d   1       0.875   0.599  -0.004  0.00  0.00    -0.264 N 
ATOM      4  HN  UNL d   1       1.563   1.341   0.118  1.00  0.00     0.186 HD
ATOM      5  N   UNL d   1      -0.447   0.749  -0.309  0.00  0.00    -0.006 NA
ATOM      6  N   UNL d   1      -1.049  -0.425  -0.410  0.00  0.00     0.001 NA
ENDROOT
BRANCH   2   7
ATOM      7  S   UNL d   1       2.659  -1.420   0.213  0.00  0.00    -0.087 SA
BRANCH   7   8
ATOM      8  C   UNL d   1       3.690   0.075   0.298  0.00  0.00     0.121 C 
BRANCH   8   9
ATOM      9  C   UNL d   1       5.164  -0.241   0.351  0.00  0.00    -0.043 A 
ATOM     10  C   UNL d   1       5.940  -0.246  -0.819  0.00  0.00     0.050 A 
ATOM     11  C   UNL d   1       7.310  -0.491  -0.750  0.00  0.00     0.119 A 
ATOM     12  F   UNL d   1       8.038  -0.469  -1.875  0.00  0.00    -0.206 F 
ATOM     13  C   UNL d   1       7.937  -0.743   0.462  0.00  0.00     0.084 A 
ATOM     14  C   UNL d   1       7.167  -0.761   1.616  0.00  0.00     0.119 A 
ATOM     15  C   UNL d   1       5.795  -0.517   1.574  0.00  0.00     0.050 A 
ATOM     16  F   UNL d   1       7.754  -1.007   2.796  0.00  0.00    -0.206 F 
ENDBRANCH   8   9
ENDBRANCH   7   8
ENDBRANCH   2   7
BRANCH   1  17
ATOM     17  C   UNL d   1      -0.526  -2.713   0.130  0.00  0.00     0.057 A 
ATOM     18  C   UNL d   1       0.192  -3.589   0.954  0.00  0.00     0.034 A 
ATOM     19  C   UNL d   1      -0.288  -4.883   1.181  0.00  0.00     0.039 A 
ATOM     20  C   UNL d   1      -1.470  -5.304   0.584  0.00  0.00     0.065 A 
ATOM     21  C   UNL d   1      -2.186  -4.455  -0.250  0.00  0.00     0.039 A 
ATOM     22  C   UNL d   1      -1.721  -3.156  -0.468  0.00  0.00     0.034 A 
BRANCH  20  23
ATOM     23  O   UNL d   1      -1.904  -6.566   0.859  0.00  0.00    -0.361 OA
ATOM     24  H   UNL d   1      -2.770  -6.697   0.439  0.00  0.00     0.217 HD
ENDBRANCH  20  23
ENDBRANCH   1  17
TORSDOF 5
