REMARK  8 active torsions:
REMARK  status: ('A' for Active; 'I' for Inactive)
REMARK    1  A    between atoms: N_2  and  C_1 
REMARK    2  A    between atoms: C_3  and  C_1 
REMARK    3  A    between atoms: N_4  and  C_1 
REMARK    4  A    between atoms: C_6  and  C_1 
REMARK       I    between atoms: C_5  and  N_2 
REMARK    5  A    between atoms: C_7  and  N_4 
REMARK    6  A    between atoms: C_8  and  C_5 
REMARK    7  A    between atoms: O_18  and  C_6 
REMARK    8  A    between atoms: C_26  and  O_18 
ROOT
ATOM      1  C   UNL d   1       1.109  -0.094  -0.021  0.00  0.00     0.281 C 
ENDROOT
BRANCH   1   2
ATOM      2  N   UNL d   1       0.803   0.991   0.928  0.00  0.00    -0.319 N 
ATOM      3  C   UNL d   1       1.266   0.999   2.221  0.00  0.00     0.253 C 
ATOM      4  O   UNL d   1       2.099   0.191   2.620  0.00  0.00    -0.268 OA
ATOM      5  H   UNL d   1      -0.146   1.311   0.788  0.00  0.00     0.165 HD
BRANCH   3   6
ATOM      6  C   UNL d   1       0.699   2.039   3.143  0.00  0.00     0.032 A 
ATOM      7  C   UNL d   1       1.252   2.155   4.429  0.00  0.00     0.023 A 
ATOM      8  C   UNL d   1       0.768   3.107   5.340  0.00  0.00    -0.061 A 
ATOM      9  C   UNL d   1       1.361   3.243   6.712  0.00  0.00     0.048 C 
ATOM     10  C   UNL d   1      -0.287   3.942   4.957  0.00  0.00     0.007 A 
ATOM     11  C   UNL d   1      -0.838   3.841   3.682  0.00  0.00     0.002 A 
ATOM     12  C   UNL d   1      -0.345   2.900   2.775  0.00  0.00     0.017 A 
ENDBRANCH   3   6
ENDBRANCH   1   2
BRANCH   1  13
ATOM     13  C   UNL d   1       0.635   0.273  -1.478  0.00  0.00     0.436 C 
ATOM     14  F   UNL d   1      -0.340   1.229  -1.448  0.00  0.00    -0.166 F 
ATOM     15  F   UNL d   1       1.625   0.808  -2.242  0.00  0.00    -0.166 F 
ATOM     16  F   UNL d   1       0.135  -0.777  -2.172  0.00  0.00    -0.166 F 
ENDBRANCH   1  13
BRANCH   1  17
ATOM     17  N   UNL d   1       0.505  -1.331   0.529  0.00  0.00    -0.236 NA
ATOM     18  H   UNL d   1       0.978  -1.616   1.385  0.00  0.00     0.132 HD
BRANCH  17  19
ATOM     19  C   UNL d   1      -0.873  -1.435   0.642  0.00  0.00     0.083 A 
ATOM     20  N   UNL d   1      -1.649  -0.358   0.412  0.00  0.00    -0.357 N 
ATOM     21  C   UNL d   1      -2.988  -0.527   0.506  0.00  0.00     0.090 A 
ATOM     22  HN  UNL d   1      -1.243   0.548   0.177  1.00  0.00     0.166 HD
ATOM     23  C   UNL d   1      -3.603  -1.731   0.806  0.00  0.00     0.024 A 
ATOM     24  C   UNL d   1      -2.797  -2.845   1.024  0.00  0.00    -0.058 A 
ATOM     25  C   UNL d   1      -1.412  -2.681   0.954  0.00  0.00     0.049 A 
ATOM     26  C   UNL d   1      -3.404  -4.182   1.318  0.00  0.00     0.048 C 
ENDBRANCH  17  19
ENDBRANCH   1  17
BRANCH   1  27
ATOM     27  C   UNL d   1       2.624  -0.350  -0.252  0.00  0.00     0.312 C 
ATOM     28  O   UNL d   1       3.088  -1.405  -0.675  0.00  0.00    -0.260 OA
BRANCH  27  29
ATOM     29  O   UNL d   1       3.382   0.758   0.017  0.00  0.00    -0.319 OA
BRANCH  29  30
ATOM     30  C   UNL d   1       4.802   0.560  -0.025  0.00  0.00     0.174 C 
ATOM     31  C   UNL d   1       5.287   0.086   1.332  0.00  0.00     0.034 C 
ENDBRANCH  29  30
ENDBRANCH  27  29
ENDBRANCH   1  27
TORSDOF 8
