REMARK  1 active torsions:
REMARK  status: ('A' for Active; 'I' for Inactive)
REMARK    1  A    between atoms: N_2  and  C_3 
ROOT
ATOM      1  C   UNL d   1       0.244   0.478  -0.017  0.00  0.00     0.026 A 
ATOM      2  C   UNL d   1       0.287   1.913  -0.026  0.00  0.00     0.115 A 
ATOM      3  C   UNL d   1       1.499  -0.084  -0.018  0.00  0.00    -0.009 A 
ATOM      4  C   UNL d   1       1.495   2.659  -0.005  0.00  0.00     0.037 A 
ATOM      5  C   UNL d   1      -0.823  -0.486   0.003  0.00  0.00     0.024 A 
ATOM      6  C   UNL d   1       2.691   0.627   0.007  0.00  0.00    -0.046 A 
ATOM      7  C   UNL d   1       1.757  -1.446  -0.028  0.00  0.00    -0.046 A 
ATOM      8  C   UNL d   1       2.727   2.010   0.018  0.00  0.00     0.010 A 
ATOM      9  C   UNL d   1      -0.564  -1.876  -0.011  0.00  0.00     0.020 A 
ATOM     10  C   UNL d   1       3.861  -0.298   0.034  0.00  0.00     0.044 A 
ATOM     11  C   UNL d   1       3.223  -1.712  -0.030  0.00  0.00     0.044 A 
ATOM     12  C   UNL d   1       0.738  -2.382  -0.031  0.00  0.00     0.009 A 
ATOM     13 BR   UNL d   1      -2.663  -0.019   0.127  0.00  0.00    -0.050 Br
ENDROOT
BRANCH   2  14
ATOM     14  N   UNL d   1      -0.917   2.710  -0.091  0.00  0.00    -0.115 N 
ATOM     15  O   UNL d   1      -1.536   2.703  -1.166  0.00  0.00    -0.532 OA
ATOM     16  O   UNL d   1      -1.184   3.408   0.894  0.00  0.00    -0.532 OA
ENDBRANCH   2  14
TORSDOF 1
