REMARK  7 active torsions:
REMARK  status: ('A' for Active; 'I' for Inactive)
REMARK    1  A    between atoms: N_2  and  C_1 
REMARK    2  A    between atoms: N_4  and  C_1 
REMARK    3  A    between atoms: C_9  and  N_2 
REMARK    4  A    between atoms: C_10  and  N_4 
REMARK    5  A    between atoms: O_7  and  C_11 
REMARK    6  A    between atoms: C_12  and  O_7 
REMARK    7  A    between atoms: C_8  and  C_10 
ROOT
ATOM      1  C   UNL d   1       0.966   0.860  -2.337  0.00  0.00     0.034 C 
ATOM      2  C   UNL d   1       2.381   1.796  -4.548  0.00  0.00     0.076 C 
ATOM      3  C   UNL d   1       1.784  -0.007  -3.065  0.00  0.00     0.032 C 
ATOM      4  C   UNL d   1       0.744   2.159  -2.801  0.00  0.00     0.032 C 
ATOM      5  C   UNL d   1       1.474   2.633  -3.897  0.00  0.00     0.039 C 
ATOM      6  C   UNL d   1       2.468   0.451  -4.188  0.00  0.00     0.039 C 
ENDROOT
BRANCH   1   7
ATOM      7  N   UNL d   1       0.348   0.422  -1.146  0.00  0.00    -0.333 N 
ATOM      8  H   UNL d   1      -0.440   0.970  -0.820  0.00  0.00     0.168 HD
BRANCH   7   9
ATOM      9  C   UNL d   1       1.008  -0.219  -0.119  0.00  0.00     0.172 C 
ATOM     10  S   UNL d   1       2.644  -0.186   0.223  0.00  0.00    -0.041 SA
BRANCH   9  11
ATOM     11  N   UNL d   1       0.207  -0.914   0.743  0.00  0.00    -0.363 N 
ATOM     12  H   UNL d   1       0.729  -1.350   1.494  0.00  0.00     0.162 HD
BRANCH  11  13
ATOM     13  C   UNL d   1      -1.029  -1.575   0.370  0.00  0.00     0.162 C 
BRANCH  13  14
ATOM     14  C   UNL d   1      -2.266  -0.888   0.866  0.00  0.00    -0.025 A 
ATOM     15  C   UNL d   1      -3.462  -1.045   0.168  0.00  0.00     0.096 A 
ATOM     16  N   UNL d   1      -4.651  -0.543   0.566  0.00  0.00    -0.375 N 
ATOM     17  C   UNL d   1      -4.660   0.144   1.727  0.00  0.00     0.087 A 
ATOM     18  HN  UNL d   1      -5.499  -0.676   0.015  1.00  0.00     0.164 HD
ATOM     19  C   UNL d   1      -3.533   0.355   2.502  0.00  0.00     0.018 A 
ATOM     20  C   UNL d   1      -2.319  -0.173   2.065  0.00  0.00     0.011 A 
ENDBRANCH  13  14
ENDBRANCH  11  13
ENDBRANCH   9  11
ENDBRANCH   7   9
ENDBRANCH   1   7
BRANCH   2  21
ATOM     21  O   UNL d   1       3.156   2.349  -5.543  0.00  0.00    -0.311 OA
BRANCH  21  22
ATOM     22  C   UNL d   1       4.493   2.002  -5.595  0.00  0.00     0.076 A 
ATOM     23  C   UNL d   1       5.084   2.015  -6.861  0.00  0.00     0.039 A 
ATOM     24  C   UNL d   1       6.422   1.640  -7.014  0.00  0.00     0.026 A 
ATOM     25  C   UNL d   1       7.167   1.254  -5.900  0.00  0.00     0.034 A 
ATOM     26  C   UNL d   1       6.597   1.277  -4.629  0.00  0.00     0.026 A 
ATOM     27 CL   UNL d   1       8.799   0.748  -6.094  0.00  0.00    -0.084 Cl
ATOM     28  C   UNL d   1       5.268   1.676  -4.473  0.00  0.00     0.039 A 
ENDBRANCH  21  22
ENDBRANCH   2  21
TORSDOF 7
