REMARK  5 active torsions:
REMARK  status: ('A' for Active; 'I' for Inactive)
REMARK    1  A    between atoms: C_7  and  C_4 
REMARK    2  A    between atoms: C_18  and  C_10 
REMARK    3  A    between atoms: N_11  and  C_22 
REMARK    4  A    between atoms: C_24  and  C_12 
REMARK    5  A    between atoms: C_13  and  C_19 
ROOT
ATOM      1  N   UNL d   1       0.334   0.618   0.036  0.00  0.00    -0.239 N 
ATOM      2  N   UNL d   1       1.639   0.974   0.113  0.00  0.00    -0.289 N 
ATOM      3  HN  UNL d   1       2.021   1.910   0.247  1.00  0.00     0.188 HD
ATOM      4  C   UNL d   1       2.319  -0.171  -0.027  0.00  0.00     0.086 A 
ATOM      5  C   UNL d   1       0.190  -0.773  -0.054  0.00  0.00     0.129 A 
ATOM      6  C   UNL d   1       1.464  -1.282  -0.155  0.00  0.00     0.084 A 
ATOM      7  C   UNL d   1      -0.795   1.454   0.022  0.00  0.00     0.070 A 
ATOM      8  N   UNL d   1      -1.035  -1.381  -0.062  0.00  0.00    -0.351 N 
ATOM      9  HN  UNL d   1      -1.136  -2.395  -0.087  1.00  0.00     0.166 HD
ATOM     10  C   UNL d   1      -2.021   0.902  -0.026  0.00  0.00     0.049 A 
ATOM     11  C   UNL d   1      -2.060  -0.585  -0.037  0.00  0.00     0.092 A 
ENDROOT
BRANCH   4  12
ATOM     12  C   UNL d   1       3.824  -0.221  -0.044  0.00  0.00     0.103 A 
ATOM     13  N   UNL d   1       4.499  -1.329  -0.293  0.00  0.00    -0.348 N 
ATOM     14  C   UNL d   1       5.859  -1.055  -0.311  0.00  0.00     0.050 A 
ATOM     15  HN  UNL d   1       4.083  -2.247  -0.448  1.00  0.00     0.166 HD
ATOM     16  C   UNL d   1       6.196   0.238   0.039  0.00  0.00     0.082 A 
ATOM     17  S   UNL d   1       4.784   1.178   0.247  0.00  0.00    -0.080 SA
BRANCH  14  18
ATOM     18  C   UNL d   1       6.836  -2.058  -0.720  0.00  0.00    -0.009 A 
ATOM     19  C   UNL d   1       8.050  -1.673  -1.315  0.00  0.00     0.016 A 
ATOM     20  C   UNL d   1       8.952  -2.628  -1.790  0.00  0.00     0.037 A 
ATOM     21  C   UNL d   1       8.643  -3.983  -1.668  0.00  0.00     0.102 A 
ATOM     22  C   UNL d   1       7.447  -4.391  -1.064  0.00  0.00     0.037 A 
ATOM     23  C   UNL d   1       6.547  -3.425  -0.593  0.00  0.00     0.016 A 
BRANCH  21  24
ATOM     24  N   UNL d   1       9.580  -4.987  -2.194  0.00  0.00    -0.116 N 
ATOM     25  O   UNL d   1      10.614  -4.576  -2.738  0.00  0.00    -0.532 OA
ATOM     26  O   UNL d   1       9.278  -6.179  -2.063  0.00  0.00    -0.532 OA
ENDBRANCH  21  24
ENDBRANCH  14  18
ENDBRANCH   4  12
BRANCH   7  27
ATOM     27  C   UNL d   1      -0.671   2.920   0.012  0.00  0.00    -0.006 A 
ATOM     28  C   UNL d   1      -0.550   3.606  -1.206  0.00  0.00     0.030 A 
ATOM     29  C   UNL d   1      -0.484   5.009  -1.239  0.00  0.00     0.048 A 
ATOM     30  C   UNL d   1      -0.529   5.718  -0.029  0.00  0.00     0.016 A 
ATOM     31  C   UNL d   1      -0.638   5.040   1.186  0.00  0.00     0.002 A 
ATOM     32  C   UNL d   1      -0.711   3.646   1.207  0.00  0.00     0.014 A 
BRANCH  29  33
ATOM     33  C   UNL d   1      -0.387   5.754  -2.548  0.00  0.00     0.417 C 
ATOM     34  F   UNL d   1      -0.371   4.939  -3.639  0.00  0.00    -0.166 F 
ATOM     35  F   UNL d   1      -1.437   6.602  -2.737  0.00  0.00    -0.166 F 
ATOM     36  F   UNL d   1       0.733   6.522  -2.637  0.00  0.00    -0.166 F 
ENDBRANCH  29  33
ENDBRANCH   7  27
TORSDOF 5
