REMARK  4 active torsions:
REMARK  status: ('A' for Active; 'I' for Inactive)
REMARK    1  A    between atoms: N_8  and  C_1 
REMARK    2  A    between atoms: C_6  and  O_9 
REMARK    3  A    between atoms: C_11  and  N_8 
REMARK    4  A    between atoms: O_9  and  C_15 
ROOT
ATOM      1  N   UNL d   1      -0.385  -3.084  -0.132  0.00  0.00    -0.355 N 
ATOM      2  H   UNL d   1       0.483  -3.371   0.309  0.00  0.00     0.166 HD
ENDROOT
BRANCH   1   3
ATOM      3  C   UNL d   1      -0.605  -1.713  -0.105  0.00  0.00     0.051 A 
ATOM      4  C   UNL d   1      -1.764  -1.120   0.221  0.00  0.00     0.113 A 
ATOM      5  C   UNL d   1      -1.966   0.331   0.274  0.00  0.00     0.290 A 
ATOM      6  O   UNL d   1      -3.059   0.799   0.573  0.00  0.00    -0.260 OA
ATOM      7  O   UNL d   1      -0.879   1.129  -0.019  0.00  0.00    -0.275 OA
ATOM      8  C   UNL d   1       0.356   0.558  -0.364  0.00  0.00     0.091 A 
ATOM      9  C   UNL d   1       0.539  -0.826  -0.412  0.00  0.00     0.025 A 
ATOM     10  C   UNL d   1       1.381   1.458  -0.666  0.00  0.00     0.038 A 
ATOM     11  C   UNL d   1       1.803  -1.296  -0.797  0.00  0.00     0.016 A 
ATOM     12  C   UNL d   1       2.842  -0.405  -1.097  0.00  0.00     0.001 A 
ATOM     13  C   UNL d   1       2.631   0.968  -1.032  0.00  0.00     0.003 A 
ENDBRANCH   1   3
BRANCH   1  14
ATOM     14  C   UNL d   1      -1.349  -4.104  -0.241  0.00  0.00     0.032 A 
ATOM     15  C   UNL d   1      -2.463  -3.988  -1.082  0.00  0.00     0.032 A 
ATOM     16  C   UNL d   1      -3.460  -4.969  -1.110  0.00  0.00     0.039 A 
ATOM     17  C   UNL d   1      -3.364  -6.082  -0.278  0.00  0.00     0.078 A 
ATOM     18  C   UNL d   1      -2.229  -6.238   0.519  0.00  0.00     0.039 A 
ATOM     19  C   UNL d   1      -1.232  -5.257   0.542  0.00  0.00     0.032 A 
BRANCH  17  20
ATOM     20  O   UNL d   1      -4.292  -7.076  -0.159  0.00  0.00    -0.255 OA
BRANCH  20  21
ATOM     21  C   UNL d   1      -5.619  -6.767  -0.555  0.00  0.00     0.530 C 
ATOM     22  F   UNL d   1      -6.018  -5.564  -0.087  0.00  0.00    -0.144 F 
ATOM     23  F   UNL d   1      -5.730  -6.785  -1.900  0.00  0.00    -0.144 F 
ATOM     24  F   UNL d   1      -6.450  -7.705  -0.049  0.00  0.00    -0.144 F 
ENDBRANCH  20  21
ENDBRANCH  17  20
ENDBRANCH   1  14
TORSDOF 4
