REMARK  3 active torsions:
REMARK  status: ('A' for Active; 'I' for Inactive)
REMARK       I    between atoms: N_2  and  C_1 
REMARK       I    between atoms: N_4  and  C_1 
REMARK    1  A    between atoms: C_3  and  N_2 
REMARK    2  A    between atoms: C_7  and  N_6 
REMARK    3  A    between atoms: O_26  and  C_15 
ROOT
ATOM      1  C   UNL d   1       0.913  -0.603   0.774  0.00  0.00     0.323 C 
ATOM      2  N   UNL d   1       0.526  -0.668  -0.545  0.00  0.00    -0.305 N 
ATOM      3  N   UNL d   1       0.404  -1.593   1.606  0.00  0.00    -0.331 N 
ATOM      4  N   UNL d   1      -0.090  -3.863   3.366  0.00  0.00    -0.377 N 
ATOM      5  O   UNL d   1       1.641   0.288   1.212  0.00  0.00    -0.247 OA
ATOM      6  C   UNL d   1       0.713  -1.498   3.036  0.00  0.00     0.147 C 
ATOM      7  C   UNL d   1      -0.633  -2.573   1.257  0.00  0.00     0.147 C 
ATOM      8  C   UNL d   1       0.942  -2.865   3.699  0.00  0.00     0.143 C 
ATOM      9  C   UNL d   1      -0.428  -3.948   1.929  0.00  0.00     0.143 C 
ATOM     10  H   UNL d   1      -0.465  -0.819  -0.678  0.00  0.00     0.171 HD
ENDROOT
BRANCH   2  11
ATOM     11  C   UNL d   1       1.101   0.204  -1.523  0.00  0.00     0.091 A 
ATOM     12  C   UNL d   1       2.482   0.380  -1.705  0.00  0.00     0.063 A 
ATOM     13 CL   UNL d   1       3.669  -0.611  -0.921  0.00  0.00    -0.082 Cl
ATOM     14  C   UNL d   1       2.959   1.300  -2.651  0.00  0.00     0.026 A 
ATOM     15  C   UNL d   1       2.071   2.031  -3.440  0.00  0.00     0.005 A 
ATOM     16  C   UNL d   1       0.699   1.823  -3.310  0.00  0.00     0.039 A 
ATOM     17  C   UNL d   1       0.224   0.917  -2.355  0.00  0.00     0.096 A 
BRANCH  17  18
ATOM     18  O   UNL d   1      -1.130   0.706  -2.270  0.00  0.00    -0.354 OA
ATOM     19  C   UNL d   1      -1.729   1.589  -1.320  0.00  0.00     0.210 C 
ENDBRANCH  17  18
ENDBRANCH   2  11
BRANCH   4  20
ATOM     20  C   UNL d   1      -1.172  -4.030   4.243  0.00  0.00     0.044 A 
ATOM     21  C   UNL d   1      -1.386  -5.283   4.884  0.00  0.00     0.017 A 
ATOM     22  C   UNL d   1      -2.584  -5.460   5.615  0.00  0.00     0.046 A 
ATOM     23  C   UNL d   1      -0.460  -6.354   4.838  0.00  0.00     0.018 A 
ATOM     24  C   UNL d   1      -2.847  -6.685   6.210  0.00  0.00     0.054 A 
ATOM     25  N   UNL d   1      -3.491  -4.485   5.768  0.00  0.00    -0.365 N 
ATOM     26  C   UNL d   1      -1.926  -7.727   6.153  0.00  0.00     0.036 A 
ATOM     27  C   UNL d   1      -0.722  -7.563   5.483  0.00  0.00     0.025 A 
ATOM     28 CL   UNL d   1      -2.278  -9.222   6.932  0.00  0.00    -0.084 Cl
ATOM     29  C   UNL d   1      -3.225  -3.287   5.216  0.00  0.00     0.090 A 
ATOM     30  HN  UNL d   1      -4.355  -4.647   6.285  1.00  0.00     0.165 HD
ATOM     31  C   UNL d   1      -2.104  -3.015   4.457  0.00  0.00     0.047 A 
ENDBRANCH   4  20
TORSDOF 3
