REMARK  4 active torsions:
REMARK  status: ('A' for Active; 'I' for Inactive)
REMARK    1  A    between atoms: C_12  and  C_9 
REMARK    2  A    between atoms: C_15  and  C_10 
REMARK    3  A    between atoms: O_28  and  C_22 
REMARK    4  A    between atoms: O_29  and  C_23 
ROOT
ATOM      1  N   UNL d   1      -1.725   0.507  -0.024  0.00  0.00    -0.270 N 
ATOM      2  N   UNL d   1      -0.392  -1.425  -0.040  0.00  0.00    -0.289 N 
ATOM      3  C   UNL d   1       0.703   0.749  -0.080  0.00  0.00     0.088 A 
ATOM      4  C   UNL d   1       0.783  -0.640  -0.055  0.00  0.00     0.128 A 
ATOM      5  C   UNL d   1      -1.655  -0.873   0.043  0.00  0.00     0.332 C 
ATOM      6  C   UNL d   1      -0.638   1.312  -0.334  0.00  0.00     0.266 C 
ATOM      7  N   UNL d   1       1.966  -1.304  -0.021  0.00  0.00    -0.341 N 
ATOM      8  HN  UNL d   1       1.988  -2.324  -0.047  1.00  0.00     0.167 HD
ATOM      9  C   UNL d   1       1.883   1.516   0.067  0.00  0.00    -0.004 A 
ATOM     10  C   UNL d   1       3.114  -0.597   0.049  0.00  0.00     0.044 A 
ATOM     11  C   UNL d   1       3.090   0.790   0.136  0.00  0.00     0.043 A 
ATOM     12  O   UNL d   1      -2.668  -1.574   0.149  0.00  0.00    -0.246 OA
ATOM     13  O   UNL d   1      -0.769   2.422  -0.834  0.00  0.00    -0.267 OA
ATOM     14  C   UNL d   1      -3.033   1.143  -0.031  0.00  0.00     0.164 C 
ATOM     15  C   UNL d   1      -0.234  -2.870   0.005  0.00  0.00     0.163 C 
ENDROOT
BRANCH   9  16
ATOM     16  C   UNL d   1       1.963   3.002   0.189  0.00  0.00    -0.025 A 
ATOM     17  C   UNL d   1       1.006   3.751   0.892  0.00  0.00     0.015 A 
ATOM     18  C   UNL d   1       1.079   5.148   0.989  0.00  0.00     0.037 A 
ATOM     19  C   UNL d   1       2.162   5.836   0.451  0.00  0.00     0.068 A 
ATOM     20  C   UNL d   1       3.156   5.114  -0.201  0.00  0.00     0.037 A 
ATOM     21  C   UNL d   1       3.047   3.725  -0.349  0.00  0.00     0.015 A 
BRANCH  19  22
ATOM     22  O   UNL d   1       2.361   7.187   0.499  0.00  0.00    -0.356 OA
ATOM     23  C   UNL d   1       1.339   7.955   1.123  0.00  0.00     0.210 C 
ENDBRANCH  19  22
ENDBRANCH   9  16
BRANCH  10  24
ATOM     24  C   UNL d   1       4.375  -1.364  -0.036  0.00  0.00    -0.009 A 
ATOM     25  C   UNL d   1       4.441  -2.561  -0.771  0.00  0.00     0.016 A 
ATOM     26  C   UNL d   1       5.647  -3.257  -0.942  0.00  0.00     0.037 A 
ATOM     27  C   UNL d   1       6.821  -2.774  -0.371  0.00  0.00     0.068 A 
ATOM     28  C   UNL d   1       6.772  -1.604   0.383  0.00  0.00     0.037 A 
ATOM     29  C   UNL d   1       5.568  -0.912   0.555  0.00  0.00     0.016 A 
BRANCH  27  30
ATOM     30  O   UNL d   1       8.061  -3.339  -0.468  0.00  0.00    -0.356 OA
ATOM     31  C   UNL d   1       8.169  -4.522  -1.249  0.00  0.00     0.210 C 
ENDBRANCH  27  30
ENDBRANCH  10  24
TORSDOF 4
