REMARK  3 active torsions:
REMARK  status: ('A' for Active; 'I' for Inactive)
REMARK    1  A    between atoms: N_3  and  C_9 
REMARK    2  A    between atoms: C_12  and  C_4 
REMARK    3  A    between atoms: C_15  and  C_12 
ROOT
ATOM      1  C   UNL d   1       1.389   5.797   0.062  0.00  0.00     0.102 A 
ATOM      2  C   UNL d   1       0.966   4.963   1.105  0.00  0.00     0.036 A 
ATOM      3  C   UNL d   1       2.156   5.284  -0.991  0.00  0.00     0.036 A 
ATOM      4  C   UNL d   1       2.083   3.077   0.042  0.00  0.00    -0.051 A 
ATOM      5  C   UNL d   1       2.498   3.929  -0.997  0.00  0.00     0.010 A 
ATOM      6  C   UNL d   1       1.315   3.610   1.092  0.00  0.00     0.010 A 
ENDROOT
BRANCH   4   7
ATOM      7  C   UNL d   1       2.454   1.610   0.022  0.00  0.00     0.117 C 
BRANCH   7   8
ATOM      8  C   UNL d   1       3.755   1.486   0.727  0.00  0.00     0.108 A 
ATOM      9  N   UNL d   1       3.854   1.218   2.074  0.00  0.00    -0.327 N 
ATOM     10  C   UNL d   1       5.156   1.171   2.248  0.00  0.00     0.144 A 
ATOM     11  HN  UNL d   1       3.110   1.090   2.759  1.00  0.00     0.169 HD
ATOM     12  O   UNL d   1       5.865   1.362   1.099  0.00  0.00    -0.223 OA
ATOM     13  C   UNL d   1       5.944   0.962   3.476  0.00  0.00     0.100 C 
ATOM     14  N   UNL d   1       4.930   1.559   0.083  0.00  0.00    -0.247 N 
ATOM     15  HN  UNL d   1       5.098   1.719  -0.910  1.00  0.00     0.196 HD
ENDBRANCH   7   8
ENDBRANCH   4   7
BRANCH   1  16
ATOM     16  N   UNL d   1       1.027   7.220   0.070  0.00  0.00    -0.116 N 
ATOM     17  O   UNL d   1       0.346   7.636   1.022  0.00  0.00    -0.532 OA
ATOM     18  O   UNL d   1       1.419   7.923  -0.873  0.00  0.00    -0.532 OA
ENDBRANCH   1  16
TORSDOF 3
