REMARK  4 active torsions:
REMARK  status: ('A' for Active; 'I' for Inactive)
REMARK    1  A    between atoms: C_3  and  C_7 
REMARK    2  A    between atoms: C_4  and  C_10 
REMARK       I    between atoms: C_5  and  N_6 
REMARK    3  A    between atoms: C_11  and  C_5 
REMARK    4  A    between atoms: N_6  and  C_8 
ROOT
ATOM      1  C   UNL d   1      -4.023  -1.004  -0.327  0.00  0.00     0.256 C 
ATOM      2  N   UNL d   1      -3.195   0.071  -0.049  0.00  0.00    -0.321 N 
ATOM      3  O   UNL d   1      -3.635  -2.092  -0.748  0.00  0.00    -0.267 OA
ATOM      4  H   UNL d   1      -3.594   0.872   0.411  0.00  0.00     0.169 HD
ENDROOT
BRANCH   2   5
ATOM      5  C   UNL d   1      -1.782   0.040  -0.141  0.00  0.00     0.057 A 
ATOM      6  C   UNL d   1      -0.981   0.812   0.711  0.00  0.00     0.032 A 
ATOM      7  N   UNL d   1       0.380   0.765   0.677  0.00  0.00    -0.354 N 
ATOM      8  C   UNL d   1      -1.528   1.696   1.794  0.00  0.00     0.070 C 
ATOM      9  C   UNL d   1       0.992  -0.064  -0.216  0.00  0.00     0.117 A 
ATOM     10  HN  UNL d   1       0.933   1.343   1.310  1.00  0.00     0.166 HD
ATOM     11  C   UNL d   1       0.258  -0.818  -1.125  0.00  0.00     0.036 A 
ATOM     12  C   UNL d   1      -1.133  -0.762  -1.083  0.00  0.00     0.034 A 
BRANCH   9  13
ATOM     13  C   UNL d   1       2.509  -0.193  -0.212  0.00  0.00     0.432 C 
ATOM     14  F   UNL d   1       3.130   0.479   0.799  0.00  0.00    -0.165 F 
ATOM     15  F   UNL d   1       2.920  -1.491  -0.097  0.00  0.00    -0.165 F 
ATOM     16  F   UNL d   1       3.076   0.265  -1.367  0.00  0.00    -0.165 F 
ENDBRANCH   9  13
ENDBRANCH   2   5
BRANCH   1  17
ATOM     17  C   UNL d   1      -5.482  -0.847  -0.037  0.00  0.00     0.032 A 
ATOM     18  C   UNL d   1      -6.341  -1.859  -0.498  0.00  0.00     0.018 A 
ATOM     19  C   UNL d   1      -7.713  -1.813  -0.239  0.00  0.00     0.017 A 
ATOM     20  C   UNL d   1      -8.261  -0.751   0.488  0.00  0.00     0.048 A 
ATOM     21  C   UNL d   1      -7.407   0.263   0.949  0.00  0.00     0.017 A 
ATOM     22  C   UNL d   1      -6.030   0.215   0.695  0.00  0.00     0.018 A 
BRANCH  20  23
ATOM     23  C   UNL d   1      -9.740  -0.693   0.792  0.00  0.00     0.417 C 
ATOM     24  F   UNL d   1     -10.444  -1.741   0.284  0.00  0.00    -0.166 F 
ATOM     25  F   UNL d   1      -9.993  -0.683   2.129  0.00  0.00    -0.166 F 
ATOM     26  F   UNL d   1     -10.326   0.430   0.292  0.00  0.00    -0.166 F 
ENDBRANCH  20  23
ENDBRANCH   1  17
TORSDOF 4
