REMARK  1 active torsions:
REMARK  status: ('A' for Active; 'I' for Inactive)
REMARK    1  A    between atoms: C_7  and  C_6 
ROOT
ATOM      1  N   UNL d   1       0.142  -1.196  -0.046  0.00  0.00    -0.307 N 
ATOM      2  C   UNL d   1       0.957  -0.110   0.025  0.00  0.00     0.146 A 
ATOM      3  C   UNL d   1      -1.501   0.467   0.014  0.00  0.00     0.077 A 
ATOM      4  C   UNL d   1      -1.209  -0.993  -0.095  0.00  0.00     0.264 A 
ATOM      5  S   UNL d   1      -0.005   1.347   0.088  0.00  0.00    -0.055 SA
ATOM      6  C   UNL d   1      -2.696   1.073   0.065  0.00  0.00     0.043 C 
ATOM      7  S   UNL d   1       2.610  -0.201   0.041  0.00  0.00    -0.052 SA
ATOM      8  O   UNL d   1      -2.019  -1.893  -0.235  0.00  0.00    -0.267 OA
ATOM      9  H   UNL d   1       0.509  -2.133  -0.111  0.00  0.00     0.170 HD
ENDROOT
BRANCH   6  10
ATOM     10  C   UNL d   1      -3.920   0.359   0.023  0.00  0.00     0.007 A 
ATOM     11  C   UNL d   1      -4.672  -0.011  -1.079  0.00  0.00     0.038 A 
ATOM     12  C   UNL d   1      -5.814  -0.763  -0.712  0.00  0.00     0.018 A 
ATOM     13 BR   UNL d   1      -7.000  -1.466  -1.998  0.00  0.00    -0.051 Br
ATOM     14  C   UNL d   1      -5.946  -0.925   0.643  0.00  0.00     0.069 A 
ATOM     15  S   UNL d   1      -4.683  -0.136   1.486  0.00  0.00    -0.101 SA
ENDBRANCH   6  10
TORSDOF 1
