REMARK  4 active torsions:
REMARK  status: ('A' for Active; 'I' for Inactive)
REMARK    1  A    between atoms: C_7  and  C_1 
REMARK    2  A    between atoms: C_8  and  C_2 
REMARK    3  A    between atoms: C_6  and  C_4 
REMARK    4  A    between atoms: O_14  and  C_11 
ROOT
ATOM      1  C   UNL d   1      -0.087   1.127  -0.087  0.00  0.00     0.097 A 
ATOM      2  C   UNL d   1       1.212   0.641   0.025  0.00  0.00     0.012 A 
ATOM      3  O   UNL d   1      -0.974   0.081  -0.066  0.00  0.00    -0.308 OA
ATOM      4  C   UNL d   1      -0.256  -1.079   0.026  0.00  0.00     0.087 A 
ATOM      5  C   UNL d   1       1.088  -0.779   0.051  0.00  0.00     0.053 A 
ENDROOT
BRANCH   4   6
ATOM      6  C   UNL d   1      -1.004  -2.335   0.109  0.00  0.00    -0.002 A 
ATOM      7  C   UNL d   1      -2.405  -2.360   0.133  0.00  0.00     0.017 A 
ATOM      8  C   UNL d   1      -3.105  -3.567   0.277  0.00  0.00     0.037 A 
ATOM      9  C   UNL d   1      -2.412  -4.770   0.401  0.00  0.00     0.068 A 
ATOM     10  C   UNL d   1      -1.022  -4.764   0.338  0.00  0.00     0.037 A 
ATOM     11  C   UNL d   1      -0.324  -3.560   0.203  0.00  0.00     0.017 A 
BRANCH   9  12
ATOM     12  O   UNL d   1      -2.987  -6.002   0.546  0.00  0.00    -0.356 OA
ATOM     13  C   UNL d   1      -4.236  -6.014   1.228  0.00  0.00     0.210 C 
ENDBRANCH   9  12
ENDBRANCH   4   6
BRANCH   1  14
ATOM     14  C   UNL d   1      -0.683   2.459  -0.200  0.00  0.00    -0.001 A 
ATOM     15  C   UNL d   1      -0.056   3.462  -0.954  0.00  0.00     0.014 A 
ATOM     16  C   UNL d   1      -0.516   4.780  -0.924  0.00  0.00     0.001 A 
ATOM     17  C   UNL d   1      -1.643   5.104  -0.174  0.00  0.00     0.000 A 
ATOM     18  C   UNL d   1      -2.318   4.108   0.528  0.00  0.00     0.001 A 
ATOM     19  C   UNL d   1      -1.842   2.791   0.516  0.00  0.00     0.014 A 
ENDBRANCH   1  14
BRANCH   2  20
ATOM     20  C   UNL d   1       2.434   1.430   0.113  0.00  0.00    -0.023 A 
ATOM     21  C   UNL d   1       2.479   2.641   0.820  0.00  0.00     0.012 A 
ATOM     22  C   UNL d   1       3.648   3.404   0.857  0.00  0.00     0.001 A 
ATOM     23  C   UNL d   1       4.802   2.940   0.233  0.00  0.00     0.000 A 
ATOM     24  C   UNL d   1       4.787   1.715  -0.429  0.00  0.00     0.001 A 
ATOM     25  C   UNL d   1       3.608   0.968  -0.494  0.00  0.00     0.012 A 
ENDBRANCH   2  20
TORSDOF 4
