REMARK  4 active torsions:
REMARK  status: ('A' for Active; 'I' for Inactive)
REMARK    1  A    between atoms: C_7  and  C_3 
REMARK    2  A    between atoms: C_17  and  C_6 
REMARK    3  A    between atoms: O_16  and  C_8 
REMARK    4  A    between atoms: S_18  and  C_17 
ROOT
ATOM      1  N   UNL d   1      -0.459   0.602   1.123  0.00  0.00    -0.322 N 
ATOM      2  HN  UNL d   1      -0.851   1.090   1.928  1.00  0.00     0.169 HD
ATOM      3  C   UNL d   1       0.268   1.118   0.073  0.00  0.00     0.138 A 
ATOM      4  N   UNL d   1       0.616   0.203  -0.848  0.00  0.00    -0.242 N 
ATOM      5  HN  UNL d   1       1.139   0.348  -1.712  1.00  0.00     0.196 HD
ATOM      6  C   UNL d   1      -0.521  -0.678   0.825  0.00  0.00     0.157 A 
ATOM      7  O   UNL d   1       0.097  -0.989  -0.348  0.00  0.00    -0.222 OA
ENDROOT
BRANCH   3   8
ATOM      8  C   UNL d   1       0.607   2.534  -0.017  0.00  0.00     0.013 A 
ATOM      9  C   UNL d   1       0.195   3.429   0.973  0.00  0.00     0.037 A 
ATOM     10  C   UNL d   1       0.485   4.792   0.858  0.00  0.00     0.046 A 
ATOM     11 BR   UNL d   1      -0.131   5.933   2.255  0.00  0.00    -0.048 Br
ATOM     12  C   UNL d   1       1.189   5.308  -0.250  0.00  0.00     0.102 A 
ATOM     13  C   UNL d   1       1.610   4.404  -1.236  0.00  0.00     0.046 A 
ATOM     14  C   UNL d   1       1.329   3.033  -1.109  0.00  0.00     0.037 A 
ATOM     15 BR   UNL d   1       2.474   4.899  -2.855  0.00  0.00    -0.048 Br
BRANCH  12  16
ATOM     16  O   UNL d   1       1.267   6.674  -0.340  0.00  0.00    -0.353 OA
ATOM     17  C   UNL d   1       2.550   7.237  -0.590  0.00  0.00     0.210 C 
ENDBRANCH  12  16
ENDBRANCH   3   8
BRANCH   6  18
ATOM     18  C   UNL d   1      -1.135  -1.794   1.578  0.00  0.00     0.160 C 
BRANCH  18  19
ATOM     19  S   UNL d   1       0.034  -2.572   2.745  0.00  0.00    -0.165 SA
ATOM     20  C   UNL d   1       0.373  -1.152   3.820  0.00  0.00     0.090 C 
ENDBRANCH  18  19
ENDBRANCH   6  18
TORSDOF 4
