REMARK  1 active torsions:
REMARK  status: ('A' for Active; 'I' for Inactive)
REMARK    1  A    between atoms: C_2  and  N_1 
ROOT
ATOM      1  C   UNL d   1       0.386  -2.443  -0.037  0.00  0.00     0.038 A 
ATOM      2  C   UNL d   1       1.747  -2.762  -0.144  0.00  0.00     0.055 A 
ATOM      3  C   UNL d   1       2.185  -4.094  -0.177  0.00  0.00     0.058 A 
ATOM      4  C   UNL d   1       1.259  -5.136  -0.110  0.00  0.00     0.055 A 
ATOM      5  C   UNL d   1      -0.528  -3.507   0.025  0.00  0.00     0.031 A 
ATOM      6  C   UNL d   1      -0.098  -4.839  -0.009  0.00  0.00     0.028 A 
ATOM      7 CL   UNL d   1       3.886  -4.382  -0.304  0.00  0.00    -0.082 Cl
ATOM      8 CL   UNL d   1       1.720  -6.800  -0.146  0.00  0.00    -0.083 Cl
ENDROOT
BRANCH   1   9
ATOM      9  N   UNL d   1      -0.070  -1.096   0.007  0.00  0.00    -0.318 N 
ATOM     10  C   UNL d   1       0.729   0.046   0.182  0.00  0.00     0.224 C 
ATOM     11  O   UNL d   1       1.941   0.130   0.301  0.00  0.00    -0.273 OA
ATOM     12  C   UNL d   1      -0.188   1.241   0.292  0.00  0.00     0.105 C 
ATOM     13  C   UNL d   1      -1.498   0.736  -0.277  0.00  0.00     0.029 C 
ATOM     14  C   UNL d   1      -1.472  -0.746   0.029  0.00  0.00     0.133 C 
ENDBRANCH   1   9
TORSDOF 1
