REMARK  3 active torsions:
REMARK  status: ('A' for Active; 'I' for Inactive)
REMARK    1  A    between atoms: N_6  and  C_1 
REMARK    2  A    between atoms: C_10  and  N_2 
REMARK       I    between atoms: C_7  and  N_6 
REMARK    3  A    between atoms: C_9  and  C_7 
ROOT
ATOM      1  C   UNL d   1      -0.377  -1.084  -0.286  0.00  0.00     0.132 C 
ATOM      2  N   UNL d   1       0.926  -0.702   0.059  0.00  0.00    -0.240 N 
ATOM      3  N   UNL d   1       0.990   0.620   0.353  0.00  0.00    -0.297 N 
ATOM      4  HN  UNL d   1       1.762   1.125   0.788  1.00  0.00     0.187 HD
ATOM      5  C   UNL d   1      -1.062   0.094  -0.479  0.00  0.00     0.076 C 
ATOM      6  C   UNL d   1      -0.182   1.115  -0.052  0.00  0.00     0.026 C 
ATOM      7  C   UNL d   1      -0.444   2.573   0.024  0.00  0.00     0.070 C 
ENDROOT
BRANCH   1   8
ATOM      8  N   UNL d   1      -0.781  -2.409  -0.296  0.00  0.00    -0.309 N 
ATOM      9  C   UNL d   1      -1.761  -3.038  -1.008  0.00  0.00     0.256 C 
ATOM     10  O   UNL d   1      -2.065  -4.177  -0.618  0.00  0.00    -0.270 OA
ATOM     11  H   UNL d   1      -0.302  -3.033   0.350  0.00  0.00     0.170 HD
BRANCH   9  12
ATOM     12  C   UNL d   1      -2.406  -2.486  -2.272  0.00  0.00     0.270 C 
ATOM     13 CL   UNL d   1      -3.821  -1.503  -1.898  0.00  0.00    -0.098 Cl
ATOM     14 CL   UNL d   1      -1.252  -1.689  -3.352  0.00  0.00    -0.098 Cl
ENDBRANCH   9  12
ENDBRANCH   1   8
BRANCH   2  15
ATOM     15  C   UNL d   1       2.116  -1.488   0.032  0.00  0.00     0.058 A 
ATOM     16  C   UNL d   1       2.191  -2.657  -0.741  0.00  0.00     0.031 A 
ATOM     17  C   UNL d   1       3.377  -3.394  -0.789  0.00  0.00     0.002 A 
ATOM     18  C   UNL d   1       4.492  -2.967  -0.074  0.00  0.00     0.000 A 
ATOM     19  C   UNL d   1       4.430  -1.796   0.681  0.00  0.00     0.002 A 
ATOM     20  C   UNL d   1       3.250  -1.050   0.727  0.00  0.00     0.031 A 
ENDBRANCH   2  15
TORSDOF 3
