REMARK  6 active torsions:
REMARK  status: ('A' for Active; 'I' for Inactive)
REMARK    1  A    between atoms: C_7  and  C_1 
REMARK    2  A    between atoms: C_11  and  C_4 
REMARK       I    between atoms: N_10  and  C_7 
REMARK    3  A    between atoms: N_8  and  N_10 
REMARK    4  A    between atoms: C_14  and  C_13 
REMARK    5  A    between atoms: O_20  and  C_15 
REMARK    6  A    between atoms: C_24  and  O_20 
ROOT
ATOM      1  C   UNL d   1       0.180  -2.804  -0.113  0.00  0.00     0.275 C 
ATOM      2  N   UNL d   1      -0.826  -3.770  -0.078  0.00  0.00    -0.266 N 
ATOM      3  O   UNL d   1       0.006  -1.654  -0.513  0.00  0.00    -0.266 OA
ATOM      4  H   UNL d   1      -0.572  -4.742   0.039  0.00  0.00     0.190 HD
ENDROOT
BRANCH   1   5
ATOM      5  C   UNL d   1       1.476  -3.227   0.390  0.00  0.00     0.094 A 
ATOM      6  C   UNL d   1       2.442  -2.433   1.107  0.00  0.00     0.083 A 
ATOM      7  N   UNL d   1       3.561  -3.148   1.318  0.00  0.00    -0.259 N 
ATOM      8  O   UNL d   1       3.335  -4.397   0.806  0.00  0.00    -0.241 OA
ATOM      9  HN  UNL d   1       4.414  -2.822   1.771  1.00  0.00     0.195 HD
ATOM     10  C   UNL d   1       2.092  -4.461   0.269  0.00  0.00     0.090 A 
ATOM     11  C   UNL d   1       1.742  -5.776  -0.306  0.00  0.00     0.080 C 
BRANCH   6  12
ATOM     12  C   UNL d   1       2.341  -1.073   1.654  0.00  0.00    -0.006 A 
ATOM     13  C   UNL d   1       3.493  -0.280   1.801  0.00  0.00     0.014 A 
ATOM     14  C   UNL d   1       3.422   0.989   2.384  0.00  0.00     0.001 A 
ATOM     15  C   UNL d   1       2.199   1.487   2.823  0.00  0.00     0.000 A 
ATOM     16  C   UNL d   1       1.048   0.716   2.687  0.00  0.00     0.001 A 
ATOM     17  C   UNL d   1       1.121  -0.558   2.116  0.00  0.00     0.014 A 
ENDBRANCH   6  12
ENDBRANCH   1   5
BRANCH   2  18
ATOM     18  N   UNL d   1      -2.099  -3.597  -0.578  0.00  0.00    -0.308 N 
ATOM     19  C   UNL d   1      -2.667  -2.449  -0.366  0.00  0.00     0.118 C 
ATOM     20  HN  UNL d   1      -2.574  -4.339  -1.093  1.00  0.00     0.186 HD
BRANCH  19  21
ATOM     21  C   UNL d   1      -3.968  -2.085  -0.965  0.00  0.00    -0.019 A 
ATOM     22  C   UNL d   1      -4.686  -2.992  -1.747  0.00  0.00     0.015 A 
ATOM     23  C   UNL d   1      -5.859  -2.583  -2.393  0.00  0.00     0.037 A 
ATOM     24  C   UNL d   1      -6.309  -1.267  -2.269  0.00  0.00     0.068 A 
ATOM     25  C   UNL d   1      -5.614  -0.381  -1.441  0.00  0.00     0.037 A 
ATOM     26  C   UNL d   1      -4.445  -0.784  -0.789  0.00  0.00     0.015 A 
BRANCH  24  27
ATOM     27  O   UNL d   1      -7.394  -0.729  -2.906  0.00  0.00    -0.352 OA
BRANCH  27  28
ATOM     28  C   UNL d   1      -7.976  -1.510  -3.950  0.00  0.00     0.171 C 
ATOM     29  C   UNL d   1      -8.957  -0.639  -4.716  0.00  0.00     0.034 C 
ENDBRANCH  27  28
ENDBRANCH  24  27
ENDBRANCH  19  21
ENDBRANCH   2  18
TORSDOF 6
