REMARK  2 active torsions:
REMARK  status: ('A' for Active; 'I' for Inactive)
REMARK    1  A    between atoms: C_4  and  C_3 
REMARK    2  A    between atoms: C_9  and  N_6 
ROOT
ATOM      1  C   UNL d   1      -3.225  -2.050   0.087  0.00  0.00     0.040 A 
ATOM      2  N   UNL d   1      -3.961  -1.476  -0.955  0.00  0.00    -0.322 N 
ATOM      3  C   UNL d   1      -5.297  -1.530  -0.590  0.00  0.00     0.097 A 
ATOM      4  C   UNL d   1      -4.117  -2.546   1.022  0.00  0.00     0.031 A 
ATOM      5  C   UNL d   1      -5.418  -2.206   0.602  0.00  0.00     0.020 A 
ENDROOT
BRANCH   1   6
ATOM      6  C   UNL d   1      -1.809  -1.970   0.138  0.00  0.00     0.048 C 
ATOM      7  C   UNL d   1      -1.165  -0.912   0.658  0.00  0.00     0.047 A 
ATOM      8  C   UNL d   1      -1.771   0.301   1.330  0.00  0.00     0.257 A 
ATOM      9  C   UNL d   1       0.291  -0.719   0.666  0.00  0.00     0.006 A 
ATOM     10  N   UNL d   1      -0.686   1.087   1.686  0.00  0.00    -0.322 N 
ATOM     11  O   UNL d   1      -2.938   0.562   1.537  0.00  0.00    -0.267 OA
ATOM     12  C   UNL d   1       0.516   0.508   1.300  0.00  0.00     0.046 A 
ATOM     13  H   UNL d   1      -0.794   1.971   2.158  0.00  0.00     0.169 HD
ATOM     14  C   UNL d   1       1.779   1.035   1.479  0.00  0.00     0.030 A 
ATOM     15  C   UNL d   1       2.857   0.295   0.992  0.00  0.00     0.002 A 
ATOM     16  C   UNL d   1       2.647  -0.937   0.343  0.00  0.00     0.001 A 
ATOM     17  C   UNL d   1       1.356  -1.453   0.174  0.00  0.00     0.015 A 
ENDBRANCH   1   6
BRANCH   2  18
ATOM     18  C   UNL d   1      -3.479  -0.903  -2.174  0.00  0.00     0.039 A 
ATOM     19  C   UNL d   1      -2.337  -1.414  -2.806  0.00  0.00     0.031 A 
ATOM     20  C   UNL d   1      -1.833  -0.807  -3.958  0.00  0.00     0.026 A 
ATOM     21  C   UNL d   1      -2.477   0.305  -4.492  0.00  0.00     0.034 A 
ATOM     22  C   UNL d   1      -3.639   0.796  -3.900  0.00  0.00     0.026 A 
ATOM     23 CL   UNL d   1      -1.828   1.080  -5.884  0.00  0.00    -0.084 Cl
ATOM     24  C   UNL d   1      -4.150   0.186  -2.749  0.00  0.00     0.031 A 
ENDBRANCH   2  18
TORSDOF 2
