REMARK  3 active torsions:
REMARK  status: ('A' for Active; 'I' for Inactive)
REMARK    1  A    between atoms: C_10  and  C_2 
REMARK    2  A    between atoms: C_9  and  N_3 
REMARK    3  A    between atoms: C_6  and  C_11 
ROOT
ATOM      1  S   UNL d   1      -0.955  -1.109  -0.187  0.00  0.00     0.180 S 
ATOM      2  C   UNL d   1       0.829  -1.033   0.027  0.00  0.00     0.265 C 
ATOM      3  N   UNL d   1       1.204   0.372   0.012  0.00  0.00    -0.293 N 
ATOM      4  C   UNL d   1       0.126   1.260   0.018  0.00  0.00     0.239 C 
ATOM      5  C   UNL d   1      -1.202   0.580   0.211  0.00  0.00     0.246 C 
ATOM      6  O   UNL d   1      -1.342  -1.262  -1.578  0.00  0.00    -0.225 OA
ATOM      7  O   UNL d   1      -1.563  -1.903   0.867  0.00  0.00    -0.225 OA
ATOM      8  O   UNL d   1       0.209   2.485  -0.007  0.00  0.00    -0.272 OA
ENDROOT
BRANCH   3   9
ATOM      9  C   UNL d   1       2.547   0.792   0.177  0.00  0.00     0.039 A 
ATOM     10  C   UNL d   1       3.395   0.128   1.071  0.00  0.00     0.030 A 
ATOM     11  C   UNL d   1       4.708   0.569   1.264  0.00  0.00     0.018 A 
ATOM     12  C   UNL d   1       5.217   1.649   0.529  0.00  0.00     0.048 A 
ATOM     13  C   UNL d   1       4.374   2.296  -0.383  0.00  0.00     0.018 A 
ATOM     14  C   UNL d   1       3.045   1.885  -0.540  0.00  0.00     0.030 A 
BRANCH  12  15
ATOM     15  C   UNL d   1       6.643   2.097   0.741  0.00  0.00     0.417 C 
ATOM     16  F   UNL d   1       7.034   3.093  -0.102  0.00  0.00    -0.166 F 
ATOM     17  F   UNL d   1       6.859   2.565   2.001  0.00  0.00    -0.166 F 
ATOM     18  F   UNL d   1       7.536   1.084   0.561  0.00  0.00    -0.166 F 
ENDBRANCH  12  15
ENDBRANCH   3   9
BRANCH   2  19
ATOM     19  C   UNL d   1       1.445  -1.896  -1.055  0.00  0.00     0.047 A 
ATOM     20  N   UNL d   1       1.703  -3.187  -0.716  0.00  0.00    -0.367 N 
ATOM     21  C   UNL d   1       2.203  -4.003  -1.674  0.00  0.00     0.088 A 
ATOM     22  HN  UNL d   1       1.526  -3.529   0.228  1.00  0.00     0.165 HD
ATOM     23  C   UNL d   1       2.498  -3.593  -2.962  0.00  0.00     0.017 A 
ATOM     24  C   UNL d   1       2.258  -2.264  -3.292  0.00  0.00     0.003 A 
ATOM     25  C   UNL d   1       1.724  -1.408  -2.334  0.00  0.00     0.028 A 
ENDBRANCH   2  19
TORSDOF 3
