REMARK  7 active torsions:
REMARK  status: ('A' for Active; 'I' for Inactive)
REMARK    1  A    between atoms: C_5  and  S_1 
REMARK    2  A    between atoms: C_14  and  S_1 
REMARK    3  A    between atoms: C_4  and  C_5 
REMARK    4  A    between atoms: C_6  and  C_11 
REMARK    5  A    between atoms: C_7  and  C_12 
REMARK    6  A    between atoms: C_16  and  C_10 
REMARK    7  A    between atoms: C_20  and  C_19 
ROOT
ATOM      1  N   UNL d   1       1.035   0.399   3.091  0.00  0.00    -0.323 N 
ATOM      2  HN  UNL d   1       0.852  -0.587   2.901  1.00  0.00     0.169 HD
ATOM      3  C   UNL d   1       0.868   1.434   2.301  0.00  0.00     0.162 A 
ATOM      4  N   UNL d   1       1.604   2.314   4.188  0.00  0.00    -0.243 N 
ATOM      5  HN  UNL d   1       1.914   2.955   4.918  1.00  0.00     0.196 HD
ATOM      6  C   UNL d   1       1.517   0.980   4.240  0.00  0.00     0.127 A 
ATOM      7  O   UNL d   1       1.170   2.622   2.898  0.00  0.00    -0.222 OA
ENDROOT
BRANCH   6   8
ATOM      8  C   UNL d   1       1.910   0.159   5.336  0.00  0.00     0.051 C 
ATOM      9  C   UNL d   1       1.856  -1.183   5.336  0.00  0.00     0.015 C 
BRANCH   9  10
ATOM     10  C   UNL d   1       2.297  -1.992   6.466  0.00  0.00    -0.035 A 
ATOM     11  C   UNL d   1       1.402  -2.332   7.486  0.00  0.00     0.027 A 
ATOM     12  C   UNL d   1       1.791  -3.205   8.514  0.00  0.00     0.049 A 
ATOM     13  C   UNL d   1       3.105  -3.699   8.525  0.00  0.00     0.032 A 
ATOM     14  C   UNL d   1       4.014  -3.367   7.508  0.00  0.00     0.049 A 
ATOM     15  C   UNL d   1       3.601  -2.498   6.487  0.00  0.00     0.027 A 
BRANCH  12  16
ATOM     16  C   UNL d   1       0.786  -3.666   9.543  0.00  0.00     0.417 C 
ATOM     17  F   UNL d   1       1.287  -4.593  10.406  0.00  0.00    -0.166 F 
ATOM     18  F   UNL d   1       0.312  -2.651  10.313  0.00  0.00    -0.166 F 
ATOM     19  F   UNL d   1      -0.304  -4.247   8.969  0.00  0.00    -0.166 F 
ENDBRANCH  12  16
BRANCH  14  20
ATOM     20  C   UNL d   1       5.388  -3.991   7.459  0.00  0.00     0.417 C 
ATOM     21  F   UNL d   1       5.616  -4.874   8.470  0.00  0.00    -0.166 F 
ATOM     22  F   UNL d   1       5.591  -4.686   6.305  0.00  0.00    -0.166 F 
ATOM     23  F   UNL d   1       6.387  -3.072   7.528  0.00  0.00    -0.166 F 
ENDBRANCH  14  20
ENDBRANCH   9  10
ENDBRANCH   6   8
BRANCH   3  24
ATOM     24  C   UNL d   1       0.420   1.473   0.908  0.00  0.00     0.232 C 
BRANCH  24  25
ATOM     25  S   UNL d   1       1.854   1.322  -0.129  0.00  0.00     0.182 S 
ATOM     26  O   UNL d   1       2.823   2.338   0.238  0.00  0.00    -0.222 OA
ATOM     27  O   UNL d   1       1.383   1.237  -1.498  0.00  0.00    -0.222 OA
BRANCH  25  28
ATOM     28  C   UNL d   1       2.570  -0.267   0.259  0.00  0.00     0.059 A 
ATOM     29  C   UNL d   1       2.162  -1.395  -0.466  0.00  0.00     0.025 A 
ATOM     30  C   UNL d   1       2.749  -2.630  -0.204  0.00  0.00     0.025 A 
ATOM     31  C   UNL d   1       3.743  -2.735   0.769  0.00  0.00     0.034 A 
ATOM     32  C   UNL d   1       4.159  -1.611   1.485  0.00  0.00     0.025 A 
ATOM     33 CL   UNL d   1       4.470  -4.263   1.082  0.00  0.00    -0.084 Cl
ATOM     34  C   UNL d   1       3.580  -0.366   1.221  0.00  0.00     0.025 A 
ENDBRANCH  25  28
ENDBRANCH  24  25
ENDBRANCH   3  24
TORSDOF 7
