REMARK  4 active torsions:
REMARK  status: ('A' for Active; 'I' for Inactive)
REMARK    1  A    between atoms: C_3  and  C_1 
REMARK    2  A    between atoms: N_4  and  C_2 
REMARK    3  A    between atoms: O_11  and  C_3 
REMARK       I    between atoms: C_6  and  N_4 
REMARK    4  A    between atoms: C_8  and  C_6 
ROOT
ATOM      1  N   UNL d   1       3.156  -4.131  -2.059  0.00  0.00    -0.197 NA
ATOM      2  C   UNL d   1       2.556  -4.559  -1.163  0.00  0.00     0.068 C 
ATOM      3  C   UNL d   1       1.819  -5.107  -0.024  0.00  0.00     0.226 C 
ENDROOT
BRANCH   3   4
ATOM      4  C   UNL d   1       0.797  -4.116   0.479  0.00  0.00     0.235 C 
ATOM      5  N   UNL d   1       1.311  -2.913   0.923  0.00  0.00    -0.325 N 
ATOM      6  H   UNL d   1       2.279  -2.881   1.252  0.00  0.00     0.169 HD
ATOM      7  O   UNL d   1      -0.395  -4.423   0.518  0.00  0.00    -0.272 OA
BRANCH   5   8
ATOM      8  C   UNL d   1       0.558  -1.721   1.125  0.00  0.00     0.051 A 
ATOM      9  C   UNL d   1       1.049  -0.684   1.941  0.00  0.00     0.066 A 
ATOM     10  C   UNL d   1       0.323   0.519   2.051  0.00  0.00     0.020 A 
ATOM     11  C   UNL d   1      -0.880   0.692   1.365  0.00  0.00     0.001 A 
ATOM     12  C   UNL d   1      -1.371  -0.336   0.572  0.00  0.00     0.002 A 
ATOM     13  C   UNL d   1      -0.657  -1.531   0.449  0.00  0.00     0.030 A 
BRANCH   9  14
ATOM     14  C   UNL d   1       2.298  -0.866   2.737  0.00  0.00     0.295 C 
ATOM     15  O   UNL d   1       3.106  -1.760   2.530  0.00  0.00    -0.259 OA
BRANCH  14  16
ATOM     16  O   UNL d   1       2.349   0.048   3.736  0.00  0.00    -0.322 OA
ATOM     17  C   UNL d   1       3.457  -0.056   4.633  0.00  0.00     0.213 C 
ENDBRANCH  14  16
ENDBRANCH   9  14
ENDBRANCH   5   8
ENDBRANCH   3   4
TORSDOF 4
