REMARK  2 active torsions:
REMARK  status: ('A' for Active; 'I' for Inactive)
REMARK    1  A    between atoms: S_12  and  C_5 
REMARK    2  A    between atoms: C_9  and  N_8 
ROOT
ATOM      1  C   UNL d   1       0.084   1.074   0.025  0.00  0.00     0.166 A 
ATOM      2  S   UNL d   1      -1.549   0.512   0.070  0.00  0.00    -0.026 SA
ATOM      3  N   UNL d   1       0.962   0.090   0.013  0.00  0.00    -0.278 N 
ATOM      4  HN  UNL d   1       1.971   0.238   0.002  1.00  0.00     0.189 HD
ATOM      5  C   UNL d   1      -0.931  -1.083   0.032  0.00  0.00     0.129 A 
ATOM      6  N   UNL d   1       0.379  -1.157   0.018  0.00  0.00    -0.286 N 
ATOM      7  HN  UNL d   1       0.902  -2.033   0.011  1.00  0.00     0.188 HD
ATOM      8  N   UNL d   1       0.346   2.403   0.029  0.00  0.00    -0.334 N 
ATOM      9  H   UNL d   1      -0.401   3.042   0.285  0.00  0.00     0.168 HD
ENDROOT
BRANCH   8  10
ATOM     10  C   UNL d   1       1.587   3.033  -0.202  0.00  0.00     0.056 A 
ATOM     11  C   UNL d   1       1.841   4.318   0.321  0.00  0.00     0.062 A 
ATOM     12  C   UNL d   1       3.076   4.949   0.149  0.00  0.00     0.050 A 
ATOM     13 CL   UNL d   1       0.615   5.161   1.211  0.00  0.00    -0.082 Cl
ATOM     14  C   UNL d   1       4.082   4.298  -0.557  0.00  0.00     0.035 A 
ATOM     15  C   UNL d   1       3.865   3.032  -1.085  0.00  0.00     0.026 A 
ATOM     16 CL   UNL d   1       5.605   5.065  -0.781  0.00  0.00    -0.084 Cl
ATOM     17  C   UNL d   1       2.629   2.402  -0.900  0.00  0.00     0.033 A 
ENDBRANCH   8  10
BRANCH   5  18
ATOM     18  S   UNL d   1      -1.951  -2.504   0.002  0.00  0.00    -0.108 SA
ATOM     19  C   UNL d   1      -0.744  -3.778   0.435  0.00  0.00     0.097 C 
ENDBRANCH   5  18
TORSDOF 2
