REMARK  12 active torsions:
REMARK  status: ('A' for Active; 'I' for Inactive)
REMARK    1  A    between atoms: N_2  and  S_1 
REMARK    2  A    between atoms: C_3  and  S_1 
REMARK    3  A    between atoms: C_17  and  N_2 
REMARK    4  A    between atoms: C_18  and  N_2 
REMARK    5  A    between atoms: C_4  and  C_6 
REMARK    6  A    between atoms: C_5  and  C_7 
REMARK    7  A    between atoms: O_28  and  C_8 
REMARK    8  A    between atoms: O_29  and  C_9 
REMARK    9  A    between atoms: O_30  and  C_10 
REMARK   10  A    between atoms: C_14  and  C_17 
REMARK   11  A    between atoms: C_27  and  C_18 
REMARK   12  A    between atoms: O_36  and  C_31 
ROOT
ATOM      1  N   UNL d   1       0.403   0.070   1.502  0.00  0.00    -0.298 N 
ENDROOT
BRANCH   1   2
ATOM      2  S   UNL d   1       1.225  -0.334   0.062  0.00  0.00     0.261 S 
ATOM      3  O   UNL d   1       0.321  -1.100  -0.778  0.00  0.00    -0.200 OA
ATOM      4  O   UNL d   1       2.554  -0.797   0.378  0.00  0.00    -0.200 OA
BRANCH   2   5
ATOM      5  C   UNL d   1       1.477   1.243  -0.728  0.00  0.00     0.081 A 
ATOM      6  C   UNL d   1       2.283   2.185  -0.084  0.00  0.00     0.041 A 
ATOM      7  C   UNL d   1       2.633   3.372  -0.740  0.00  0.00     0.050 A 
ATOM      8  C   UNL d   1       2.162   3.587  -2.051  0.00  0.00     0.032 A 
ATOM      9  C   UNL d   1       1.359   2.631  -2.707  0.00  0.00     0.050 A 
ATOM     10  C   UNL d   1       1.012   1.455  -2.025  0.00  0.00     0.041 A 
BRANCH   7  11
ATOM     11  C   UNL d   1       3.518   4.393  -0.059  0.00  0.00     0.417 C 
ATOM     12  F   UNL d   1       3.984   3.981   1.153  0.00  0.00    -0.166 F 
ATOM     13  F   UNL d   1       4.619   4.705  -0.796  0.00  0.00    -0.166 F 
ATOM     14  F   UNL d   1       2.870   5.566   0.169  0.00  0.00    -0.166 F 
ENDBRANCH   7  11
BRANCH   9  15
ATOM     15  C   UNL d   1       0.909   2.850  -4.134  0.00  0.00     0.417 C 
ATOM     16  F   UNL d   1       0.203   1.804  -4.646  0.00  0.00    -0.166 F 
ATOM     17  F   UNL d   1       0.106   3.941  -4.262  0.00  0.00    -0.166 F 
ATOM     18  F   UNL d   1       1.953   3.047  -4.984  0.00  0.00    -0.166 F 
ENDBRANCH   9  15
ENDBRANCH   2   5
ENDBRANCH   1   2
BRANCH   1  19
ATOM     19  C   UNL d   1      -1.051   0.384   1.328  0.00  0.00     0.174 C 
BRANCH  19  20
ATOM     20  C   UNL d   1      -1.788   0.747   2.604  0.00  0.00    -0.034 C 
ATOM     21  C   UNL d   1      -1.462   1.888   3.340  0.00  0.00     0.048 C 
ATOM     22  C   UNL d   1      -1.934   2.066   4.650  0.00  0.00     0.104 C 
ATOM     23  C   UNL d   1      -2.719   1.061   5.240  0.00  0.00     0.135 C 
ATOM     24  C   UNL d   1      -3.223   0.018   4.436  0.00  0.00     0.104 C 
ATOM     25  C   UNL d   1      -2.768  -0.109   3.120  0.00  0.00     0.048 C 
BRANCH  22  26
ATOM     26  O   UNL d   1      -1.529   3.262   5.177  0.00  0.00    -0.353 OA
ATOM     27  C   UNL d   1      -1.494   3.410   6.586  0.00  0.00     0.210 C 
ENDBRANCH  22  26
BRANCH  23  28
ATOM     28  O   UNL d   1      -3.039   1.125   6.574  0.00  0.00    -0.351 OA
ATOM     29  C   UNL d   1      -2.587  -0.025   7.303  0.00  0.00     0.210 C 
ENDBRANCH  23  28
BRANCH  24  30
ATOM     30  O   UNL d   1      -4.102  -0.865   5.016  0.00  0.00    -0.353 OA
ATOM     31  C   UNL d   1      -4.871  -1.682   4.136  0.00  0.00     0.210 C 
ENDBRANCH  24  30
ENDBRANCH  19  20
ENDBRANCH   1  19
BRANCH   1  32
ATOM     32  C   UNL d   1       0.779  -0.805   2.652  0.00  0.00     0.174 C 
BRANCH  32  33
ATOM     33  C   UNL d   1       0.603  -2.297   2.461  0.00  0.00    -0.040 A 
ATOM     34  C   UNL d   1       1.709  -3.146   2.319  0.00  0.00     0.011 A 
ATOM     35  C   UNL d   1       1.539  -4.521   2.110  0.00  0.00     0.037 A 
ATOM     36  C   UNL d   1       0.259  -5.069   2.037  0.00  0.00     0.068 A 
ATOM     37  C   UNL d   1      -0.842  -4.235   2.188  0.00  0.00     0.037 A 
ATOM     38  C   UNL d   1      -0.668  -2.872   2.408  0.00  0.00     0.011 A 
BRANCH  36  39
ATOM     39  O   UNL d   1      -0.060  -6.379   1.824  0.00  0.00    -0.356 OA
ATOM     40  C   UNL d   1       1.024  -7.288   1.710  0.00  0.00     0.210 C 
ENDBRANCH  36  39
ENDBRANCH  32  33
ENDBRANCH   1  32
TORSDOF 12
