REMARK  3 active torsions:
REMARK  status: ('A' for Active; 'I' for Inactive)
REMARK    1  A    between atoms: C_7  and  N_3 
REMARK    2  A    between atoms: N_9  and  C_4 
REMARK    3  A    between atoms: C_8  and  C_6 
ROOT
ATOM      1  N   UNL d   1       0.910  -0.611  -0.247  0.00  0.00    -0.291 N 
ATOM      2  HN  UNL d   1       1.720  -1.158  -0.539  1.00  0.00     0.187 HD
ATOM      3  N   UNL d   1       0.861   0.727   0.003  0.00  0.00    -0.240 N 
ATOM      4  C   UNL d   1      -0.455   1.162   0.173  0.00  0.00     0.123 C 
ATOM      5  C   UNL d   1      -1.225   0.027   0.195  0.00  0.00     0.081 C 
ATOM      6  C   UNL d   1      -0.338  -1.056  -0.028  0.00  0.00     0.062 C 
ENDROOT
BRANCH   3   7
ATOM      7  C   UNL d   1       2.049   1.511   0.001  0.00  0.00     0.058 A 
ATOM      8  C   UNL d   1       3.143   1.106  -0.773  0.00  0.00     0.031 A 
ATOM      9  C   UNL d   1       4.265   1.933  -0.874  0.00  0.00     0.002 A 
ATOM     10  C   UNL d   1       4.316   3.138  -0.171  0.00  0.00     0.000 A 
ATOM     11  C   UNL d   1       3.258   3.511   0.653  0.00  0.00     0.002 A 
ATOM     12  C   UNL d   1       2.126   2.698   0.744  0.00  0.00     0.031 A 
ENDBRANCH   3   7
BRANCH   4  13
ATOM     13  N   UNL d   1      -0.857   2.460   0.227  0.00  0.00    -0.384 N 
ATOM     14  H   UNL d   1      -0.260   3.182  -0.172  0.00  0.00     0.157 HD
ATOM     15  H   UNL d   1      -1.843   2.670   0.074  0.00  0.00     0.157 HD
ENDBRANCH   4  13
BRANCH   6  16
ATOM     16  C   UNL d   1      -0.681  -2.481  -0.064  0.00  0.00    -0.008 A 
ATOM     17  C   UNL d   1       0.101  -3.394  -0.786  0.00  0.00     0.014 A 
ATOM     18  C   UNL d   1      -0.239  -4.749  -0.822  0.00  0.00     0.001 A 
ATOM     19  C   UNL d   1      -1.359  -5.210  -0.131  0.00  0.00     0.000 A 
ATOM     20  C   UNL d   1      -2.140  -4.317   0.600  0.00  0.00     0.001 A 
ATOM     21  C   UNL d   1      -1.803  -2.962   0.632  0.00  0.00     0.014 A 
ENDBRANCH   6  16
TORSDOF 3
