REMARK  6 active torsions:
REMARK  status: ('A' for Active; 'I' for Inactive)
REMARK    1  A    between atoms: N_4  and  C_1 
REMARK    2  A    between atoms: C_10  and  N_7 
REMARK    3  A    between atoms: C_19  and  C_10 
REMARK    4  A    between atoms: C_12  and  O_20 
REMARK    5  A    between atoms: C_21  and  C_19 
REMARK    6  A    between atoms: O_20  and  C_21 
ROOT
ATOM      1  C   UNL d   1      -0.773   2.450   0.000  0.00  0.00     0.132 C 
ENDROOT
BRANCH   1   2
ATOM      2  N   UNL d   1      -0.109   3.021   1.158  0.00  0.00    -0.343 N 
ATOM      3  C   UNL d   1       0.396   4.295   1.222  0.00  0.00     0.147 A 
ATOM      4  C   UNL d   1       0.906   4.410   2.497  0.00  0.00     0.190 A 
ATOM      5  N   UNL d   1       0.743   3.236   3.196  0.00  0.00    -0.326 N 
ATOM      6  C   UNL d   1       0.138   2.406   2.367  0.00  0.00     0.081 A 
ATOM      7  HN  UNL d   1       1.031   3.046   4.156  1.00  0.00     0.169 HD
ATOM      8  C   UNL d   1      -0.236   1.002   2.676  0.00  0.00     0.089 C 
BRANCH   4   9
ATOM      9  N   UNL d   1       1.527   5.571   3.093  0.00  0.00    -0.096 N 
ATOM     10  O   UNL d   1       1.573   6.594   2.393  0.00  0.00    -0.530 OA
ATOM     11  O   UNL d   1       1.958   5.470   4.248  0.00  0.00    -0.530 OA
ENDBRANCH   4   9
ENDBRANCH   1   2
BRANCH   1  12
ATOM     12  C   UNL d   1      -2.293   2.604   0.021  0.00  0.00     0.047 C 
BRANCH  12  13
ATOM     13  C   UNL d   1      -2.732   4.066   0.038  0.00  0.00     0.177 C 
BRANCH  13  14
ATOM     14  O   UNL d   1      -4.155   4.125  -0.048  0.00  0.00    -0.351 OA
BRANCH  14  15
ATOM     15  C   UNL d   1      -4.689   5.387  -0.050  0.00  0.00     0.068 A 
ATOM     16  C   UNL d   1      -5.963   5.493  -0.613  0.00  0.00     0.038 A 
ATOM     17  C   UNL d   1      -6.610   6.730  -0.675  0.00  0.00     0.026 A 
ATOM     18  C   UNL d   1      -5.987   7.862  -0.155  0.00  0.00     0.034 A 
ATOM     19  C   UNL d   1      -4.726   7.763   0.428  0.00  0.00     0.026 A 
ATOM     20 CL   UNL d   1      -6.776   9.388  -0.230  0.00  0.00    -0.084 Cl
ATOM     21  C   UNL d   1      -4.077   6.525   0.483  0.00  0.00     0.038 A 
ENDBRANCH  14  15
ENDBRANCH  13  14
ENDBRANCH  12  13
ENDBRANCH   1  12
TORSDOF 6
