REMARK  9 active torsions:
REMARK  status: ('A' for Active; 'I' for Inactive)
REMARK    1  A    between atoms: N_2  and  C_1 
REMARK    2  A    between atoms: C_3  and  N_2 
REMARK    3  A    between atoms: C_14  and  N_8 
REMARK    4  A    between atoms: O_13  and  C_15 
REMARK    5  A    between atoms: C_16  and  C_14 
REMARK    6  A    between atoms: C_15  and  C_17 
REMARK    7  A    between atoms: C_19  and  C_16 
REMARK    8  A    between atoms: C_17  and  C_18 
REMARK    9  A    between atoms: C_18  and  C_19 
ROOT
ATOM      1  C   UNL d   1       1.463   0.222   0.719  0.00  0.00     0.172 C 
ATOM      2  S   UNL d   1       1.074  -0.932   1.859  0.00  0.00    -0.041 SA
ATOM      3  N   UNL d   1       2.451  -0.048  -0.170  0.00  0.00    -0.367 N 
ATOM      4  H   UNL d   1       2.799  -0.999  -0.111  0.00  0.00     0.161 HD
ENDROOT
BRANCH   1   5
ATOM      5  N   UNL d   1       0.861   1.435   0.761  0.00  0.00    -0.332 N 
ATOM      6  H   UNL d   1       0.500   1.696   1.674  0.00  0.00     0.168 HD
BRANCH   5   7
ATOM      7  C   UNL d   1       0.553   2.331  -0.288  0.00  0.00     0.051 A 
ATOM      8  C   UNL d   1       0.352   3.693  -0.003  0.00  0.00     0.040 A 
ATOM      9  C   UNL d   1       0.121   4.606  -1.033  0.00  0.00     0.063 A 
ATOM     10 BR   UNL d   1       0.469   4.363   1.771  0.00  0.00    -0.049 Br
ATOM     11  C   UNL d   1       0.042   4.148  -2.342  0.00  0.00     0.117 A 
ATOM     12  C   UNL d   1       0.170   2.797  -2.639  0.00  0.00     0.044 A 
ATOM     13  F   UNL d   1      -0.165   5.023  -3.335  0.00  0.00    -0.206 F 
ATOM     14  C   UNL d   1       0.422   1.887  -1.611  0.00  0.00     0.034 A 
ENDBRANCH   5   7
ENDBRANCH   1   5
BRANCH   3  15
ATOM     15  C   UNL d   1       3.314   0.909  -0.850  0.00  0.00     0.122 C 
BRANCH  15  16
ATOM     16  C   UNL d   1       4.793   0.717  -0.518  0.00  0.00     0.020 C 
BRANCH  16  17
ATOM     17  C   UNL d   1       5.605   1.819  -1.203  0.00  0.00     0.002 C 
BRANCH  17  18
ATOM     18  C   UNL d   1       7.110   1.705  -0.963  0.00  0.00     0.002 C 
BRANCH  18  19
ATOM     19  C   UNL d   1       7.838   2.841  -1.681  0.00  0.00     0.026 C 
BRANCH  19  20
ATOM     20  C   UNL d   1       9.342   2.780  -1.489  0.00  0.00     0.164 C 
BRANCH  20  21
ATOM     21  O   UNL d   1       9.928   3.868  -2.195  0.00  0.00    -0.401 OA
ATOM     22  H   UNL d   1      10.887   3.817  -2.058  0.00  0.00     0.209 HD
ENDBRANCH  20  21
ENDBRANCH  19  20
ENDBRANCH  18  19
ENDBRANCH  17  18
ENDBRANCH  16  17
ENDBRANCH  15  16
ENDBRANCH   3  15
TORSDOF 9
