REMARK  4 active torsions:
REMARK  status: ('A' for Active; 'I' for Inactive)
REMARK    1  A    between atoms: C_4  and  C_1 
REMARK    2  A    between atoms: N_7  and  N_2 
REMARK    3  A    between atoms: N_9  and  C_4 
REMARK    4  A    between atoms: C_10  and  N_7 
ROOT
ATOM      1  C   UNL d   1       1.193  -0.172   0.092  0.00  0.00     0.166 C 
ATOM      2  N   UNL d   1       0.556   0.520   1.004  0.00  0.00    -0.288 N 
ATOM      3  HN  UNL d   1      -0.321   0.173   1.393  1.00  0.00     0.188 HD
ATOM      4  C   UNL d   1       2.458   0.344  -0.392  0.00  0.00     0.122 C 
ATOM      5  N   UNL d   1       3.466   0.814  -0.733  0.00  0.00    -0.190 NA
ENDROOT
BRANCH   1   6
ATOM      6  C   UNL d   1       0.556  -1.453  -0.400  0.00  0.00     0.133 C 
ATOM      7  S   UNL d   1       1.293  -2.378  -1.561  0.00  0.00    -0.058 SA
BRANCH   6   8
ATOM      8  N   UNL d   1      -0.657  -1.798   0.138  0.00  0.00    -0.388 N 
ATOM      9  H   UNL d   1      -1.102  -1.202   0.832  0.00  0.00     0.157 HD
ATOM     10  H   UNL d   1      -1.147  -2.623  -0.184  0.00  0.00     0.157 HD
ENDBRANCH   6   8
ENDBRANCH   1   6
BRANCH   2  11
ATOM     11  N   UNL d   1       1.073   1.708   1.429  0.00  0.00    -0.300 N 
ATOM     12  H   UNL d   1       1.993   2.057   1.155  0.00  0.00     0.187 HD
BRANCH  11  13
ATOM     13  C   UNL d   1       0.458   2.449   2.455  0.00  0.00     0.048 A 
ATOM     14  C   UNL d   1      -0.685   2.017   3.136  0.00  0.00     0.031 A 
ATOM     15  C   UNL d   1      -1.264   2.807   4.136  0.00  0.00     0.002 A 
ATOM     16  C   UNL d   1      -0.718   4.050   4.454  0.00  0.00     0.000 A 
ATOM     17  C   UNL d   1       0.400   4.509   3.764  0.00  0.00     0.002 A 
ATOM     18  C   UNL d   1       0.978   3.715   2.771  0.00  0.00     0.031 A 
ENDBRANCH  11  13
ENDBRANCH   2  11
TORSDOF 4
