REMARK  4 active torsions:
REMARK  status: ('A' for Active; 'I' for Inactive)
REMARK    1  A    between atoms: C_5  and  N_1 
REMARK    2  A    between atoms: C_4  and  C_7 
REMARK    3  A    between atoms: O_17  and  C_4 
REMARK    4  A    between atoms: C_18  and  O_17 
ROOT
ATOM      1  C   UNL d   1       1.242   2.185  -1.197  0.00  0.00     0.045 A 
ATOM      2  C   UNL d   1       2.446   4.194  -2.816  0.00  0.00     0.039 A 
ATOM      3  C   UNL d   1       1.879   1.871  -2.411  0.00  0.00     0.031 A 
ATOM      4  C   UNL d   1       1.263   3.535  -0.802  0.00  0.00     0.031 A 
ATOM      5  C   UNL d   1       2.460   2.858  -3.216  0.00  0.00     0.020 A 
ATOM      6  C   UNL d   1       1.845   4.528  -1.601  0.00  0.00     0.020 A 
ENDROOT
BRANCH   1   7
ATOM      7  N   UNL d   1       0.721   1.155  -0.320  0.00  0.00    -0.251 N 
ATOM      8  C   UNL d   1      -0.104   1.506   0.755  0.00  0.00     0.240 C 
ATOM      9  O   UNL d   1      -0.861   2.481   0.775  0.00  0.00    -0.272 OA
ATOM     10  C   UNL d   1       0.010   0.629   1.988  0.00  0.00     0.178 C 
ATOM     11  S   UNL d   1      -0.248  -1.114   1.622  0.00  0.00    -0.150 SA
ATOM     12  C   UNL d   1       0.926  -1.215   0.262  0.00  0.00     0.178 C 
ATOM     13  C   UNL d   1       0.624  -0.161  -0.781  0.00  0.00     0.240 C 
ATOM     14  O   UNL d   1       0.340  -0.497  -1.931  0.00  0.00    -0.272 OA
ENDBRANCH   1   7
BRANCH   2  15
ATOM     15  C   UNL d   1       3.168   5.189  -3.648  0.00  0.00     0.293 C 
ATOM     16  O   UNL d   1       3.779   4.901  -4.666  0.00  0.00    -0.259 OA
BRANCH  15  17
ATOM     17  O   UNL d   1       3.151   6.395  -3.034  0.00  0.00    -0.318 OA
BRANCH  17  18
ATOM     18  C   UNL d   1       4.186   7.301  -3.435  0.00  0.00     0.174 C 
ATOM     19  C   UNL d   1       5.411   7.012  -2.583  0.00  0.00     0.034 C 
ENDBRANCH  17  18
ENDBRANCH  15  17
ENDBRANCH   2  15
TORSDOF 4
