REMARK  6 active torsions:
REMARK  status: ('A' for Active; 'I' for Inactive)
REMARK    1  A    between atoms: O_5  and  N_1 
REMARK    2  A    between atoms: C_6  and  C_3 
REMARK    3  A    between atoms: N_10  and  C_3 
REMARK    4  A    between atoms: C_4  and  O_5 
REMARK    5  A    between atoms: O_11  and  C_4 
REMARK    6  A    between atoms: C_16  and  O_11 
ROOT
ATOM      1  N   UNL d   1       1.048  -0.029   0.053  0.00  0.00    -0.244 N 
ATOM      2  HN  UNL d   1       2.054   0.139   0.071  1.00  0.00     0.196 HD
ATOM      3  C   UNL d   1       0.327  -0.281   1.103  0.00  0.00     0.109 C 
ENDROOT
BRANCH   3   4
ATOM      4  C   UNL d   1       1.032  -0.334   2.421  0.00  0.00     0.004 A 
ATOM      5  C   UNL d   1       2.195   0.423   2.619  0.00  0.00     0.016 A 
ATOM      6  C   UNL d   1       2.864   0.370   3.844  0.00  0.00     0.024 A 
ATOM      7  C   UNL d   1       2.376  -0.447   4.863  0.00  0.00     0.034 A 
ATOM      8  C   UNL d   1       1.222  -1.208   4.670  0.00  0.00     0.024 A 
ATOM      9 CL   UNL d   1       3.207  -0.526   6.367  0.00  0.00    -0.084 Cl
ATOM     10  C   UNL d   1       0.545  -1.150   3.449  0.00  0.00     0.016 A 
ENDBRANCH   3   4
BRANCH   3  11
ATOM     11  N   UNL d   1      -1.033  -0.481   1.074  0.00  0.00    -0.286 NA
ATOM     12  H   UNL d   1      -1.449  -0.188   0.196  0.00  0.00     0.125 HD
ATOM     13  H   UNL d   1      -1.545  -0.130   1.876  0.00  0.00     0.125 HD
ENDBRANCH   3  11
BRANCH   1  14
ATOM     14  O   UNL d   1       0.260  -0.017  -1.116  0.00  0.00    -0.174 OA
BRANCH  14  15
ATOM     15  C   UNL d   1       0.965   0.540  -2.150  0.00  0.00     0.428 C 
ATOM     16  O   UNL d   1       2.112   0.961  -2.126  0.00  0.00    -0.227 OA
BRANCH  15  17
ATOM     17  O   UNL d   1       0.126   0.617  -3.225  0.00  0.00    -0.297 OA
BRANCH  17  18
ATOM     18  C   UNL d   1       0.617   1.396  -4.322  0.00  0.00     0.177 C 
ATOM     19  C   UNL d   1       0.260   2.854  -4.091  0.00  0.00     0.034 C 
ENDBRANCH  17  18
ENDBRANCH  15  17
ENDBRANCH  14  15
ENDBRANCH   1  14
TORSDOF 6
