REMARK  2 active torsions:
REMARK  status: ('A' for Active; 'I' for Inactive)
REMARK    1  A    between atoms: C_2  and  N_1 
REMARK    2  A    between atoms: C_6  and  C_4 
ROOT
ATOM      1  C   UNL d   1      -0.773  -2.453  -0.067  0.00  0.00     0.061 A 
ATOM      2  C   UNL d   1      -0.335  -3.298   0.982  0.00  0.00     0.046 A 
ATOM      3  C   UNL d   1      -0.725  -4.643   1.045  0.00  0.00     0.011 A 
ATOM      4  C   UNL d   1      -1.597  -2.985  -1.075  0.00  0.00     0.061 A 
ATOM      5  C   UNL d   1      -1.544  -5.150   0.030  0.00  0.00     0.017 A 
ATOM      6  C   UNL d   1      -1.972  -4.332  -1.016  0.00  0.00     0.027 A 
ATOM      7 CL   UNL d   1      -2.098  -2.151  -2.505  0.00  0.00    -0.082 Cl
ENDROOT
BRANCH   1   8
ATOM      8  N   UNL d   1      -0.353  -1.087  -0.034  0.00  0.00    -0.331 N 
ATOM      9  C   UNL d   1      -1.043   0.017  -0.494  0.00  0.00     0.096 A 
ATOM     10  C   UNL d   1      -0.289   1.150  -0.287  0.00  0.00     0.019 A 
ATOM     11  C   UNL d   1       0.889   0.751   0.370  0.00  0.00     0.019 A 
ATOM     12  C   UNL d   1       0.817  -0.614   0.537  0.00  0.00     0.096 A 
ENDBRANCH   1   8
BRANCH   3  13
ATOM     13  C   UNL d   1      -0.333  -5.577   2.148  0.00  0.00     0.155 C 
ATOM     14  O   UNL d   1      -0.714  -6.748   2.098  0.00  0.00    -0.293 OA
ATOM     15  C   UNL d   1       0.500  -5.117   3.317  0.00  0.00     0.096 C 
ENDBRANCH   3  13
TORSDOF 2
