REMARK  2 active torsions:
REMARK  status: ('A' for Active; 'I' for Inactive)
REMARK    1  A    between atoms: C_4  and  C_1 
REMARK    2  A    between atoms: O_16  and  C_8 
ROOT
ATOM      1  C   UNL d   1       1.749  -1.472  -0.008  0.00  0.00     0.199 C 
ATOM      2  N   UNL d   1       2.109  -0.161   0.449  0.00  0.00    -0.336 N 
ATOM      3  C   UNL d   1       1.241   0.887   0.280  0.00  0.00     0.255 C 
ATOM      4  N   UNL d   1       0.438  -1.800   0.528  0.00  0.00    -0.267 NA
ATOM      5  C   UNL d   1      -0.189   0.531   0.151  0.00  0.00     0.053 A 
ATOM      6  C   UNL d   1      -0.538  -0.824   0.259  0.00  0.00     0.026 A 
ATOM      7  O   UNL d   1       1.633   2.047   0.246  0.00  0.00    -0.268 OA
ATOM      8  C   UNL d   1      -1.158   1.518  -0.052  0.00  0.00     0.019 A 
ATOM      9  C   UNL d   1      -1.893  -1.166   0.236  0.00  0.00     0.024 A 
ATOM     10  C   UNL d   1      -2.501   1.153  -0.122  0.00  0.00     0.001 A 
ATOM     11  C   UNL d   1      -2.868  -0.185   0.029  0.00  0.00     0.002 A 
ATOM     12  H   UNL d   1       3.082   0.105   0.423  0.00  0.00     0.164 HD
ATOM     13  H   UNL d   1       0.138  -2.735   0.268  0.00  0.00     0.130 HD
ENDROOT
BRANCH   1  14
ATOM     14  C   UNL d   1       2.755  -2.515   0.430  0.00  0.00     0.013 A 
ATOM     15  C   UNL d   1       3.519  -3.354  -0.400  0.00  0.00     0.077 A 
ATOM     16  C   UNL d   1       4.397  -4.286   0.195  0.00  0.00     0.039 A 
ATOM     17  C   UNL d   1       4.532  -4.410   1.577  0.00  0.00     0.022 A 
ATOM     18  C   UNL d   1       3.784  -3.589   2.399  0.00  0.00     0.011 A 
ATOM     19  C   UNL d   1       2.915  -2.657   1.839  0.00  0.00     0.032 A 
ATOM     20 BR   UNL d   1       3.935  -3.737   4.276  0.00  0.00    -0.051 Br
BRANCH  15  21
ATOM     21  O   UNL d   1       3.594  -3.470  -1.757  0.00  0.00    -0.355 OA
ATOM     22  C   UNL d   1       2.842  -2.679  -2.651  0.00  0.00     0.210 C 
ENDBRANCH  15  21
ENDBRANCH   1  14
TORSDOF 2
