REMARK  5 active torsions:
REMARK  status: ('A' for Active; 'I' for Inactive)
REMARK    1  A    between atoms: C_2  and  N_1 
REMARK    2  A    between atoms: N_3  and  C_7 
REMARK    3  A    between atoms: C_6  and  C_5 
REMARK    4  A    between atoms: O_15  and  C_8 
REMARK    5  A    between atoms: O_16  and  C_10 
ROOT
ATOM      1  C   UNL d   1       0.292  -0.916  -0.768  0.00  0.00     0.116 A 
ATOM      2  C   UNL d   1       0.733  -2.241  -0.606  0.00  0.00     0.076 A 
ATOM      3  C   UNL d   1      -0.743  -0.565  -1.648  0.00  0.00     0.001 A 
ATOM      4  C   UNL d   1       0.130  -3.280  -1.319  0.00  0.00     0.103 A 
ATOM      5  C   UNL d   1      -1.328  -1.625  -2.361  0.00  0.00     0.053 A 
ATOM      6  C   UNL d   1      -0.917  -2.966  -2.203  0.00  0.00     0.102 A 
ENDROOT
BRANCH   3   7
ATOM      7  C   UNL d   1      -1.157   0.831  -1.916  0.00  0.00     0.037 C 
ATOM      8  C   UNL d   1      -2.401   1.180  -2.285  0.00  0.00     0.168 C 
BRANCH   8   9
ATOM      9  N   UNL d   1      -2.719   2.560  -2.562  0.00  0.00    -0.127 N 
ATOM     10  O   UNL d   1      -1.823   3.411  -2.473  0.00  0.00    -0.532 OA
ATOM     11  O   UNL d   1      -3.889   2.787  -2.892  0.00  0.00    -0.532 OA
ENDBRANCH   8   9
ENDBRANCH   3   7
BRANCH   1  12
ATOM     12  N   UNL d   1       0.933   0.081   0.072  0.00  0.00    -0.115 N 
ATOM     13  O   UNL d   1       2.166   0.170  -0.003  0.00  0.00    -0.532 OA
ATOM     14  O   UNL d   1       0.207   0.726   0.838  0.00  0.00    -0.532 OA
ENDBRANCH   1  12
BRANCH   6  15
ATOM     15  O   UNL d   1      -1.646  -3.813  -2.998  0.00  0.00    -0.353 OA
ATOM     16  C   UNL d   1      -1.373  -5.206  -2.959  0.00  0.00     0.210 C 
ENDBRANCH   6  15
BRANCH   4  17
ATOM     17  O   UNL d   1       0.511  -4.586  -1.191  0.00  0.00    -0.353 OA
ATOM     18  C   UNL d   1       1.581  -4.903  -0.309  0.00  0.00     0.210 C 
ENDBRANCH   4  17
TORSDOF 5
