REMARK  5 active torsions:
REMARK  status: ('A' for Active; 'I' for Inactive)
REMARK    1  A    between atoms: N_2  and  C_1 
REMARK    2  A    between atoms: C_3  and  C_8 
REMARK    3  A    between atoms: C_5  and  C_3 
REMARK    4  A    between atoms: C_20  and  N_10 
REMARK    5  A    between atoms: C_15  and  C_20 
ROOT
ATOM      1  N   UNL d   1       0.124   0.773   0.433  0.00  0.00    -0.358 N 
ATOM      2  C   UNL d   1       0.490   2.166   0.690  0.00  0.00     0.126 C 
ATOM      3  C   UNL d   1      -0.912   0.220   1.295  0.00  0.00     0.126 C 
ATOM      4  C   UNL d   1      -1.864   2.543   1.660  0.00  0.00     0.064 C 
ATOM      5  C   UNL d   1      -2.164   1.088   1.276  0.00  0.00     0.032 C 
ATOM      6  C   UNL d   1      -0.726   3.090   0.778  0.00  0.00     0.032 C 
ENDROOT
BRANCH   4   7
ATOM      7  C   UNL d   1      -1.564   2.698   3.155  0.00  0.00     0.163 C 
ATOM      8  O   UNL d   1      -0.415   2.872   3.566  0.00  0.00    -0.292 OA
BRANCH   7   9
ATOM      9  C   UNL d   1      -2.680   2.627   4.158  0.00  0.00     0.010 A 
ATOM     10  C   UNL d   1      -4.003   2.334   3.805  0.00  0.00     0.015 A 
ATOM     11  C   UNL d   1      -4.989   2.209   4.789  0.00  0.00     0.007 A 
ATOM     12  C   UNL d   1      -4.682   2.406   6.139  0.00  0.00    -0.062 A 
ATOM     13  C   UNL d   1      -3.370   2.736   6.492  0.00  0.00     0.007 A 
ATOM     14  C   UNL d   1      -5.746   2.231   7.182  0.00  0.00     0.048 C 
ATOM     15  C   UNL d   1      -2.378   2.843   5.511  0.00  0.00     0.015 A 
ENDBRANCH   7   9
ENDBRANCH   4   7
BRANCH   1  16
ATOM     16  C   UNL d   1       1.011  -0.054  -0.221  0.00  0.00     0.170 C 
ATOM     17  S   UNL d   1       1.467   0.160  -1.815  0.00  0.00    -0.041 SA
ATOM     18  N   UNL d   1       1.506  -1.134   0.452  0.00  0.00    -0.364 N 
ATOM     19  H   UNL d   1       2.069  -1.731  -0.141  0.00  0.00     0.162 HD
BRANCH  18  20
ATOM     20  C   UNL d   1       1.889  -1.105   1.849  0.00  0.00     0.148 C 
BRANCH  20  21
ATOM     21  C   UNL d   1       3.130  -1.928   2.007  0.00  0.00    -0.018 C 
ATOM     22  C   UNL d   1       3.218  -3.037   2.751  0.00  0.00     0.008 C 
ENDBRANCH  20  21
ENDBRANCH  18  20
ENDBRANCH   1  16
TORSDOF 5
