REMARK  2 active torsions:
REMARK  status: ('A' for Active; 'I' for Inactive)
REMARK       I    between atoms: N_2  and  C_1 
REMARK       I    between atoms: N_4  and  C_1 
REMARK    1  A    between atoms: C_7  and  N_4 
REMARK    2  A    between atoms: C_6  and  N_5 
ROOT
ATOM      1  C   UNL d   1       1.190  -0.045  -0.158  0.00  0.00     0.323 C 
ATOM      2  N   UNL d   1       0.626   0.762  -1.148  0.00  0.00    -0.331 N 
ATOM      3  N   UNL d   1       0.850   0.310   1.125  0.00  0.00    -0.306 N 
ATOM      4  N   UNL d   1      -0.664   1.952  -3.416  0.00  0.00    -0.377 N 
ATOM      5  O   UNL d   1       1.970  -0.951  -0.440  0.00  0.00    -0.247 OA
ATOM      6  C   UNL d   1       1.044   0.449  -2.524  0.00  0.00     0.147 C 
ATOM      7  C   UNL d   1      -0.730   1.341  -1.032  0.00  0.00     0.147 C 
ATOM      8  C   UNL d   1       0.771   1.601  -3.505  0.00  0.00     0.143 C 
ATOM      9  C   UNL d   1      -1.014   2.447  -2.073  0.00  0.00     0.143 C 
ATOM     10  H   UNL d   1       0.481   1.242   1.246  0.00  0.00     0.171 HD
ENDROOT
BRANCH   3  11
ATOM     11  C   UNL d   1       1.306  -0.296   2.318  0.00  0.00     0.078 A 
ATOM     12  C   UNL d   1       1.924  -1.545   2.381  0.00  0.00     0.075 A 
ATOM     13  C   UNL d   1       2.385  -2.023   3.607  0.00  0.00     0.118 A 
ATOM     14  F   UNL d   1       2.993  -3.216   3.661  0.00  0.00    -0.206 F 
ATOM     15  C   UNL d   1       2.235  -1.287   4.779  0.00  0.00     0.045 A 
ATOM     16  C   UNL d   1       1.595  -0.051   4.730  0.00  0.00     0.047 A 
ATOM     17  C   UNL d   1       1.132   0.428   3.507  0.00  0.00     0.143 A 
ATOM     18  F   UNL d   1       0.526   1.626   3.466  0.00  0.00    -0.204 F 
ENDBRANCH   3  11
BRANCH   4  19
ATOM     19  C   UNL d   1      -1.220   2.549  -4.555  0.00  0.00     0.044 A 
ATOM     20  C   UNL d   1      -1.407   1.798  -5.757  0.00  0.00     0.017 A 
ATOM     21  C   UNL d   1      -1.975   2.452  -6.874  0.00  0.00     0.046 A 
ATOM     22  C   UNL d   1      -1.086   0.422  -5.882  0.00  0.00     0.018 A 
ATOM     23  C   UNL d   1      -2.158   1.749  -8.056  0.00  0.00     0.054 A 
ATOM     24  N   UNL d   1      -2.368   3.733  -6.843  0.00  0.00    -0.365 N 
ATOM     25  C   UNL d   1      -1.798   0.408  -8.167  0.00  0.00     0.036 A 
ATOM     26  C   UNL d   1      -1.264  -0.266  -7.082  0.00  0.00     0.025 A 
ATOM     27 CL   UNL d   1      -2.030  -0.425  -9.655  0.00  0.00    -0.084 Cl
ATOM     28  C   UNL d   1      -2.208   4.414  -5.693  0.00  0.00     0.090 A 
ATOM     29  HN  UNL d   1      -2.775   4.178  -7.666  1.00  0.00     0.165 HD
ATOM     30  C   UNL d   1      -1.649   3.878  -4.548  0.00  0.00     0.047 A 
ENDBRANCH   4  19
TORSDOF 2
