REMARK  3 active torsions:
REMARK  status: ('A' for Active; 'I' for Inactive)
REMARK    1  A    between atoms: N_2  and  C_1 
REMARK    2  A    between atoms: N_3  and  C_6 
REMARK    3  A    between atoms: N_7  and  C_4 
ROOT
ATOM      1  C   UNL d   1       0.914  -0.117  -0.705  0.00  0.00     0.131 A 
ATOM      2  C   UNL d   1       0.597  -1.304  -0.004  0.00  0.00     0.063 A 
ATOM      3  C   UNL d   1       0.336   1.131  -0.408  0.00  0.00     0.074 A 
ATOM      4  C   UNL d   1      -0.577   1.219   0.641  0.00  0.00     0.105 A 
ATOM      5  C   UNL d   1      -0.302  -1.147   1.074  0.00  0.00     0.034 A 
ATOM      6  C   UNL d   1      -0.886   0.088   1.398  0.00  0.00     0.038 A 
ENDROOT
BRANCH   2   7
ATOM      7  N   UNL d   1       1.017  -2.600  -0.319  0.00  0.00    -0.379 N 
ATOM      8  C   UNL d   1       1.138  -3.018  -1.718  0.00  0.00     0.123 C 
ATOM      9  C   UNL d   1       0.152  -4.142  -2.021  0.00  0.00     0.020 C 
ATOM     10  C   UNL d   1       0.640  -5.521  -1.604  0.00  0.00     0.002 C 
ATOM     11  C   UNL d   1       0.931  -5.664  -0.113  0.00  0.00     0.002 C 
ATOM     12  C   UNL d   1       2.095  -4.795   0.362  0.00  0.00     0.020 C 
ATOM     13  C   UNL d   1       1.702  -3.363   0.739  0.00  0.00     0.123 C 
ENDBRANCH   2   7
BRANCH   1  14
ATOM     14  N   UNL d   1       1.916  -0.095  -1.756  0.00  0.00    -0.113 N 
ATOM     15  O   UNL d   1       3.064  -0.454  -1.466  0.00  0.00    -0.532 OA
ATOM     16  O   UNL d   1       1.551   0.324  -2.865  0.00  0.00    -0.532 OA
ENDBRANCH   1  14
BRANCH   4  17
ATOM     17  N   UNL d   1      -1.217   2.504   0.940  0.00  0.00    -0.116 N 
ATOM     18  O   UNL d   1      -0.914   3.475   0.234  0.00  0.00    -0.532 OA
ATOM     19  O   UNL d   1      -2.028   2.539   1.879  0.00  0.00    -0.532 OA
ENDBRANCH   4  17
TORSDOF 3
