REMARK  4 active torsions:
REMARK  status: ('A' for Active; 'I' for Inactive)
REMARK    1  A    between atoms: C_7  and  C_1 
REMARK    2  A    between atoms: O_15  and  C_7 
REMARK    3  A    between atoms: N_8  and  N_10 
REMARK    4  A    between atoms: C_11  and  C_14 
ROOT
ATOM      1  C   UNL d   1      -0.867  -0.356   0.331  0.00  0.00     0.107 A 
ATOM      2  C   UNL d   1      -1.185   0.982   0.201  0.00  0.00     0.153 A 
ATOM      3  N   UNL d   1       1.078   0.852   0.110  0.00  0.00    -0.302 N 
ATOM      4  HN  UNL d   1       2.061   1.120   0.056  1.00  0.00     0.186 HD
ATOM      5  N   UNL d   1      -0.001   1.647   0.076  0.00  0.00    -0.283 N 
ATOM      6  C   UNL d   1       0.561  -0.379   0.232  0.00  0.00     0.042 A 
ATOM      7  N   UNL d   1      -2.351   1.666   0.197  0.00  0.00    -0.284 N 
ATOM      8  C   UNL d   1       1.491  -1.537   0.228  0.00  0.00     0.071 C 
ATOM      9  H   UNL d   1       0.104   2.649  -0.033  0.00  0.00     0.188 HD
ATOM     10  H   UNL d   1      -3.232   1.140   0.227  0.00  0.00     0.188 HD
ENDROOT
BRANCH   1  11
ATOM     11  C   UNL d   1      -1.842  -1.417   0.493  0.00  0.00     0.182 C 
ATOM     12  O   UNL d   1      -3.013  -1.310   0.156  0.00  0.00    -0.646 OA
BRANCH  11  13
ATOM     13  O   UNL d   1      -1.386  -2.542   1.099  0.00  0.00    -0.772 OA
ATOM     14  H   UNL d   1      -0.509  -2.426   1.504  0.00  0.00     0.167 HD
ENDBRANCH  11  13
ENDBRANCH   1  11
BRANCH   7  15
ATOM     15  N   UNL d   1      -2.362   3.007  -0.004  0.00  0.00    -0.309 N 
ATOM     16  C   UNL d   1      -3.482   3.612   0.240  0.00  0.00     0.120 C 
ATOM     17  HN  UNL d   1      -1.537   3.511  -0.329  1.00  0.00     0.186 HD
BRANCH  16  18
ATOM     18  C   UNL d   1      -3.590   5.077   0.060  0.00  0.00     0.002 A 
ATOM     19  C   UNL d   1      -4.635   5.819   0.620  0.00  0.00     0.045 A 
ATOM     20 CL   UNL d   1      -5.894   5.104   1.561  0.00  0.00    -0.083 Cl
ATOM     21  C   UNL d   1      -4.669   7.209   0.447  0.00  0.00     0.024 A 
ATOM     22  C   UNL d   1      -3.672   7.855  -0.287  0.00  0.00     0.002 A 
ATOM     23  C   UNL d   1      -2.637   7.118  -0.855  0.00  0.00     0.001 A 
ATOM     24  C   UNL d   1      -2.594   5.734  -0.681  0.00  0.00     0.014 A 
ENDBRANCH  16  18
ENDBRANCH   7  15
TORSDOF 4
