REMARK  4 active torsions:
REMARK  status: ('A' for Active; 'I' for Inactive)
REMARK    1  A    between atoms: C_9  and  C_6 
REMARK    2  A    between atoms: C_14  and  C_22 
REMARK    3  A    between atoms: O_21  and  C_17 
REMARK    4  A    between atoms: C_22  and  O_21 
ROOT
ATOM      1  N   UNL d   1      -1.688   1.504  -0.220  0.00  0.00    -0.305 N 
ATOM      2  HN  UNL d   1      -1.386   2.396  -0.612  1.00  0.00     0.186 HD
ATOM      3  C   UNL d   1      -0.953   0.478   0.078  0.00  0.00     0.043 C 
ATOM      4  N   UNL d   1      -2.950   1.125   0.105  0.00  0.00    -0.322 N 
ATOM      5  C   UNL d   1      -1.695  -0.696   0.659  0.00  0.00     0.067 C 
ATOM      6  C   UNL d   1      -3.127  -0.339   0.229  0.00  0.00     0.144 C 
ATOM      7  C   UNL d   1       0.503   0.401  -0.034  0.00  0.00    -0.005 A 
ATOM      8  C   UNL d   1      -1.095  -2.066   0.361  0.00  0.00     0.018 C 
ATOM      9  C   UNL d   1       1.063  -0.867  -0.233  0.00  0.00    -0.046 A 
ATOM     10  C   UNL d   1       0.161  -2.041  -0.518  0.00  0.00     0.040 C 
ATOM     11  C   UNL d   1      -4.093   1.904  -0.329  0.00  0.00     0.171 C 
ATOM     12  C   UNL d   1       1.294   1.539   0.119  0.00  0.00     0.014 A 
ATOM     13  C   UNL d   1       2.456  -0.983  -0.262  0.00  0.00     0.008 A 
ATOM     14  C   UNL d   1       2.681   1.406   0.104  0.00  0.00     0.001 A 
ATOM     15  C   UNL d   1       3.260   0.147  -0.077  0.00  0.00     0.001 A 
ENDROOT
BRANCH   6  16
ATOM     16  C   UNL d   1      -3.693  -1.000  -1.019  0.00  0.00    -0.033 A 
ATOM     17  C   UNL d   1      -3.028  -0.983  -2.253  0.00  0.00     0.012 A 
ATOM     18  C   UNL d   1      -3.643  -1.481  -3.406  0.00  0.00     0.037 A 
ATOM     19  C   UNL d   1      -4.950  -1.967  -3.356  0.00  0.00     0.069 A 
ATOM     20  C   UNL d   1      -5.595  -2.059  -2.125  0.00  0.00     0.037 A 
ATOM     21  C   UNL d   1      -4.975  -1.577  -0.967  0.00  0.00     0.012 A 
BRANCH  19  22
ATOM     22  O   UNL d   1      -5.683  -2.354  -4.447  0.00  0.00    -0.348 OA
BRANCH  22  23
ATOM     23  C   UNL d   1      -5.319  -1.709  -5.670  0.00  0.00     0.202 C 
BRANCH  23  24
ATOM     24  C   UNL d   1      -6.514  -1.686  -6.576  0.00  0.00    -0.011 C 
ATOM     25  C   UNL d   1      -7.053  -0.560  -7.074  0.00  0.00     0.009 C 
ENDBRANCH  23  24
ENDBRANCH  22  23
ENDBRANCH  19  22
ENDBRANCH   6  16
TORSDOF 4
