REMARK  3 active torsions:
REMARK  status: ('A' for Active; 'I' for Inactive)
REMARK    1  A    between atoms: C_2  and  C_1 
REMARK       I    between atoms: N_3  and  C_2 
REMARK    2  A    between atoms: C_4  and  N_3 
REMARK    3  A    between atoms: O_19  and  C_13 
ROOT
ATOM      1  C   UNL d   1       0.422  -2.515  -0.443  0.00  0.00     0.257 C 
ATOM      2  N   UNL d   1       0.957  -3.631   0.160  0.00  0.00    -0.321 N 
ATOM      3  O   UNL d   1      -0.582  -2.559  -1.155  0.00  0.00    -0.267 OA
ATOM      4  H   UNL d   1       1.548  -3.494   0.974  0.00  0.00     0.169 HD
ENDROOT
BRANCH   1   5
ATOM      5  C   UNL d   1       1.090  -1.184  -0.222  0.00  0.00     0.052 A 
ATOM      6  C   UNL d   1       2.195  -0.905   0.600  0.00  0.00     0.026 A 
ATOM      7  C   UNL d   1       2.752   0.384   0.605  0.00  0.00     0.023 A 
ATOM      8 BR   UNL d   1       3.041  -2.131   1.777  0.00  0.00    -0.050 Br
ATOM      9  C   UNL d   1       2.226   1.399  -0.193  0.00  0.00     0.038 A 
ATOM     10  C   UNL d   1       1.127   1.141  -1.010  0.00  0.00     0.069 A 
ATOM     11  C   UNL d   1       0.556  -0.130  -1.001  0.00  0.00     0.055 A 
BRANCH  10  12
ATOM     12  O   UNL d   1       0.694   2.202  -1.751  0.00  0.00    -0.356 OA
ATOM     13  C   UNL d   1      -0.044   1.879  -2.925  0.00  0.00     0.210 C 
ENDBRANCH  10  12
ENDBRANCH   1   5
BRANCH   2  14
ATOM     14  C   UNL d   1       0.597  -4.971  -0.115  0.00  0.00     0.057 A 
ATOM     15  C   UNL d   1       0.757  -5.946   0.883  0.00  0.00     0.062 A 
ATOM     16  C   UNL d   1       0.461  -7.286   0.628  0.00  0.00     0.044 A 
ATOM     17 CL   UNL d   1       1.267  -5.514   2.479  0.00  0.00    -0.082 Cl
ATOM     18  C   UNL d   1       0.042  -7.667  -0.645  0.00  0.00     0.008 A 
ATOM     19  C   UNL d   1      -0.113  -6.714  -1.651  0.00  0.00     0.020 A 
ATOM     20  I   UNL d   1      -0.334  -9.670  -1.049  0.00  0.00    -0.045 I 
ATOM     21  C   UNL d   1       0.151  -5.367  -1.381  0.00  0.00     0.032 A 
ENDBRANCH   2  14
TORSDOF 3
