REMARK  1 active torsions:
REMARK  status: ('A' for Active; 'I' for Inactive)
REMARK    1  A    between atoms: N_8  and  N_4 
ROOT
ATOM      1  C   UNL d   1       1.793   0.046  -0.088  0.00  0.00     0.166 C 
ATOM      2  N   UNL d   1       0.848   0.967  -0.535  0.00  0.00    -0.329 N 
ATOM      3  S   UNL d   1       1.007  -1.551   0.169  0.00  0.00    -0.050 SA
ATOM      4  N   UNL d   1       3.050   0.138   0.208  0.00  0.00    -0.280 N 
ATOM      5  HN  UNL d   1       3.619  -0.661   0.485  1.00  0.00     0.189 HD
ATOM      6  C   UNL d   1      -0.478   0.543  -0.377  0.00  0.00     0.053 A 
ATOM      7  C   UNL d   1      -0.602  -0.810  -0.022  0.00  0.00     0.035 A 
ATOM      8  C   UNL d   1       1.151   2.232  -1.160  0.00  0.00     0.158 C 
ATOM      9  C   UNL d   1      -1.627   1.321  -0.481  0.00  0.00     0.031 A 
ATOM     10  C   UNL d   1      -1.836  -1.410   0.181  0.00  0.00     0.021 A 
ATOM     11  C   UNL d   1      -2.877   0.738  -0.246  0.00  0.00     0.002 A 
ATOM     12  C   UNL d   1      -2.982  -0.623   0.069  0.00  0.00     0.002 A 
ENDROOT
BRANCH   4  13
ATOM     13  N   UNL d   1       3.550   1.433   0.112  0.00  0.00    -0.307 N 
ATOM     14  C   UNL d   1       4.676   1.651   0.716  0.00  0.00     0.004 C 
ATOM     15  C   UNL d   1       5.513   0.638   1.468  0.00  0.00     0.054 C 
ATOM     16  C   UNL d   1       5.241   3.052   0.633  0.00  0.00     0.054 C 
ATOM     17  C   UNL d   1       5.893   1.187   2.844  0.00  0.00     0.006 C 
ATOM     18  C   UNL d   1       6.448   2.612   2.795  0.00  0.00     0.001 C 
ATOM     19  C   UNL d   1       5.520   3.561   2.040  0.00  0.00     0.006 C 
ATOM     20  HN  UNL d   1       3.061   2.166  -0.402  1.00  0.00     0.186 HD
ENDBRANCH   4  13
TORSDOF 1
