REMARK  8 active torsions:
REMARK  status: ('A' for Active; 'I' for Inactive)
REMARK    1  A    between atoms: O_3  and  C_1 
REMARK       I    between atoms: N_5  and  C_1 
REMARK       I    between atoms: C_2  and  N_6 
REMARK    2  A    between atoms: O_4  and  C_2 
REMARK    3  A    between atoms: C_7  and  O_3 
REMARK    4  A    between atoms: C_8  and  O_4 
REMARK    5  A    between atoms: C_13  and  N_5 
REMARK    6  A    between atoms: N_6  and  C_14 
REMARK    7  A    between atoms: C_15  and  C_17 
REMARK    8  A    between atoms: C_17  and  C_16 
ROOT
ATOM      1  C   UNL d   1      -5.556   0.248  -1.362  0.00  0.00     0.077 C 
ENDROOT
BRANCH   1   2
ATOM      2  C   UNL d   1      -6.273   1.574  -1.369  0.00  0.00    -0.054 A 
ATOM      3  C   UNL d   1      -6.794   2.123  -2.546  0.00  0.00     0.010 A 
ATOM      4  C   UNL d   1      -7.665   3.220  -2.489  0.00  0.00     0.030 A 
ATOM      5  C   UNL d   1      -8.015   3.791  -1.259  0.00  0.00     0.036 A 
ATOM      6  C   UNL d   1      -7.391   3.307  -0.107  0.00  0.00     0.030 A 
ATOM      7  C   UNL d   1      -6.530   2.213  -0.159  0.00  0.00     0.010 A 
BRANCH   5   8
ATOM      8  N   UNL d   1      -9.064   4.737  -1.253  0.00  0.00    -0.302 N 
ATOM      9  C   UNL d   1      -9.678   5.352  -0.181  0.00  0.00     0.370 C 
ATOM     10  O   UNL d   1     -10.812   5.804  -0.269  0.00  0.00    -0.238 OA
ATOM     11  H   UNL d   1      -9.608   4.820  -2.103  0.00  0.00     0.171 HD
BRANCH   9  12
ATOM     12  O   UNL d   1      -8.874   5.441   0.948  0.00  0.00    -0.261 OA
BRANCH  12  13
ATOM     13  C   UNL d   1      -9.336   5.305   2.282  0.00  0.00     0.086 A 
ATOM     14  C   UNL d   1      -8.418   5.645   3.291  0.00  0.00    -0.028 A 
ATOM     15  C   UNL d   1      -7.088   6.273   2.988  0.00  0.00     0.051 C 
ATOM     16  C   UNL d   1      -8.723   5.303   4.615  0.00  0.00     0.009 A 
ATOM     17  C   UNL d   1      -9.921   4.656   4.923  0.00  0.00     0.001 A 
ATOM     18  C   UNL d   1     -10.830   4.348   3.912  0.00  0.00     0.003 A 
ATOM     19  C   UNL d   1     -10.539   4.666   2.585  0.00  0.00     0.038 A 
ENDBRANCH  12  13
ENDBRANCH   9  12
ENDBRANCH   5   8
ENDBRANCH   1   2
BRANCH   1  20
ATOM     20  C   UNL d   1      -4.075   0.238  -1.631  0.00  0.00    -0.054 A 
ATOM     21  C   UNL d   1      -3.184   1.233  -1.218  0.00  0.00     0.010 A 
ATOM     22  C   UNL d   1      -1.820   1.142  -1.543  0.00  0.00     0.030 A 
ATOM     23  C   UNL d   1      -1.323   0.050  -2.269  0.00  0.00     0.036 A 
ATOM     24  C   UNL d   1      -2.199  -0.987  -2.568  0.00  0.00     0.030 A 
ATOM     25  C   UNL d   1      -3.553  -0.893  -2.264  0.00  0.00     0.010 A 
BRANCH  23  26
ATOM     26  N   UNL d   1       0.033   0.070  -2.651  0.00  0.00    -0.302 N 
ATOM     27  C   UNL d   1       0.770  -0.802  -3.425  0.00  0.00     0.370 C 
ATOM     28  O   UNL d   1       1.976  -0.624  -3.587  0.00  0.00    -0.238 OA
ATOM     29  H   UNL d   1       0.594   0.847  -2.326  0.00  0.00     0.171 HD
BRANCH  27  30
ATOM     30  O   UNL d   1       0.064  -1.836  -4.030  0.00  0.00    -0.261 OA
BRANCH  30  31
ATOM     31  C   UNL d   1       0.413  -3.195  -3.815  0.00  0.00     0.086 A 
ATOM     32  C   UNL d   1      -0.385  -4.165  -4.449  0.00  0.00    -0.028 A 
ATOM     33  C   UNL d   1      -1.434  -3.826  -5.470  0.00  0.00     0.051 C 
ATOM     34  C   UNL d   1      -0.234  -5.510  -4.073  0.00  0.00     0.009 A 
ATOM     35  C   UNL d   1       0.717  -5.880  -3.122  0.00  0.00     0.001 A 
ATOM     36  C   UNL d   1       1.542  -4.915  -2.549  0.00  0.00     0.003 A 
ATOM     37  C   UNL d   1       1.389  -3.571  -2.888  0.00  0.00     0.038 A 
ENDBRANCH  30  31
ENDBRANCH  27  30
ENDBRANCH  23  26
ENDBRANCH   1  20
TORSDOF 8
