REMARK  7 active torsions:
REMARK  status: ('A' for Active; 'I' for Inactive)
REMARK    1  A    between atoms: N_2  and  S_1 
REMARK    2  A    between atoms: C_4  and  S_1 
REMARK    3  A    between atoms: N_3  and  C_7 
REMARK    4  A    between atoms: C_21  and  C_20 
REMARK    5  A    between atoms: C_22  and  C_21 
REMARK    6  A    between atoms: C_24  and  C_22 
REMARK    7  A    between atoms: C_23  and  C_24 
ROOT
ATOM      1  S   UNL d   1       0.845   0.017  -0.061  0.00  0.00     0.243 S 
ATOM      2  O   UNL d   1       0.094   0.867  -0.958  0.00  0.00    -0.206 OA
ATOM      3  O   UNL d   1       2.293   0.072  -0.015  0.00  0.00    -0.206 OA
ENDROOT
BRANCH   1   4
ATOM      4  N   UNL d   1       0.388  -1.613  -0.379  0.00  0.00    -0.206 NA
ATOM      5  C   UNL d   1       1.188  -2.621   0.353  0.00  0.00     0.109 C 
ATOM      6  C   UNL d   1       0.813  -4.051  -0.035  0.00  0.00     0.041 C 
ATOM      7  C   UNL d   1      -0.699  -4.309   0.000  0.00  0.00     0.091 C 
ATOM      8  C   UNL d   1      -1.383  -3.260  -0.889  0.00  0.00     0.041 C 
ATOM      9  C   UNL d   1      -1.077  -1.852  -0.397  0.00  0.00     0.109 C 
BRANCH   7  10
ATOM     10  N   UNL d   1      -1.301  -4.377   1.333  0.00  0.00    -0.362 N 
ATOM     11  C   UNL d   1      -0.690  -4.195   2.545  0.00  0.00     0.091 A 
ATOM     12  C   UNL d   1      -1.646  -4.265   3.531  0.00  0.00     0.019 A 
ATOM     13  C   UNL d   1      -2.875  -4.566   2.909  0.00  0.00     0.019 A 
ATOM     14  C   UNL d   1      -2.630  -4.668   1.557  0.00  0.00     0.091 A 
ENDBRANCH   7  10
ENDBRANCH   1   4
BRANCH   1  15
ATOM     15  C   UNL d   1       0.244   0.323   1.595  0.00  0.00     0.074 A 
ATOM     16  C   UNL d   1       1.056   0.056   2.700  0.00  0.00     0.025 A 
ATOM     17  C   UNL d   1       0.617   0.401   3.982  0.00  0.00     0.009 A 
ATOM     18  C   UNL d   1      -0.626   1.022   4.167  0.00  0.00    -0.058 A 
ATOM     19  C   UNL d   1      -1.431   1.285   3.048  0.00  0.00     0.009 A 
ATOM     20  C   UNL d   1      -0.999   0.941   1.766  0.00  0.00     0.025 A 
BRANCH  18  21
ATOM     21  C   UNL d   1      -1.083   1.421   5.551  0.00  0.00     0.038 C 
BRANCH  21  22
ATOM     22  C   UNL d   1      -2.369   0.724   6.006  0.00  0.00     0.005 C 
BRANCH  22  23
ATOM     23  C   UNL d   1      -2.239  -0.800   6.075  0.00  0.00    -0.000 C 
BRANCH  23  24
ATOM     24  C   UNL d   1      -3.551  -1.431   6.538  0.00  0.00    -0.005 C 
ATOM     25  C   UNL d   1      -3.458  -2.943   6.613  0.00  0.00     0.005 C 
ENDBRANCH  23  24
ENDBRANCH  22  23
ENDBRANCH  21  22
ENDBRANCH  18  21
ENDBRANCH   1  15
TORSDOF 7
