REMARK  5 active torsions:
REMARK  status: ('A' for Active; 'I' for Inactive)
REMARK    1  A    between atoms: C_11  and  C_1 
REMARK    2  A    between atoms: C_14  and  N_6 
REMARK    3  A    between atoms: C_8  and  C_14 
REMARK    4  A    between atoms: C_9  and  C_12 
REMARK    5  A    between atoms: C_10  and  C_13 
ROOT
ATOM      1  C   UNL d   1      -0.116  -1.293   0.019  0.00  0.00     0.144 A 
ATOM      2  N   UNL d   1       1.081  -0.798   0.373  0.00  0.00    -0.268 N 
ATOM      3  HN  UNL d   1       1.887  -1.269   0.782  1.00  0.00     0.190 HD
ATOM      4  N   UNL d   1      -0.962  -0.330  -0.480  0.00  0.00    -0.266 N 
ATOM      5  HN  UNL d   1      -1.921  -0.468  -0.800  1.00  0.00     0.186 HD
ATOM      6  N   UNL d   1       0.919   0.500   0.034  0.00  0.00    -0.212 N 
ATOM      7  N   UNL d   1      -0.289   0.813  -0.464  0.00  0.00    -0.002 NA
ENDROOT
BRANCH   1   8
ATOM      8  C   UNL d   1      -0.466  -2.701   0.086  0.00  0.00     0.012 A 
ATOM      9  C   UNL d   1       0.116  -3.534   1.054  0.00  0.00     0.031 A 
ATOM     10  C   UNL d   1      -0.193  -4.900   1.111  0.00  0.00     0.049 A 
ATOM     11  C   UNL d   1      -1.084  -5.433   0.166  0.00  0.00     0.032 A 
ATOM     12  C   UNL d   1      -1.681  -4.618  -0.813  0.00  0.00     0.049 A 
ATOM     13  C   UNL d   1      -1.372  -3.248  -0.832  0.00  0.00     0.031 A 
BRANCH  10  14
ATOM     14  C   UNL d   1       0.418  -5.789   2.169  0.00  0.00     0.417 C 
ATOM     15  F   UNL d   1       1.233  -5.129   3.037  0.00  0.00    -0.166 F 
ATOM     16  F   UNL d   1      -0.528  -6.398   2.937  0.00  0.00    -0.166 F 
ATOM     17  F   UNL d   1       1.169  -6.792   1.636  0.00  0.00    -0.166 F 
ENDBRANCH  10  14
BRANCH  12  18
ATOM     18  C   UNL d   1      -2.631  -5.220  -1.821  0.00  0.00     0.417 C 
ATOM     19  F   UNL d   1      -3.146  -4.313  -2.697  0.00  0.00    -0.166 F 
ATOM     20  F   UNL d   1      -2.036  -6.179  -2.583  0.00  0.00    -0.166 F 
ATOM     21  F   UNL d   1      -3.700  -5.821  -1.231  0.00  0.00    -0.166 F 
ENDBRANCH  12  18
ENDBRANCH   1   8
BRANCH   6  22
ATOM     22  C   UNL d   1       2.033   1.429  -0.013  0.00  0.00     0.210 C 
BRANCH  22  23
ATOM     23  C   UNL d   1       2.249   2.099   1.314  0.00  0.00     0.023 A 
ATOM     24  C   UNL d   1       3.121   1.509   2.236  0.00  0.00     0.126 A 
ATOM     25  F   UNL d   1       3.798   0.403   1.894  0.00  0.00    -0.205 F 
ATOM     26  C   UNL d   1       3.321   2.041   3.507  0.00  0.00     0.043 A 
ATOM     27  C   UNL d   1       2.640   3.193   3.884  0.00  0.00     0.005 A 
ATOM     28  C   UNL d   1       1.778   3.812   2.978  0.00  0.00     0.024 A 
ATOM     29  C   UNL d   1       1.584   3.270   1.702  0.00  0.00     0.045 A 
ATOM     30 CL   UNL d   1       0.518   4.110   0.636  0.00  0.00    -0.084 Cl
ENDBRANCH  22  23
ENDBRANCH   6  22
TORSDOF 5
