REMARK  2 active torsions:
REMARK  status: ('A' for Active; 'I' for Inactive)
REMARK    1  A    between atoms: C_8  and  C_3 
REMARK    2  A    between atoms: C_9  and  C_7 
ROOT
ATOM      1  N   UNL d   1       1.580  -0.067   0.041  0.00  0.00    -0.331 N 
ATOM      2  HN  UNL d   1       2.529  -0.439   0.023  1.00  0.00     0.168 HD
ATOM      3  C   UNL d   1       1.197   1.170   0.039  0.00  0.00     0.162 A 
ATOM      4  C   UNL d   1       0.390  -0.752   0.073  0.00  0.00     0.111 A 
ATOM      5  O   UNL d   1      -0.131   1.419   0.093  0.00  0.00    -0.256 OA
ATOM      6  C   UNL d   1      -0.753   0.208   0.125  0.00  0.00     0.316 A 
ATOM      7  C   UNL d   1       0.297  -2.087   0.026  0.00  0.00     0.049 C 
ATOM      8  O   UNL d   1      -1.948   0.014   0.193  0.00  0.00    -0.257 OA
ENDROOT
BRANCH   7   9
ATOM      9  C   UNL d   1      -0.964  -2.837  -0.014  0.00  0.00    -0.012 A 
ATOM     10  C   UNL d   1      -1.591  -3.188  -1.222  0.00  0.00     0.044 A 
ATOM     11 CL   UNL d   1      -0.893  -2.798  -2.756  0.00  0.00    -0.083 Cl
ATOM     12  C   UNL d   1      -2.811  -3.871  -1.214  0.00  0.00     0.024 A 
ATOM     13  C   UNL d   1      -3.413  -4.212  -0.003  0.00  0.00     0.002 A 
ATOM     14  C   UNL d   1      -2.794  -3.877   1.200  0.00  0.00     0.001 A 
ATOM     15  C   UNL d   1      -1.575  -3.194   1.196  0.00  0.00     0.013 A 
ENDBRANCH   7   9
BRANCH   3  16
ATOM     16  C   UNL d   1       2.050   2.367  -0.033  0.00  0.00     0.017 A 
ATOM     17  C   UNL d   1       3.436   2.208  -0.150  0.00  0.00     0.039 A 
ATOM     18  C   UNL d   1       4.251   3.335  -0.254  0.00  0.00     0.035 A 
ATOM     19 CL   UNL d   1       5.954   3.146  -0.411  0.00  0.00    -0.084 Cl
ATOM     20  C   UNL d   1       3.700   4.616  -0.239  0.00  0.00     0.024 A 
ATOM     21  C   UNL d   1       2.320   4.776  -0.114  0.00  0.00     0.003 A 
ATOM     22  C   UNL d   1       1.495   3.655  -0.011  0.00  0.00     0.016 A 
ENDBRANCH   3  16
TORSDOF 2
