REMARK  1 active torsions:
REMARK  status: ('A' for Active; 'I' for Inactive)
REMARK    1  A    between atoms: C_10  and  C_5 
ROOT
ATOM      1  N   UNL d   1       1.400  -0.600   0.055  0.00  0.00    -0.347 N 
ATOM      2  HN  UNL d   1       2.287  -1.100   0.124  1.00  0.00     0.167 HD
ATOM      3  C   UNL d   1       0.212  -1.171   0.017  0.00  0.00     0.111 A 
ATOM      4  C   UNL d   1       0.037  -2.594   0.041  0.00  0.00     0.134 A 
ATOM      5  C   UNL d   1       1.268   0.780  -0.014  0.00  0.00     0.050 A 
ATOM      6  S   UNL d   1      -1.121  -0.093  -0.065  0.00  0.00    -0.079 SA
ATOM      7  C   UNL d   1      -0.036   1.233  -0.065  0.00  0.00     0.082 A 
ATOM      8  N   UNL d   1      -1.030  -4.587   0.018  0.00  0.00    -0.272 N 
ATOM      9  HN  UNL d   1      -1.764  -5.294  -0.013  1.00  0.00     0.194 HD
ATOM     10  O   UNL d   1      -1.186  -3.212  -0.022  0.00  0.00    -0.236 OA
ATOM     11  C   UNL d   1       1.000  -3.581   0.124  0.00  0.00     0.061 A 
ATOM     12  C   UNL d   1       0.285  -4.789   0.105  0.00  0.00     0.117 A 
ENDROOT
BRANCH   5  13
ATOM     13  C   UNL d   1       2.438   1.652  -0.006  0.00  0.00    -0.006 A 
ATOM     14  C   UNL d   1       2.416   2.920  -0.606  0.00  0.00     0.059 A 
ATOM     15  C   UNL d   1       3.553   3.724  -0.577  0.00  0.00     0.155 A 
ATOM     16  F   UNL d   1       3.512   4.932  -1.155  0.00  0.00    -0.203 F 
ATOM     17  C   UNL d   1       4.717   3.284   0.040  0.00  0.00     0.154 A 
ATOM     18  C   UNL d   1       4.762   2.029   0.633  0.00  0.00     0.046 A 
ATOM     19  F   UNL d   1       5.804   4.066   0.067  0.00  0.00    -0.203 F 
ATOM     20  C   UNL d   1       3.626   1.213   0.606  0.00  0.00     0.017 A 
ENDBRANCH   5  13
TORSDOF 1
