REMARK  7 active torsions:
REMARK  status: ('A' for Active; 'I' for Inactive)
REMARK    1  A    between atoms: C2_2  and  C1_1 
REMARK    2  A    between atoms: O2_5  and  C1_1 
REMARK    3  A    between atoms: N1_4  and  C2_2 
REMARK    4  A    between atoms: C3_7  and  C2_2 
REMARK    5  A    between atoms: O3_6  and  C3_7 
REMARK    6  A    between atoms: C5_9  and  O3_6 
REMARK    7  A    between atoms: C4_8  and  C5_9 
ROOT
ATOM      1  C3  <1> d   1      -0.784   0.098   1.798  0.00  0.00     0.214 C 
ENDROOT
BRANCH   1   2
ATOM      2  O3  <1> d   1      -1.648  -0.717   0.993  0.00  0.00    -0.384 OA
BRANCH   2   3
ATOM      3  C5  <1> d   1      -2.450  -1.566   1.824  0.00  0.00     0.206 C 
BRANCH   3   4
ATOM      4  C4  <1> d   1      -3.395  -2.359   0.962  0.00  0.00    -0.035 A 
ATOM      5  C6  <1> d   1      -3.344  -3.760   0.952  0.00  0.00     0.009 A 
ATOM      6  C9  <1> d   1      -4.248  -4.497   0.184  0.00  0.00     0.001 A 
ATOM      7  C10 <1> d   1      -5.212  -3.842  -0.579  0.00  0.00     0.000 A 
ATOM      8  C8  <1> d   1      -5.270  -2.449  -0.580  0.00  0.00     0.001 A 
ATOM      9  C7  <1> d   1      -4.367  -1.711   0.186  0.00  0.00     0.009 A 
ENDBRANCH   3   4
ENDBRANCH   2   3
ENDBRANCH   1   2
BRANCH   1  10
ATOM     10  C2  <1> d   1       0.051   1.010   0.896  0.00  0.00     0.338 C 
BRANCH  10  11
ATOM     11  C1  <1> d   1      -0.867   1.972   0.121  0.00  0.00     0.176 C 
ATOM     12  O1  <1> d   1      -0.786   3.191   0.181  0.00  0.00    -0.648 OA
BRANCH  11  13
ATOM     13  O2  <1> d   1      -1.756   1.345  -0.686  0.00  0.00    -0.775 OA
ATOM     14  H4  <1> d   1      -1.750   0.367  -0.553  0.00  0.00     0.167 HD
ENDBRANCH  11  13
ENDBRANCH  10  11
BRANCH  10  15
ATOM     15  N1  <1> d   1       1.034   1.776   1.700  0.00  0.00     0.095 N 
ATOM     16  H2  <1> d   1       0.525   2.326   2.397  0.00  0.00     0.314 HD
ATOM     17  H3  <1> d   1       1.433   2.495   1.087  0.00  0.00     0.314 HD
ENDBRANCH  10  15
ENDBRANCH   1  10
TORSDOF 7
