REMARK  5 active torsions:
REMARK  status: ('A' for Active; 'I' for Inactive)
REMARK       I    between atoms: C_2  and  N_1 
REMARK    1  A    between atoms: C_6  and  C_2 
REMARK    2  A    between atoms: N_3  and  C_5 
REMARK    3  A    between atoms: C_11  and  C_4 
REMARK    4  A    between atoms: O_16  and  C_11 
REMARK    5  A    between atoms: C_18  and  O_16 
ROOT
ATOM      1  N   UNL d   1      -1.362  -0.564   0.173  0.00  0.00    -0.332 N 
ATOM      2  C   UNL d   1      -2.366  -1.372   0.703  0.00  0.00     0.254 C 
ATOM      3  C   UNL d   1      -0.152  -1.204  -0.341  0.00  0.00     0.173 C 
ATOM      4  S   UNL d   1       1.184  -0.013   0.034  0.00  0.00    -0.140 SA
ATOM      5  O   UNL d   1      -2.257  -2.600   0.732  0.00  0.00    -0.267 OA
ATOM      6  C   UNL d   1      -1.299   0.898   0.196  0.00  0.00     0.137 C 
ATOM      7  C   UNL d   1       0.099   1.407  -0.136  0.00  0.00     0.096 C 
ENDROOT
BRANCH   3   8
ATOM      8  C   UNL d   1      -0.265  -1.482  -1.857  0.00  0.00     0.212 C 
BRANCH   8   9
ATOM      9  O   UNL d   1       0.930  -2.105  -2.345  0.00  0.00    -0.348 OA
BRANCH   9  10
ATOM     10  C   UNL d   1       1.032  -2.212  -3.705  0.00  0.00     0.069 A 
ATOM     11  C   UNL d   1       2.336  -2.199  -4.210  0.00  0.00     0.039 A 
ATOM     12  C   UNL d   1       2.571  -2.328  -5.582  0.00  0.00     0.039 A 
ATOM     13  C   UNL d   1       1.484  -2.490  -6.452  0.00  0.00     0.103 A 
ATOM     14  C   UNL d   1       0.176  -2.522  -5.951  0.00  0.00     0.039 A 
ATOM     15  C   UNL d   1      -0.046  -2.384  -4.576  0.00  0.00     0.039 A 
BRANCH  13  16
ATOM     16  N   UNL d   1       1.718  -2.635  -7.891  0.00  0.00    -0.116 N 
ATOM     17  O   UNL d   1       0.727  -2.776  -8.626  0.00  0.00    -0.532 OA
ATOM     18  O   UNL d   1       2.889  -2.604  -8.295  0.00  0.00    -0.532 OA
ENDBRANCH  13  16
ENDBRANCH   9  10
ENDBRANCH   8   9
ENDBRANCH   3   8
BRANCH   2  19
ATOM     19  C   UNL d   1      -3.606  -0.783   1.293  0.00  0.00     0.032 A 
ATOM     20  C   UNL d   1      -4.271   0.311   0.727  0.00  0.00     0.018 A 
ATOM     21  C   UNL d   1      -5.426   0.829   1.321  0.00  0.00     0.025 A 
ATOM     22  C   UNL d   1      -5.963   0.215   2.449  0.00  0.00     0.034 A 
ATOM     23  C   UNL d   1      -5.351  -0.914   2.989  0.00  0.00     0.025 A 
ATOM     24 CL   UNL d   1      -7.398   0.842   3.158  0.00  0.00    -0.084 Cl
ATOM     25  C   UNL d   1      -4.174  -1.409   2.415  0.00  0.00     0.018 A 
ENDBRANCH   2  19
TORSDOF 5
