REMARK  7 active torsions:
REMARK  status: ('A' for Active; 'I' for Inactive)
REMARK    1  A    between atoms: C_14  and  C_1 
REMARK    2  A    between atoms: C_13  and  C_5 
REMARK    3  A    between atoms: C_6  and  C_9 
REMARK    4  A    between atoms: C_10  and  N_8 
REMARK    5  A    between atoms: C_17  and  C_14 
REMARK    6  A    between atoms: O_32  and  C_14 
REMARK    7  A    between atoms: N_15  and  C_17 
ROOT
ATOM      1  C   UNL d   1      -1.029   3.039  -1.146  0.00  0.00     0.311 C 
ENDROOT
BRANCH   1   2
ATOM      2  N   UNL d   1       0.436   3.122  -1.373  0.00  0.00     0.094 N 
ATOM      3  C   UNL d   1       1.000   1.889  -1.970  0.00  0.00     0.292 C 
ATOM      4  C   UNL d   1       0.470   1.556  -3.384  0.00  0.00     0.154 C 
ATOM      5  N   UNL d   1       0.623   2.689  -4.310  0.00  0.00    -0.364 N 
ATOM      6  C   UNL d   1       0.340   4.033  -3.780  0.00  0.00     0.154 C 
ATOM      7  C   UNL d   1       0.774   4.230  -2.306  0.00  0.00     0.292 C 
BRANCH   5   8
ATOM      8  C   UNL d   1       1.615   2.560  -5.278  0.00  0.00     0.103 A 
ATOM      9  N   UNL d   1       2.596   3.477  -5.380  0.00  0.00    -0.352 N 
ATOM     10  C   UNL d   1       3.538   3.313  -6.347  0.00  0.00     0.106 A 
ATOM     11  HN  UNL d   1       2.632   4.276  -4.746  1.00  0.00     0.166 HD
ATOM     12  C   UNL d   1       3.550   2.269  -7.257  0.00  0.00     0.063 A 
ATOM     13  C   UNL d   1       2.520   1.339  -7.166  0.00  0.00     0.021 A 
ATOM     14  C   UNL d   1       1.555   1.484  -6.169  0.00  0.00     0.049 A 
BRANCH  12  15
ATOM     15  C   UNL d   1       4.614   2.154  -8.302  0.00  0.00     0.418 C 
ATOM     16  F   UNL d   1       5.565   3.126  -8.228  0.00  0.00    -0.166 F 
ATOM     17  F   UNL d   1       5.289   0.971  -8.230  0.00  0.00    -0.166 F 
ATOM     18  F   UNL d   1       4.116   2.218  -9.567  0.00  0.00    -0.166 F 
ENDBRANCH  12  15
ENDBRANCH   5   8
ENDBRANCH   1   2
BRANCH   1  19
ATOM     19  C   UNL d   1      -1.500   1.902  -0.190  0.00  0.00     0.205 C 
BRANCH  19  20
ATOM     20  C   UNL d   1      -2.975   1.885   0.013  0.00  0.00     0.109 A 
ATOM     21  C   UNL d   1      -3.791   1.494   1.049  0.00  0.00     0.070 A 
ATOM     22  C   UNL d   1      -5.111   1.761   0.601  0.00  0.00     0.067 A 
ATOM     23  N   UNL d   1      -5.081   2.226  -0.658  0.00  0.00    -0.260 N 
ATOM     24  O   UNL d   1      -3.754   2.297  -1.020  0.00  0.00    -0.239 OA
ATOM     25  HN  UNL d   1      -5.885   2.477  -1.234  1.00  0.00     0.195 HD
BRANCH  22  26
ATOM     26  C   UNL d   1      -6.367   1.616   1.335  0.00  0.00    -0.004 A 
ATOM     27  C   UNL d   1      -6.381   1.646   2.737  0.00  0.00     0.037 A 
ATOM     28  C   UNL d   1      -7.591   1.569   3.429  0.00  0.00     0.036 A 
ATOM     29 CL   UNL d   1      -7.590   1.638   5.149  0.00  0.00    -0.084 Cl
ATOM     30  C   UNL d   1      -8.797   1.452   2.745  0.00  0.00     0.047 A 
ATOM     31  C   UNL d   1      -8.786   1.408   1.354  0.00  0.00     0.036 A 
ATOM     32  C   UNL d   1      -7.584   1.490   0.648  0.00  0.00     0.037 A 
ATOM     33 CL   UNL d   1     -10.271   1.264   0.496  0.00  0.00    -0.084 Cl
ENDBRANCH  22  26
ENDBRANCH  19  20
BRANCH  19  34
ATOM     34  O   UNL d   1      -0.918   2.039   1.110  0.00  0.00    -0.387 OA
ATOM     35  H   UNL d   1      -0.838   2.992   1.287  0.00  0.00     0.210 HD
ENDBRANCH  19  34
ENDBRANCH   1  19
TORSDOF 7
