REMARK  7 active torsions:
REMARK  status: ('A' for Active; 'I' for Inactive)
REMARK    1  A    between atoms: O_6  and  C_1 
REMARK    2  A    between atoms: C_4  and  C_10 
REMARK       I    between atoms: N_17  and  C_4 
REMARK    3  A    between atoms: N_5  and  C_12 
REMARK    4  A    between atoms: C_19  and  O_6 
REMARK    5  A    between atoms: C_12  and  C_20 
REMARK    6  A    between atoms: C_20  and  C_19 
REMARK    7  A    between atoms: O_22  and  C_20 
ROOT
ATOM      1  C   UNL d   1      -3.145   3.856   0.166  0.00  0.00     0.170 C 
ENDROOT
BRANCH   1   2
ATOM      2  C   UNL d   1      -2.634   4.665  -1.075  0.00  0.00     0.306 C 
BRANCH   2   3
ATOM      3  N   UNL d   1      -1.180   4.556  -1.402  0.00  0.00     0.091 N 
ATOM      4  C   UNL d   1      -0.938   5.153  -2.735  0.00  0.00     0.273 C 
ATOM      5  C   UNL d   1       0.525   4.983  -3.165  0.00  0.00     0.044 C 
ATOM      6  C   UNL d   1       1.504   5.591  -2.156  0.00  0.00     0.081 C 
ATOM      7  C   UNL d   1       1.171   5.091  -0.760  0.00  0.00     0.044 C 
ATOM      8  C   UNL d   1      -0.313   5.247  -0.431  0.00  0.00     0.273 C 
BRANCH   6   9
ATOM      9  C   UNL d   1       1.515   7.117  -2.212  0.00  0.00     0.219 C 
ATOM     10  O   UNL d   1       1.206   7.854  -1.281  0.00  0.00    -0.273 OA
ATOM     11  N   UNL d   1       1.923   7.647  -3.396  0.00  0.00    -0.370 N 
ATOM     12  H   UNL d   1       2.411   7.097  -4.090  0.00  0.00     0.159 HD
ATOM     13  H   UNL d   1       2.024   8.656  -3.435  0.00  0.00     0.159 HD
ENDBRANCH   6   9
ENDBRANCH   2   3
ENDBRANCH   1   2
BRANCH   1  14
ATOM     14  C   UNL d   1      -2.685   4.480   1.492  0.00  0.00     0.209 C 
BRANCH  14  15
ATOM     15  O   UNL d   1      -3.404   4.074   2.650  0.00  0.00    -0.347 OA
BRANCH  15  16
ATOM     16  C   UNL d   1      -2.811   4.359   3.868  0.00  0.00     0.092 A 
ATOM     17  C   UNL d   1      -1.921   5.412   4.197  0.00  0.00     0.046 A 
ATOM     18  C   UNL d   1      -1.498   5.598   5.525  0.00  0.00     0.046 A 
ATOM     19 BR   UNL d   1      -1.189   6.739   3.035  0.00  0.00    -0.048 Br
ATOM     20  C   UNL d   1      -1.956   4.769   6.536  0.00  0.00     0.036 A 
ATOM     21  C   UNL d   1      -2.801   3.713   6.231  0.00  0.00     0.033 A 
ATOM     22 CL   UNL d   1      -1.479   5.060   8.159  0.00  0.00    -0.084 Cl
ATOM     23  C   UNL d   1      -3.216   3.482   4.904  0.00  0.00    -0.026 A 
ATOM     24  C   UNL d   1      -4.076   2.269   4.661  0.00  0.00     0.051 C 
ENDBRANCH  15  16
ENDBRANCH  14  15
ENDBRANCH   1  14
BRANCH   1  25
ATOM     25  O   UNL d   1      -2.671   2.508   0.055  0.00  0.00    -0.392 OA
ATOM     26  H   UNL d   1      -1.796   2.575  -0.376  0.00  0.00     0.210 HD
ENDBRANCH   1  25
TORSDOF 7
