REMARK  3 active torsions:
REMARK  status: ('A' for Active; 'I' for Inactive)
REMARK    1  A    between atoms: N_5  and  C_1 
REMARK       I    between atoms: C_4  and  N_5 
REMARK       I    between atoms: N_9  and  C_4 
REMARK    2  A    between atoms: O_20  and  C_8 
REMARK    3  A    between atoms: C_10  and  N_9 
ROOT
ATOM      1  C   UNL d   1      -2.421   2.321  -0.052  0.00  0.00     0.691 C 
ATOM      2  N   UNL d   1      -1.142   2.093  -0.436  0.00  0.00    -0.022 N 
ATOM      3  N   UNL d   1      -3.251   1.249   0.130  0.00  0.00    -0.190 N 
ATOM      4  N   UNL d   1      -2.808   3.549   0.129  0.00  0.00    -0.234 N 
ATOM      5  HN  UNL d   1      -3.742   3.823   0.435  1.00  0.00     0.174 HD
ATOM      6  H   UNL d   1      -0.502   2.873  -0.406  0.00  0.00     0.203 HD
ATOM      7  H   UNL d   1      -3.064   0.455  -0.475  0.00  0.00     0.184 HD
ATOM      8  H   UNL d   1      -2.051   4.199  -0.078  0.00  0.00     0.174 HD
ENDROOT
BRANCH   2   9
ATOM      9  C   UNL d   1      -0.375   0.936  -0.391  0.00  0.00     0.699 A 
ATOM     10  N   UNL d   1      -0.907  -0.292  -0.451  0.00  0.00    -0.170 N 
ATOM     11  C   UNL d   1      -0.018  -1.294  -0.398  0.00  0.00     0.157 A 
ATOM     12  HN  UNL d   1      -1.912  -0.452  -0.529  1.00  0.00     0.186 HD
ATOM     13  C   UNL d   1       1.340  -1.163  -0.281  0.00  0.00     0.081 A 
ATOM     14  C   UNL d   1       1.793   0.130  -0.242  0.00  0.00     0.026 A 
ATOM     15  N   UNL d   1       0.948   1.179  -0.308  0.00  0.00    -0.195 N 
ATOM     16  C   UNL d   1       3.245   0.449  -0.055  0.00  0.00     0.069 C 
ATOM     17  HN  UNL d   1       1.303   2.136  -0.294  1.00  0.00     0.184 HD
BRANCH  11  18
ATOM     18  O   UNL d   1      -0.561  -2.538  -0.474  0.00  0.00    -0.346 OA
ATOM     19  H   UNL d   1      -1.508  -2.332  -0.565  0.00  0.00     0.219 HD
ENDBRANCH  11  18
ENDBRANCH   2   9
BRANCH   3  20
ATOM     20  C   UNL d   1      -4.595   1.362   0.558  0.00  0.00     0.071 A 
ATOM     21  C   UNL d   1      -5.654   0.773  -0.156  0.00  0.00     0.062 A 
ATOM     22  C   UNL d   1      -6.987   0.991   0.214  0.00  0.00     0.050 A 
ATOM     23 CL   UNL d   1      -5.341  -0.220  -1.538  0.00  0.00    -0.082 Cl
ATOM     24  C   UNL d   1      -7.273   1.797   1.314  0.00  0.00     0.035 A 
ATOM     25  C   UNL d   1      -6.246   2.377   2.049  0.00  0.00     0.026 A 
ATOM     26 CL   UNL d   1      -8.909   2.090   1.761  0.00  0.00    -0.084 Cl
ATOM     27  C   UNL d   1      -4.920   2.163   1.667  0.00  0.00     0.033 A 
ENDBRANCH   3  20
TORSDOF 3
