REMARK  5 active torsions:
REMARK  status: ('A' for Active; 'I' for Inactive)
REMARK    1  A    between atoms: C_2  and  C_1 
REMARK    2  A    between atoms: O_6  and  C_1 
REMARK    3  A    between atoms: N_3  and  O_6 
REMARK    4  A    between atoms: C_11  and  C_5 
REMARK    5  A    between atoms: O_13  and  C_5 
ROOT
ATOM      1  N   UNL d   1      -1.013  -0.991  -0.414  0.00  0.00    -0.235 N 
ATOM      2  HN  UNL d   1      -0.006  -1.038  -0.257  1.00  0.00     0.197 HD
ATOM      3  C   UNL d   1      -1.685  -1.903  -1.032  0.00  0.00     0.171 C 
ENDROOT
BRANCH   1   4
ATOM      4  O   UNL d   1      -1.826   0.081   0.020  0.00  0.00    -0.192 OA
BRANCH   4   5
ATOM      5  C   UNL d   1      -1.054   0.982   0.732  0.00  0.00     0.322 C 
ATOM      6  O   UNL d   1       0.123   0.810   1.043  0.00  0.00    -0.257 OA
BRANCH   5   7
ATOM      7  C   UNL d   1      -1.803   2.180   1.083  0.00  0.00     0.082 A 
ATOM      8  S   UNL d   1      -3.412   2.473   0.575  0.00  0.00    -0.096 SA
ATOM      9  C   UNL d   1      -3.456   4.001   1.347  0.00  0.00     0.050 A 
ATOM     10  C   UNL d   1      -2.275   4.286   1.994  0.00  0.00     0.009 A 
ATOM     11  C   UNL d   1      -1.325   3.238   1.840  0.00  0.00     0.026 A 
ENDBRANCH   5   7
ENDBRANCH   4   5
ENDBRANCH   1   4
BRANCH   3  12
ATOM     12  C   UNL d   1      -1.079  -3.113  -1.634  0.00  0.00     0.016 A 
ATOM     13  C   UNL d   1       0.293  -3.345  -1.459  0.00  0.00     0.016 A 
ATOM     14  C   UNL d   1       0.899  -4.463  -2.037  0.00  0.00     0.001 A 
ATOM     15  C   UNL d   1       0.141  -5.353  -2.795  0.00  0.00     0.000 A 
ATOM     16  C   UNL d   1      -1.225  -5.131  -2.972  0.00  0.00     0.001 A 
ATOM     17  C   UNL d   1      -1.836  -4.015  -2.392  0.00  0.00     0.016 A 
ENDBRANCH   3  12
BRANCH   3  18
ATOM     18  O   UNL d   1      -3.019  -1.831  -1.184  0.00  0.00    -0.344 OA
ATOM     19  H   UNL d   1      -3.333  -1.022  -0.748  0.00  0.00     0.219 HD
ENDBRANCH   3  18
TORSDOF 5
