REMARK  6 active torsions:
REMARK  status: ('A' for Active; 'I' for Inactive)
REMARK    1  A    between atoms: C_17  and  C_3 
REMARK    2  A    between atoms: C_4  and  C_9 
REMARK    3  A    between atoms: C_5  and  C_10 
REMARK    4  A    between atoms: C_13  and  C_8 
REMARK    5  A    between atoms: N_14  and  C_17 
REMARK    6  A    between atoms: C_16  and  C_15 
ROOT
ATOM      1  C   UNL d   1       0.399   2.531  -0.100  0.00  0.00     0.051 C 
ATOM      2  C   UNL d   1       1.662   2.992  -0.053  0.00  0.00     0.015 C 
ENDROOT
BRANCH   2   3
ATOM      3  C   UNL d   1       2.005   4.423  -0.056  0.00  0.00    -0.035 A 
ATOM      4  C   UNL d   1       1.176   5.387   0.532  0.00  0.00     0.027 A 
ATOM      5  C   UNL d   1       1.493   6.754   0.477  0.00  0.00     0.049 A 
ATOM      6  C   UNL d   1       2.683   7.151  -0.149  0.00  0.00     0.032 A 
ATOM      7  C   UNL d   1       3.540   6.204  -0.731  0.00  0.00     0.049 A 
ATOM      8  C   UNL d   1       3.195   4.842  -0.666  0.00  0.00     0.027 A 
BRANCH   5   9
ATOM      9  C   UNL d   1       0.531   7.763   1.055  0.00  0.00     0.417 C 
ATOM     10  F   UNL d   1       0.942   9.052   0.907  0.00  0.00    -0.166 F 
ATOM     11  F   UNL d   1      -0.697   7.692   0.470  0.00  0.00    -0.166 F 
ATOM     12  F   UNL d   1       0.323   7.583   2.388  0.00  0.00    -0.166 F 
ENDBRANCH   5   9
BRANCH   7  13
ATOM     13  C   UNL d   1       4.796   6.636  -1.453  0.00  0.00     0.417 C 
ATOM     14  F   UNL d   1       4.958   7.989  -1.492  0.00  0.00    -0.166 F 
ATOM     15  F   UNL d   1       5.927   6.140  -0.883  0.00  0.00    -0.166 F 
ATOM     16  F   UNL d   1       4.814   6.223  -2.751  0.00  0.00    -0.166 F 
ENDBRANCH   7  13
ENDBRANCH   2   3
BRANCH   1  17
ATOM     17  C   UNL d   1       0.018   1.167  -0.215  0.00  0.00     0.127 A 
ATOM     18  N   UNL d   1       0.812   0.086  -0.196  0.00  0.00    -0.243 N 
ATOM     19  O   UNL d   1      -0.041  -0.948  -0.591  0.00  0.00    -0.221 OA
ATOM     20  HN  UNL d   1       1.800   0.032   0.048  1.00  0.00     0.196 HD
ATOM     21  C   UNL d   1      -1.264  -0.377  -0.803  0.00  0.00     0.177 A 
ATOM     22  N   UNL d   1      -1.291   0.906  -0.518  0.00  0.00    -0.322 N 
ATOM     23  HN  UNL d   1      -2.086   1.545  -0.521  1.00  0.00     0.169 HD
BRANCH  21  24
ATOM     24  C   UNL d   1      -2.305  -1.234  -1.443  0.00  0.00     0.358 C 
BRANCH  24  25
ATOM     25  N   UNL d   1      -2.752  -0.834  -2.797  0.00  0.00     0.096 N 
ATOM     26  C   UNL d   1      -1.682  -0.805  -3.801  0.00  0.00     0.273 C 
ATOM     27  C   UNL d   1      -1.177   0.625  -3.842  0.00  0.00     0.032 C 
ATOM     28  C   UNL d   1      -2.390   1.460  -3.472  0.00  0.00     0.032 C 
ATOM     29  C   UNL d   1      -3.384   0.492  -2.838  0.00  0.00     0.273 C 
ENDBRANCH  24  25
ENDBRANCH  21  24
ENDBRANCH   1  17
TORSDOF 6
