REMARK  5 active torsions:
REMARK  status: ('A' for Active; 'I' for Inactive)
REMARK    1  A    between atoms: C_14  and  N_2 
REMARK    2  A    between atoms: N_4  and  C_10 
REMARK    3  A    between atoms: C_11  and  N_6 
REMARK    4  A    between atoms: C_19  and  C_14 
REMARK    5  A    between atoms: C_20  and  C_19 
ROOT
ATOM      1  C   UNL d   1       0.078   0.679  -0.025  0.00  0.00     0.036 A 
ATOM      2  N   UNL d   1      -1.134   1.357  -0.070  0.00  0.00    -0.380 N 
ATOM      3  C   UNL d   1       0.113  -0.729   0.035  0.00  0.00    -0.029 A 
ATOM      4  C   UNL d   1       1.307   1.353  -0.053  0.00  0.00     0.032 A 
ATOM      5  C   UNL d   1       1.344  -1.415   0.069  0.00  0.00     0.040 A 
ATOM      6  C   UNL d   1       2.562  -0.730   0.036  0.00  0.00     0.048 A 
ATOM      7  C   UNL d   1       2.525   0.665  -0.033  0.00  0.00     0.033 A 
ATOM      8  C   UNL d   1      -2.327   0.642   0.369  0.00  0.00     0.123 C 
ATOM      9  C   UNL d   1      -1.162  -1.538   0.072  0.00  0.00     0.042 C 
ATOM     10  C   UNL d   1      -2.391  -0.718  -0.303  0.00  0.00     0.024 C 
ENDROOT
BRANCH   6  11
ATOM     11  N   UNL d   1       3.757  -1.478   0.013  0.00  0.00    -0.300 N 
ATOM     12  N   UNL d   1       4.706  -0.871   0.549  0.00  0.00    -0.300 N 
ATOM     13  HN  UNL d   1       4.604   0.032   1.012  1.00  0.00     0.187 HD
ATOM     14  HN  UNL d   1       3.836  -2.410  -0.396  1.00  0.00     0.187 HD
BRANCH  12  15
ATOM     15  C   UNL d   1       5.933  -1.557   0.452  0.00  0.00     0.048 A 
ATOM     16  C   UNL d   1       6.259  -2.433  -0.596  0.00  0.00     0.031 A 
ATOM     17  C   UNL d   1       7.518  -3.038  -0.660  0.00  0.00     0.002 A 
ATOM     18  C   UNL d   1       8.471  -2.768   0.321  0.00  0.00     0.000 A 
ATOM     19  C   UNL d   1       8.167  -1.893   1.361  0.00  0.00     0.002 A 
ATOM     20  C   UNL d   1       6.906  -1.294   1.423  0.00  0.00     0.031 A 
ENDBRANCH  12  15
ENDBRANCH   6  11
BRANCH   2  21
ATOM     21  C   UNL d   1      -1.273   2.679  -0.685  0.00  0.00     0.123 C 
BRANCH  21  22
ATOM     22  C   UNL d   1      -0.964   2.630  -2.187  0.00  0.00     0.019 C 
BRANCH  22  23
ATOM     23  C   UNL d   1      -1.060   4.011  -2.835  0.00  0.00    -0.003 C 
ATOM     24  C   UNL d   1      -0.697   3.952  -4.311  0.00  0.00     0.005 C 
ENDBRANCH  22  23
ENDBRANCH  21  22
ENDBRANCH   2  21
TORSDOF 5
