REMARK  3 active torsions:
REMARK  status: ('A' for Active; 'I' for Inactive)
REMARK    1  A    between atoms: C_2  and  S_1 
REMARK    2  A    between atoms: N_3  and  S_1 
REMARK    3  A    between atoms: C_6  and  N_3 
ROOT
ATOM      1  N   UNL d   1       0.541   0.819  -1.240  0.00  0.00    -0.179 NA
ATOM      2  H   UNL d   1      -0.349   0.718  -0.743  0.00  0.00     0.146 HD
ENDROOT
BRANCH   1   3
ATOM      3  S   UNL d   1       0.637  -0.301  -2.507  0.00  0.00     0.247 S 
ATOM      4  O   UNL d   1       1.934  -0.152  -3.141  0.00  0.00    -0.205 OA
ATOM      5  O   UNL d   1       0.238  -1.588  -1.986  0.00  0.00    -0.205 OA
BRANCH   3   6
ATOM      6  C   UNL d   1      -0.586   0.220  -3.686  0.00  0.00     0.098 A 
ATOM      7  C   UNL d   1      -0.139   0.883  -4.842  0.00  0.00     0.052 A 
ATOM      8  C   UNL d   1      -1.050   1.314  -5.808  0.00  0.00     0.057 A 
ATOM      9 CL   UNL d   1      -0.428   2.155  -7.183  0.00  0.00    -0.083 Cl
ATOM     10  C   UNL d   1      -2.414   1.066  -5.635  0.00  0.00     0.057 A 
ATOM     11  C   UNL d   1      -2.859   0.395  -4.493  0.00  0.00     0.051 A 
ATOM     12 CL   UNL d   1      -3.602   1.578  -6.779  0.00  0.00    -0.082 Cl
ATOM     13  C   UNL d   1      -1.952  -0.026  -3.509  0.00  0.00     0.058 A 
ATOM     14 CL   UNL d   1      -2.635  -0.756  -2.104  0.00  0.00    -0.083 Cl
ENDBRANCH   3   6
ENDBRANCH   1   3
BRANCH   1  15
ATOM     15  C   UNL d   1       0.877   2.190  -1.532  0.00  0.00     0.050 A 
ATOM     16  C   UNL d   1      -0.121   3.103  -1.906  0.00  0.00     0.064 A 
ATOM     17  N   UNL d   1      -1.412   2.714  -2.015  0.00  0.00    -0.364 N 
ATOM     18  C   UNL d   1       0.273   4.435  -2.168  0.00  0.00    -0.008 A 
ATOM     19  C   UNL d   1      -2.330   3.632  -2.395  0.00  0.00     0.088 A 
ATOM     20  HN  UNL d   1      -1.687   1.752  -1.816  1.00  0.00     0.165 HD
ATOM     21  C   UNL d   1      -2.032   4.952  -2.668  0.00  0.00     0.018 A 
ATOM     22  C   UNL d   1      -0.711   5.359  -2.546  0.00  0.00     0.015 A 
ATOM     23  C   UNL d   1       1.619   4.820  -2.050  0.00  0.00     0.014 A 
ATOM     24  C   UNL d   1       2.591   3.885  -1.700  0.00  0.00     0.003 A 
ATOM     25  C   UNL d   1       2.221   2.567  -1.455  0.00  0.00     0.027 A 
ENDBRANCH   1  15
TORSDOF 3
