REMARK  2 active torsions:
REMARK  status: ('A' for Active; 'I' for Inactive)
REMARK    1  A    between atoms: C_5  and  C_1 
REMARK    2  A    between atoms: N_6  and  C_2 
REMARK       I    between atoms: C_7  and  N_6 
REMARK       I    between atoms: N_10  and  C_7 
ROOT
ATOM      1  C   UNL d   1      -0.985  -0.647  -1.069  0.00  0.00     0.097 A 
ATOM      2  C   UNL d   1       0.028  -1.064  -0.135  0.00  0.00     0.097 A 
ATOM      3  N   UNL d   1      -1.197   0.673  -0.967  0.00  0.00    -0.258 N 
ATOM      4  HN  UNL d   1      -1.863   1.228  -1.506  1.00  0.00     0.195 HD
ATOM      5  C   UNL d   1       0.415   0.107   0.486  0.00  0.00     0.101 A 
ATOM      6  O   UNL d   1      -0.343   1.130   0.004  0.00  0.00    -0.240 OA
ATOM      7  C   UNL d   1       1.372   0.525   1.530  0.00  0.00     0.081 C 
ENDROOT
BRANCH   2   8
ATOM      8  N   UNL d   1       0.490  -2.370   0.043  0.00  0.00    -0.304 N 
ATOM      9  C   UNL d   1       1.832  -2.681   0.150  0.00  0.00     0.323 C 
ATOM     10  N   UNL d   1       2.097  -4.051   0.085  0.00  0.00    -0.334 N 
ATOM     11  O   UNL d   1       2.736  -1.847   0.181  0.00  0.00    -0.247 OA
ATOM     12  C   UNL d   1       3.505  -4.435  -0.035  0.00  0.00     0.127 C 
ATOM     13  C   UNL d   1       1.216  -5.066   0.667  0.00  0.00     0.127 C 
ATOM     14  C   UNL d   1       3.670  -5.769  -0.755  0.00  0.00     0.020 C 
ATOM     15  C   UNL d   1       2.819  -6.855  -0.107  0.00  0.00     0.003 C 
ATOM     16  C   UNL d   1       1.359  -6.413  -0.039  0.00  0.00     0.020 C 
ATOM     17  H   UNL d   1      -0.007  -3.062  -0.498  0.00  0.00     0.171 HD
ENDBRANCH   2   8
BRANCH   1  18
ATOM     18  C   UNL d   1      -1.679  -1.414  -2.112  0.00  0.00     0.038 A 
ATOM     19  C   UNL d   1      -3.083  -1.374  -2.238  0.00  0.00     0.048 A 
ATOM     20 CL   UNL d   1      -4.113  -0.563  -1.103  0.00  0.00    -0.083 Cl
ATOM     21  C   UNL d   1      -3.732  -2.024  -3.299  0.00  0.00     0.025 A 
ATOM     22  C   UNL d   1      -3.005  -2.753  -4.233  0.00  0.00     0.003 A 
ATOM     23  C   UNL d   1      -1.623  -2.825  -4.115  0.00  0.00     0.025 A 
ATOM     24  C   UNL d   1      -0.961  -2.147  -3.082  0.00  0.00     0.048 A 
ATOM     25 CL   UNL d   1       0.768  -2.233  -3.138  0.00  0.00    -0.083 Cl
ENDBRANCH   1  18
TORSDOF 2
