REMARK  4 active torsions:
REMARK  status: ('A' for Active; 'I' for Inactive)
REMARK    1  A    between atoms: S_14  and  C_3 
REMARK    2  A    between atoms: C_4  and  C_9 
REMARK    3  A    between atoms: C_9  and  C_15 
REMARK    4  A    between atoms: C_15  and  S_14 
ROOT
ATOM      1  S   UNL d   1       4.094  -0.140   0.116  0.00  0.00    -0.078 SA
ENDROOT
BRANCH   1   2
ATOM      2  C   UNL d   1       2.371   0.056  -0.036  0.00  0.00     0.188 A 
ATOM      3  N   UNL d   1       1.784   1.219  -0.248  0.00  0.00    -0.329 N 
ATOM      4  C   UNL d   1       0.451   0.910  -0.326  0.00  0.00     0.070 A 
ATOM      5  HN  UNL d   1       2.222   2.137  -0.335  1.00  0.00     0.168 HD
ATOM      6  C   UNL d   1       0.276  -0.452  -0.149  0.00  0.00     0.105 A 
ATOM      7  C   UNL d   1      -0.668   1.720  -0.551  0.00  0.00     0.056 A 
ATOM      8  C   UNL d   1      -0.951  -1.104  -0.177  0.00  0.00     0.041 A 
ATOM      9  O   UNL d   1       1.507  -1.007   0.043  0.00  0.00    -0.285 OA
ATOM     10  C   UNL d   1      -2.065  -0.285  -0.410  0.00  0.00     0.026 A 
ATOM     11  C   UNL d   1      -1.922   1.097  -0.592  0.00  0.00     0.036 A 
ATOM     12 CL   UNL d   1      -3.324   2.056  -0.884  0.00  0.00    -0.084 Cl
ENDBRANCH   1   2
BRANCH   1  13
ATOM     13  C   UNL d   1       4.623   1.579  -0.135  0.00  0.00     0.169 C 
BRANCH  13  14
ATOM     14  C   UNL d   1       6.125   1.683   0.025  0.00  0.00     0.192 C 
ATOM     15  O   UNL d   1       6.619   1.870   1.141  0.00  0.00    -0.289 OA
BRANCH  14  16
ATOM     16  C   UNL d   1       6.946   1.543  -1.161  0.00  0.00     0.123 A 
ATOM     17  O   UNL d   1       6.364   1.339  -2.383  0.00  0.00    -0.306 OA
ATOM     18  C   UNL d   1       7.369   1.219  -3.295  0.00  0.00     0.086 A 
ATOM     19  C   UNL d   1       7.205   0.987  -4.659  0.00  0.00     0.038 A 
ATOM     20  C   UNL d   1       8.605   1.354  -2.674  0.00  0.00     0.001 A 
ATOM     21  C   UNL d   1       8.375   0.874  -5.418  0.00  0.00     0.003 A 
ATOM     22  C   UNL d   1       9.636   0.998  -4.828  0.00  0.00     0.001 A 
ATOM     23  C   UNL d   1       9.768   1.244  -3.455  0.00  0.00     0.014 A 
ATOM     24  C   UNL d   1       8.322   1.577  -1.303  0.00  0.00     0.055 A 
ENDBRANCH  14  16
ENDBRANCH  13  14
ENDBRANCH   1  13
TORSDOF 4
