REMARK  4 active torsions:
REMARK  status: ('A' for Active; 'I' for Inactive)
REMARK    1  A    between atoms: C_6  and  C_1 
REMARK       I    between atoms: C_2  and  N_3 
REMARK    2  A    between atoms: C_5  and  C_2 
REMARK    3  A    between atoms: N_3  and  C_4 
REMARK    4  A    between atoms: O_13  and  C_6 
ROOT
ATOM      1  C   UNL d   1       1.172  -0.229   0.659  0.00  0.00     0.066 C 
ATOM      2  C   UNL d   1       0.750  -1.341  -0.095  0.00  0.00     0.051 C 
ATOM      3  C   UNL d   1       0.343   0.901   0.769  0.00  0.00     0.020 C 
ATOM      4  C   UNL d   1      -0.581  -1.386  -0.533  0.00  0.00     0.030 C 
ATOM      5  C   UNL d   1      -0.944   0.880   0.236  0.00  0.00     0.001 C 
ATOM      6  C   UNL d   1      -1.422  -0.281  -0.365  0.00  0.00     0.002 C 
ENDROOT
BRANCH   2   7
ATOM      7  N   UNL d   1       1.587  -2.409  -0.502  0.00  0.00    -0.322 N 
ATOM      8  C   UNL d   1       2.946  -2.278  -0.768  0.00  0.00     0.263 C 
ATOM      9  O   UNL d   1       3.545  -1.203  -0.696  0.00  0.00    -0.267 OA
ATOM     10  H   UNL d   1       1.151  -3.252  -0.854  0.00  0.00     0.169 HD
BRANCH   8  11
ATOM     11  C   UNL d   1       3.631  -3.483  -1.226  0.00  0.00     0.072 A 
ATOM     12  S   UNL d   1       2.808  -4.916  -1.669  0.00  0.00    -0.097 SA
ATOM     13  C   UNL d   1       4.268  -5.706  -2.090  0.00  0.00     0.050 A 
ATOM     14  C   UNL d   1       5.366  -4.902  -1.895  0.00  0.00     0.009 A 
ATOM     15  C   UNL d   1       4.998  -3.618  -1.407  0.00  0.00     0.025 A 
ENDBRANCH   8  11
ENDBRANCH   2   7
BRANCH   1  16
ATOM     16  C   UNL d   1       2.325  -0.338   1.591  0.00  0.00     0.295 C 
ATOM     17  O   UNL d   1       2.607  -1.371   2.182  0.00  0.00    -0.259 OA
BRANCH  16  18
ATOM     18  O   UNL d   1       2.917   0.871   1.769  0.00  0.00    -0.322 OA
ATOM     19  C   UNL d   1       3.943   0.862   2.762  0.00  0.00     0.213 C 
ENDBRANCH  16  18
ENDBRANCH   1  16
TORSDOF 4
