REMARK  5 active torsions:
REMARK  status: ('A' for Active; 'I' for Inactive)
REMARK    1  A    between atoms: C_3  and  C_1 
REMARK    2  A    between atoms: C_7  and  C_1 
REMARK    3  A    between atoms: C_4  and  C_2 
REMARK    4  A    between atoms: C_10  and  C_3 
REMARK    5  A    between atoms: C_5  and  C_4 
ROOT
ATOM      1  C   UNL d   1       1.060   0.104   0.112  0.00  0.00     0.029 C 
ATOM      2  C   UNL d   1       0.259  -0.980   0.157  0.00  0.00     0.074 C 
ENDROOT
BRANCH   1   3
ATOM      3  C   UNL d   1       2.577   0.110   0.077  0.00  0.00     0.193 C 
ATOM      4  O   UNL d   1       3.175   1.079  -0.395  0.00  0.00    -0.287 OA
BRANCH   3   5
ATOM      5  C   UNL d   1       3.403  -1.011   0.611  0.00  0.00     0.015 C 
ATOM      6  C   UNL d   1       4.643  -1.251  -0.002  0.00  0.00     0.015 C 
ATOM      7  C   UNL d   1       5.397  -2.376   0.337  0.00  0.00     0.001 C 
ATOM      8  C   UNL d   1       4.916  -3.271   1.289  0.00  0.00     0.000 C 
ATOM      9  C   UNL d   1       3.732  -2.991   1.968  0.00  0.00     0.001 C 
ATOM     10  C   UNL d   1       3.003  -1.835   1.668  0.00  0.00     0.015 C 
ENDBRANCH   3   5
ENDBRANCH   1   3
BRANCH   1  11
ATOM     11  C   UNL d   1       0.324   1.417   0.070  0.00  0.00    -0.022 A 
ATOM     12  C   UNL d   1       0.812   2.556   0.729  0.00  0.00     0.012 A 
ATOM     13  C   UNL d   1       0.105   3.763   0.700  0.00  0.00     0.001 A 
ATOM     14  C   UNL d   1      -1.110   3.852   0.029  0.00  0.00     0.000 A 
ATOM     15  C   UNL d   1      -1.612   2.746  -0.643  0.00  0.00     0.001 A 
ATOM     16  C   UNL d   1      -0.890   1.552  -0.642  0.00  0.00     0.012 A 
ENDBRANCH   1  11
BRANCH   2  17
ATOM     17  C   UNL d   1       0.548  -2.445   0.060  0.00  0.00     0.206 C 
ATOM     18  O   UNL d   1       1.391  -2.876  -0.720  0.00  0.00    -0.285 OA
BRANCH  17  19
ATOM     19  C   UNL d   1      -0.295  -3.232   0.922  0.00  0.00     0.124 A 
ATOM     20  O   UNL d   1       0.219  -3.694   2.101  0.00  0.00    -0.319 OA
ATOM     21  C   UNL d   1      -0.815  -4.218   2.809  0.00  0.00     0.142 A 
ATOM     22  C   UNL d   1      -1.987  -4.107   2.105  0.00  0.00     0.027 A 
ATOM     23  C   UNL d   1      -1.650  -3.493   0.872  0.00  0.00     0.043 A 
ENDBRANCH  17  19
ENDBRANCH   2  17
TORSDOF 5
