REMARK  9 active torsions:
REMARK  status: ('A' for Active; 'I' for Inactive)
REMARK       I    between atoms: C_4  and  N_1 
REMARK    1  A    between atoms: C_6  and  N_1 
REMARK    2  A    between atoms: C_30  and  C_3 
REMARK    3  A    between atoms: C_13  and  C_4 
REMARK    4  A    between atoms: N_12  and  C_6 
REMARK       I    between atoms: C_10  and  N_15 
REMARK    5  A    between atoms: C_23  and  C_10 
REMARK    6  A    between atoms: N_15  and  N_12 
REMARK    7  A    between atoms: C_20  and  O_24 
REMARK    8  A    between atoms: O_24  and  C_23 
REMARK    9  A    between atoms: C_31  and  C_30 
ROOT
ATOM      1  C   UNL d   1       3.211  -2.858  -2.234  0.00  0.00     0.260 C 
ATOM      2  N   UNL d   1       3.368  -3.244  -0.913  0.00  0.00    -0.266 N 
ATOM      3  O   UNL d   1       3.589  -1.764  -2.656  0.00  0.00    -0.269 OA
ATOM      4  H   UNL d   1       3.266  -4.210  -0.612  0.00  0.00     0.190 HD
ENDROOT
BRANCH   1   5
ATOM      5  C   UNL d   1       2.501  -3.871  -3.124  0.00  0.00     0.280 C 
BRANCH   5   6
ATOM      6  O   UNL d   1       3.441  -4.822  -3.610  0.00  0.00    -0.342 OA
BRANCH   6   7
ATOM      7  C   UNL d   1       3.004  -5.684  -4.580  0.00  0.00     0.072 A 
ATOM      8  C   UNL d   1       1.696  -5.814  -5.037  0.00  0.00     0.075 A 
ATOM      9  C   UNL d   1       1.407  -6.755  -6.033  0.00  0.00     0.092 A 
ATOM     10  O   UNL d   1       0.054  -6.834  -6.426  0.00  0.00    -0.275 OA
ATOM     11  C   UNL d   1       2.380  -7.577  -6.607  0.00  0.00     0.004 A 
ATOM     12  C   UNL d   1      -0.357  -7.728  -7.397  0.00  0.00     0.288 A 
ATOM     13  O   UNL d   1      -1.529  -7.833  -7.742  0.00  0.00    -0.260 OA
ATOM     14  C   UNL d   1       0.684  -8.555  -8.022  0.00  0.00     0.090 A 
ATOM     15  C   UNL d   1       1.981  -8.516  -7.672  0.00  0.00    -0.039 A 
ATOM     16  C   UNL d   1       3.688  -7.440  -6.131  0.00  0.00     0.017 A 
ATOM     17  C   UNL d   1       3.993  -6.503  -5.131  0.00  0.00     0.038 A 
BRANCH  15  18
ATOM     18  C   UNL d   1       2.996  -9.364  -8.399  0.00  0.00     0.039 C 
BRANCH  18  19
ATOM     19  C   UNL d   1       3.254 -10.709  -7.713  0.00  0.00     0.000 C 
ATOM     20  C   UNL d   1       4.306 -11.517  -8.460  0.00  0.00     0.005 C 
ENDBRANCH  18  19
ENDBRANCH  15  18
ENDBRANCH   6   7
ENDBRANCH   5   6
ENDBRANCH   1   5
BRANCH   2  21
ATOM     21  N   UNL d   1       4.078  -2.373  -0.072  0.00  0.00    -0.273 N 
ATOM     22  H   UNL d   1       4.422  -1.506  -0.507  0.00  0.00     0.189 HD
BRANCH  21  23
ATOM     23  C   UNL d   1       4.201  -2.556   1.282  0.00  0.00     0.193 C 
ATOM     24  S   UNL d   1       3.647  -3.889   2.128  0.00  0.00    -0.039 SA
BRANCH  23  25
ATOM     25  N   UNL d   1       4.841  -1.548   1.979  0.00  0.00    -0.298 N 
ATOM     26  C   UNL d   1       5.343  -0.362   1.463  0.00  0.00     0.257 C 
ATOM     27  O   UNL d   1       5.387  -0.109   0.262  0.00  0.00    -0.267 OA
ATOM     28  H   UNL d   1       4.937  -1.729   2.968  0.00  0.00     0.171 HD
BRANCH  26  29
ATOM     29  C   UNL d   1       5.873   0.638   2.430  0.00  0.00     0.032 A 
ATOM     30  C   UNL d   1       6.879   1.510   1.984  0.00  0.00     0.018 A 
ATOM     31  C   UNL d   1       7.344   2.539   2.807  0.00  0.00     0.025 A 
ATOM     32  C   UNL d   1       6.797   2.704   4.077  0.00  0.00     0.034 A 
ATOM     33  C   UNL d   1       5.807   1.835   4.537  0.00  0.00     0.025 A 
ATOM     34 CL   UNL d   1       7.321   4.007   5.070  0.00  0.00    -0.084 Cl
ATOM     35  C   UNL d   1       5.341   0.799   3.716  0.00  0.00     0.018 A 
ENDBRANCH  26  29
ENDBRANCH  23  25
ENDBRANCH  21  23
ENDBRANCH   2  21
TORSDOF 9
