REMARK  4 active torsions:
REMARK  status: ('A' for Active; 'I' for Inactive)
REMARK    1  A    between atoms: C_2  and  C_1 
REMARK       I    between atoms: N_3  and  C_1 
REMARK    2  A    between atoms: C_6  and  N_3 
REMARK    3  A    between atoms: O_4  and  C_8 
REMARK    4  A    between atoms: C_5  and  O_4 
ROOT
ATOM      1  C   UNL d   1      -0.925  -0.904   0.098  0.00  0.00     0.069 C 
ATOM      2  C   UNL d   1      -1.502  -0.460  -1.107  0.00  0.00     0.102 C 
ATOM      3  C   UNL d   1      -1.678  -1.761   0.919  0.00  0.00     0.032 C 
ATOM      4  C   UNL d   1      -2.868  -0.686  -1.346  0.00  0.00     0.039 C 
ATOM      5  C   UNL d   1      -3.626  -1.462  -0.474  0.00  0.00     0.003 C 
ATOM      6  C   UNL d   1      -3.018  -2.037   0.636  0.00  0.00     0.002 C 
ENDROOT
BRANCH   1   7
ATOM      7  N   UNL d   1       0.384  -0.614   0.554  0.00  0.00    -0.320 N 
ATOM      8  C   UNL d   1       1.038   0.596   0.398  0.00  0.00     0.262 C 
ATOM      9  O   UNL d   1       0.508   1.613  -0.039  0.00  0.00    -0.267 OA
ATOM     10  H   UNL d   1       0.763  -1.252   1.245  0.00  0.00     0.169 HD
BRANCH   8  11
ATOM     11  C   UNL d   1       2.466   0.640   0.834  0.00  0.00     0.109 A 
ATOM     12  C   UNL d   1       3.068  -0.401   1.551  0.00  0.00     0.135 A 
ATOM     13  F   UNL d   1       2.359  -1.480   1.921  0.00  0.00    -0.205 F 
ATOM     14  C   UNL d   1       4.419  -0.355   1.912  0.00  0.00     0.043 A 
ATOM     15  C   UNL d   1       5.196   0.745   1.561  0.00  0.00     0.006 A 
ATOM     16  C   UNL d   1       4.614   1.796   0.855  0.00  0.00     0.043 A 
ATOM     17  C   UNL d   1       3.267   1.739   0.497  0.00  0.00     0.135 A 
ATOM     18  F   UNL d   1       2.776   2.772  -0.204  0.00  0.00    -0.205 F 
ENDBRANCH   8  11
ENDBRANCH   1   7
BRANCH   2  19
ATOM     19  O   UNL d   1      -0.870   0.126  -2.184  0.00  0.00    -0.307 OA
BRANCH  19  20
ATOM     20  C   UNL d   1       0.408  -0.243  -2.538  0.00  0.00     0.098 C 
ATOM     21  C   UNL d   1       0.976  -1.524  -2.499  0.00  0.00     0.069 C 
ATOM     22  C   UNL d   1       2.353  -1.676  -2.701  0.00  0.00     0.050 C 
ATOM     23 CL   UNL d   1       0.067  -2.974  -2.258  0.00  0.00    -0.081 Cl
ATOM     24  C   UNL d   1       3.137  -0.572  -3.030  0.00  0.00     0.035 C 
ATOM     25  C   UNL d   1       2.554   0.676  -3.217  0.00  0.00     0.026 C 
ATOM     26 CL   UNL d   1       4.839  -0.752  -3.195  0.00  0.00    -0.084 Cl
ATOM     27  C   UNL d   1       1.191   0.836  -2.976  0.00  0.00     0.041 C 
ENDBRANCH  19  20
ENDBRANCH   2  19
TORSDOF 4
