REMARK  5 active torsions:
REMARK  status: ('A' for Active; 'I' for Inactive)
REMARK    1  A    between atoms: C_6  and  N_1 
REMARK    2  A    between atoms: N_2  and  C_5 
REMARK    3  A    between atoms: C_3  and  N_2 
REMARK    4  A    between atoms: N_11  and  C_4 
REMARK    5  A    between atoms: C_12  and  C_6 
ROOT
ATOM      1  N   UNL d   1       1.183   0.106   0.854  0.00  0.00     0.092 N 
ATOM      2  C   UNL d   1      -1.524   0.169  -0.335  0.00  0.00     0.085 C 
ATOM      3  C   UNL d   1      -0.908   1.398   0.328  0.00  0.00     0.055 C 
ATOM      4  C   UNL d   1      -0.976  -1.076   0.372  0.00  0.00     0.055 C 
ATOM      5  C   UNL d   1       0.618   1.342   0.289  0.00  0.00     0.275 C 
ATOM      6  C   UNL d   1       0.554  -1.117   0.351  0.00  0.00     0.275 C 
ENDROOT
BRANCH   2   7
ATOM      7  N   UNL d   1      -1.198   0.107  -1.761  0.00  0.00    -0.384 N 
ATOM      8  H   UNL d   1      -0.527  -0.595  -2.027  0.00  0.00     0.160 HD
BRANCH   7   9
ATOM      9  C   UNL d   1      -1.990   0.563  -2.806  0.00  0.00     0.049 A 
ATOM     10  C   UNL d   1      -1.748   0.111  -4.129  0.00  0.00     0.032 A 
ATOM     11  C   UNL d   1      -2.502   0.632  -5.190  0.00  0.00     0.025 A 
ATOM     12  C   UNL d   1      -3.532   1.543  -4.964  0.00  0.00     0.002 A 
ATOM     13  C   UNL d   1      -3.789   1.973  -3.669  0.00  0.00     0.002 A 
ATOM     14  C   UNL d   1      -3.019   1.495  -2.602  0.00  0.00     0.031 A 
BRANCH  10  15
ATOM     15  N   UNL d   1      -0.628  -0.683  -4.463  0.00  0.00    -0.301 NA
ATOM     16  H   UNL d   1      -0.222  -1.205  -3.700  0.00  0.00     0.124 HD
ATOM     17  H   UNL d   1      -0.780  -1.259  -5.283  0.00  0.00     0.124 HD
ENDBRANCH  10  15
ENDBRANCH   7   9
ENDBRANCH   2   7
BRANCH   1  18
ATOM     18  C   UNL d   1       2.660   0.064   0.727  0.00  0.00     0.311 C 
BRANCH  18  19
ATOM     19  C   UNL d   1       3.225   0.175  -0.681  0.00  0.00    -0.030 A 
ATOM     20  C   UNL d   1       3.507   1.435  -1.234  0.00  0.00     0.009 A 
ATOM     21  C   UNL d   1       3.928   1.559  -2.559  0.00  0.00     0.001 A 
ATOM     22  C   UNL d   1       4.096   0.422  -3.345  0.00  0.00     0.000 A 
ATOM     23  C   UNL d   1       3.858  -0.839  -2.801  0.00  0.00     0.001 A 
ATOM     24  C   UNL d   1       3.430  -0.963  -1.476  0.00  0.00     0.009 A 
ENDBRANCH  18  19
ENDBRANCH   1  18
TORSDOF 5
