REMARK  4 active torsions:
REMARK  status: ('A' for Active; 'I' for Inactive)
REMARK    1  A    between atoms: C_9  and  N_2 
REMARK    2  A    between atoms: C_11  and  N_6 
REMARK    3  A    between atoms: C_10  and  C_8 
REMARK    4  A    between atoms: O_19  and  C_10 
ROOT
ATOM      1  C   UNL d   1      -1.211   0.271  -0.330  0.00  0.00     0.161 C 
ATOM      2  N   UNL d   1      -0.841  -1.060  -0.128  0.00  0.00    -0.257 N 
ATOM      3  C   UNL d   1       1.021   0.076   0.817  0.00  0.00     0.082 C 
ATOM      4  C   UNL d   1       0.419  -1.233   0.446  0.00  0.00     0.271 C 
ATOM      5  S   UNL d   1      -0.106   1.319   0.548  0.00  0.00    -0.048 SA
ATOM      6  N   UNL d   1      -2.239   0.657  -1.013  0.00  0.00    -0.322 N 
ATOM      7  HN  UNL d   1      -2.856  -0.053  -1.407  1.00  0.00     0.169 HD
ATOM      8  C   UNL d   1       2.290   0.182   1.232  0.00  0.00     0.106 C 
ATOM      9  O   UNL d   1       1.054  -2.273   0.596  0.00  0.00    -0.266 OA
ENDROOT
BRANCH   2  10
ATOM     10  C   UNL d   1      -1.671  -2.194  -0.476  0.00  0.00     0.045 A 
ATOM     11  C   UNL d   1      -1.517  -3.429   0.186  0.00  0.00     0.032 A 
ATOM     12  C   UNL d   1      -2.353  -4.524  -0.078  0.00  0.00     0.026 A 
ATOM     13  C   UNL d   1      -3.370  -4.409  -1.014  0.00  0.00     0.034 A 
ATOM     14  C   UNL d   1      -3.542  -3.214  -1.698  0.00  0.00     0.026 A 
ATOM     15 CL   UNL d   1      -4.416  -5.737  -1.322  0.00  0.00    -0.084 Cl
ATOM     16  C   UNL d   1      -2.697  -2.124  -1.435  0.00  0.00     0.032 A 
ENDBRANCH   2  10
BRANCH   6  17
ATOM     17  C   UNL d   1      -2.543   2.001  -1.236  0.00  0.00     0.106 A 
ATOM     18  N   UNL d   1      -1.532   2.845  -1.519  0.00  0.00    -0.352 N 
ATOM     19  C   UNL d   1      -1.836   4.148  -1.697  0.00  0.00     0.089 A 
ATOM     20  HN  UNL d   1      -0.571   2.511  -1.597  1.00  0.00     0.166 HD
ATOM     21  C   UNL d   1      -3.127   4.644  -1.685  0.00  0.00     0.017 A 
ATOM     22  C   UNL d   1      -4.166   3.746  -1.478  0.00  0.00     0.005 A 
ATOM     23  C   UNL d   1      -3.871   2.404  -1.247  0.00  0.00     0.048 A 
ENDBRANCH   6  17
BRANCH   8  24
ATOM     24  C   UNL d   1       2.946   1.461   1.572  0.00  0.00     0.283 C 
ATOM     25  O   UNL d   1       2.386   2.495   1.890  0.00  0.00    -0.260 OA
BRANCH  24  26
ATOM     26  O   UNL d   1       4.287   1.287   1.460  0.00  0.00    -0.323 OA
ATOM     27  C   UNL d   1       5.033   2.482   1.703  0.00  0.00     0.213 C 
ENDBRANCH  24  26
ENDBRANCH   8  24
TORSDOF 4
