REMARK  5 active torsions:
REMARK  status: ('A' for Active; 'I' for Inactive)
REMARK    1  A    between atoms: O_7  and  N_1 
REMARK    2  A    between atoms: C_15  and  C_2 
REMARK    3  A    between atoms: C_10  and  O_7 
REMARK    4  A    between atoms: C_9  and  C_11 
REMARK    5  A    between atoms: C_12  and  C_10 
ROOT
ATOM      1  N   UNL d   1       2.597  -0.542  -0.259  0.00  0.00    -0.157 N 
ATOM      2  C   UNL d   1       2.582   0.819  -0.500  0.00  0.00     0.148 C 
ATOM      3  C   UNL d   1       1.478  -1.287   0.095  0.00  0.00     0.286 C 
ATOM      4  N   UNL d   1       1.456   1.476  -0.528  0.00  0.00    -0.339 N 
ATOM      5  HN  UNL d   1       1.451   2.481  -0.697  1.00  0.00     0.167 HD
ATOM      6  C   UNL d   1       0.200  -0.577  -0.042  0.00  0.00     0.061 A 
ATOM      7  C   UNL d   1       0.253   0.788  -0.323  0.00  0.00     0.049 A 
ATOM      8  O   UNL d   1       1.508  -2.437   0.529  0.00  0.00    -0.265 OA
ATOM      9  C   UNL d   1      -1.018  -1.242   0.125  0.00  0.00     0.019 A 
ATOM     10  C   UNL d   1      -0.948   1.497  -0.409  0.00  0.00     0.030 A 
ATOM     11  C   UNL d   1      -2.210  -0.526   0.022  0.00  0.00     0.001 A 
ATOM     12  C   UNL d   1      -2.174   0.845  -0.235  0.00  0.00     0.002 A 
ENDROOT
BRANCH   1  13
ATOM     13  O   UNL d   1       3.797  -1.244  -0.043  0.00  0.00    -0.183 OA
BRANCH  13  14
ATOM     14  C   UNL d   1       4.094  -2.107  -1.055  0.00  0.00     0.315 C 
ATOM     15  O   UNL d   1       3.538  -2.189  -2.138  0.00  0.00    -0.257 OA
BRANCH  14  16
ATOM     16  C   UNL d   1       5.301  -2.882  -0.672  0.00  0.00     0.042 A 
ATOM     17  C   UNL d   1       5.597  -3.183   0.667  0.00  0.00     0.034 A 
ATOM     18  C   UNL d   1       6.774  -3.879   0.997  0.00  0.00     0.048 A 
ATOM     19  C   UNL d   1       7.650  -4.256  -0.033  0.00  0.00     0.016 A 
ATOM     20  C   UNL d   1       7.341  -3.981  -1.367  0.00  0.00     0.002 A 
ATOM     21  C   UNL d   1       6.166  -3.304  -1.687  0.00  0.00     0.018 A 
BRANCH  18  22
ATOM     22  C   UNL d   1       7.112  -4.178   2.439  0.00  0.00     0.417 C 
ATOM     23  F   UNL d   1       6.014  -4.440   3.200  0.00  0.00    -0.166 F 
ATOM     24  F   UNL d   1       7.934  -5.253   2.586  0.00  0.00    -0.166 F 
ATOM     25  F   UNL d   1       7.746  -3.136   3.042  0.00  0.00    -0.166 F 
ENDBRANCH  18  22
ENDBRANCH  14  16
ENDBRANCH  13  14
ENDBRANCH   1  13
BRANCH   2  26
ATOM     26  C   UNL d   1       3.841   1.592  -0.780  0.00  0.00     0.010 A 
ATOM     27  C   UNL d   1       3.717   2.755  -1.562  0.00  0.00     0.015 A 
ATOM     28  C   UNL d   1       4.825   3.553  -1.858  0.00  0.00     0.001 A 
ATOM     29  C   UNL d   1       6.081   3.196  -1.381  0.00  0.00     0.000 A 
ATOM     30  C   UNL d   1       6.222   2.057  -0.592  0.00  0.00     0.001 A 
ATOM     31  C   UNL d   1       5.107   1.269  -0.277  0.00  0.00     0.015 A 
ENDBRANCH   2  26
TORSDOF 5
