REMARK  4 active torsions:
REMARK  status: ('A' for Active; 'I' for Inactive)
REMARK    1  A    between atoms: C_3  and  S_1 
REMARK    2  A    between atoms: N_4  and  S_1 
REMARK    3  A    between atoms: C_2  and  N_9 
REMARK    4  A    between atoms: C_27  and  C_10 
ROOT
ATOM      1  N   UNL d   1       0.302   0.684  -0.705  0.00  0.00    -0.204 NA
ATOM      2  N   UNL d   1      -1.296   2.973   0.125  0.00  0.00    -0.265 NA
ATOM      3  C   UNL d   1       0.782   2.100  -0.887  0.00  0.00     0.122 C 
ATOM      4  C   UNL d   1      -1.198   0.631  -0.584  0.00  0.00     0.122 C 
ATOM      5  C   UNL d   1      -1.750   1.612   0.473  0.00  0.00     0.112 C 
ATOM      6  C   UNL d   1       0.181   3.065   0.169  0.00  0.00     0.112 C 
ENDROOT
BRANCH   2   7
ATOM      7  C   UNL d   1      -1.939   4.016   0.814  0.00  0.00     0.106 A 
ATOM      8  N   UNL d   1      -2.502   3.776   2.022  0.00  0.00    -0.344 N 
ATOM      9  C   UNL d   1      -3.116   4.807   2.654  0.00  0.00     0.060 A 
ATOM     10  HN  UNL d   1      -2.467   2.848   2.444  1.00  0.00     0.167 HD
ATOM     11  C   UNL d   1      -3.697   4.623   3.905  0.00  0.00     0.032 A 
ATOM     12  C   UNL d   1      -3.182   6.093   2.071  0.00  0.00     0.059 A 
ATOM     13  C   UNL d   1      -4.337   5.668   4.582  0.00  0.00     0.002 A 
ATOM     14  C   UNL d   1      -4.403   6.924   3.998  0.00  0.00     0.002 A 
ATOM     15  C   UNL d   1      -3.822   7.125   2.747  0.00  0.00     0.032 A 
ATOM     16  N   UNL d   1      -2.640   6.341   0.873  0.00  0.00    -0.355 N 
ATOM     17  C   UNL d   1      -2.040   5.299   0.236  0.00  0.00     0.048 A 
ATOM     18  HN  UNL d   1      -2.675   7.271   0.455  1.00  0.00     0.166 HD
BRANCH  17  19
ATOM     19  C   UNL d   1      -1.460   5.598  -1.128  0.00  0.00     0.056 C 
ATOM     20  C   UNL d   1      -2.223   6.656  -1.913  0.00  0.00     0.011 C 
ENDBRANCH  17  19
ENDBRANCH   2   7
BRANCH   1  21
ATOM     21  S   UNL d   1       1.189  -0.255   0.412  0.00  0.00     0.244 S 
ATOM     22  O   UNL d   1       1.646   0.661   1.429  0.00  0.00    -0.206 OA
ATOM     23  O   UNL d   1       0.417  -1.428   0.772  0.00  0.00    -0.206 OA
BRANCH  21  24
ATOM     24  C   UNL d   1       2.590  -0.838  -0.586  0.00  0.00     0.086 A 
ATOM     25  C   UNL d   1       3.930  -0.530  -0.247  0.00  0.00    -0.037 A 
ATOM     26  C   UNL d   1       4.969  -0.931  -1.116  0.00  0.00     0.032 A 
ATOM     27  C   UNL d   1       4.392   0.207   0.985  0.00  0.00     0.050 C 
ATOM     28  C   UNL d   1       4.708  -1.680  -2.256  0.00  0.00     0.035 A 
ATOM     29  C   UNL d   1       3.408  -2.054  -2.548  0.00  0.00     0.032 A 
ATOM     30 CL   UNL d   1       5.999  -2.178  -3.276  0.00  0.00    -0.084 Cl
ATOM     31  C   UNL d   1       2.328  -1.649  -1.729  0.00  0.00    -0.037 A 
ATOM     32  C   UNL d   1       0.990  -2.210  -2.130  0.00  0.00     0.050 C 
ENDBRANCH  21  24
ENDBRANCH   1  21
TORSDOF 4
