REMARK  5 active torsions:
REMARK  status: ('A' for Active; 'I' for Inactive)
REMARK    1  A    between atoms: N_2  and  C_1 
REMARK    2  A    between atoms: N_4  and  C_1 
REMARK    3  A    between atoms: C_3  and  C_9 
REMARK    4  A    between atoms: C_16  and  N_4 
REMARK    5  A    between atoms: C_9  and  N_6 
ROOT
ATOM      1  N   UNL d   1       0.003   0.258   0.998  0.00  0.00    -0.356 N 
ATOM      2  N   UNL d   1      -2.204  -0.385   3.130  0.00  0.00     0.094 N 
ATOM      3  C   UNL d   1      -0.886  -0.906   0.975  0.00  0.00     0.155 C 
ATOM      4  C   UNL d   1      -2.225  -0.665   1.689  0.00  0.00     0.292 C 
ATOM      5  C   UNL d   1      -0.196   1.269   3.304  0.00  0.00     0.050 C 
ATOM      6  C   UNL d   1       0.642   0.505   2.291  0.00  0.00     0.127 C 
ATOM      7  C   UNL d   1      -1.689   0.953   3.424  0.00  0.00     0.274 C 
ENDROOT
BRANCH   1   8
ATOM      8  C   UNL d   1       0.818   0.485  -0.110  0.00  0.00     0.174 C 
ATOM      9  S   UNL d   1       1.885  -0.629  -0.760  0.00  0.00    -0.041 SA
BRANCH   8  10
ATOM     10  N   UNL d   1       0.841   1.780  -0.563  0.00  0.00    -0.332 N 
ATOM     11  H   UNL d   1       1.672   2.033  -1.087  0.00  0.00     0.168 HD
BRANCH  10  12
ATOM     12  C   UNL d   1      -0.251   2.669  -0.677  0.00  0.00     0.049 A 
ATOM     13  C   UNL d   1      -0.011   4.024  -0.891  0.00  0.00     0.117 A 
ATOM     14  N   UNL d   1      -0.979   4.949  -1.105  0.00  0.00    -0.373 N 
ATOM     15  C   UNL d   1      -2.249   4.496  -1.137  0.00  0.00     0.088 A 
ATOM     16  HN  UNL d   1      -0.758   5.936  -1.237  1.00  0.00     0.164 HD
ATOM     17  C   UNL d   1      -2.596   3.168  -0.951  0.00  0.00     0.019 A 
ATOM     18  C   UNL d   1      -1.576   2.249  -0.714  0.00  0.00     0.032 A 
ENDBRANCH  10  12
ENDBRANCH   8  10
ENDBRANCH   1   8
BRANCH   2  19
ATOM     19  C   UNL d   1      -1.660  -1.460   3.968  0.00  0.00     0.312 C 
BRANCH  19  20
ATOM     20  C   UNL d   1      -2.463  -2.749   3.882  0.00  0.00    -0.008 A 
ATOM     21  C   UNL d   1      -1.935  -3.971   3.421  0.00  0.00     0.043 A 
ATOM     22  C   UNL d   1      -2.731  -5.120   3.361  0.00  0.00     0.048 A 
ATOM     23 CL   UNL d   1      -0.288  -4.144   2.926  0.00  0.00    -0.084 Cl
ATOM     24  C   UNL d   1      -4.058  -5.070   3.776  0.00  0.00     0.035 A 
ATOM     25  C   UNL d   1      -4.601  -3.877   4.241  0.00  0.00     0.024 A 
ATOM     26 CL   UNL d   1      -5.024  -6.490   3.721  0.00  0.00    -0.084 Cl
ATOM     27  C   UNL d   1      -3.813  -2.728   4.291  0.00  0.00     0.012 A 
ENDBRANCH  19  20
ENDBRANCH   2  19
TORSDOF 5
