REMARK  1 active torsions:
REMARK  status: ('A' for Active; 'I' for Inactive)
REMARK    1  A    between atoms: C_12  and  C_5 
ROOT
ATOM      1  C   UNL d   1      -0.363   1.030   0.104  0.00  0.00     0.138 A 
ATOM      2  N   UNL d   1      -1.342   0.149  -0.342  0.00  0.00    -0.329 N 
ATOM      3  HN  UNL d   1      -2.345   0.315  -0.426  1.00  0.00     0.168 HD
ATOM      4  C   UNL d   1       0.934   0.286   0.161  0.00  0.00     0.319 A 
ATOM      5  C   UNL d   1      -0.685  -0.928  -0.626  0.00  0.00     0.162 A 
ATOM      6  C   UNL d   1      -0.610   2.338   0.401  0.00  0.00     0.067 A 
ATOM      7  O   UNL d   1       0.638  -0.928  -0.381  0.00  0.00    -0.255 OA
ATOM      8  N   UNL d   1       0.280   3.418   0.698  0.00  0.00    -0.359 N 
ATOM      9  C   UNL d   1      -2.056   2.711   0.424  0.00  0.00     0.032 A 
ATOM     10  O   UNL d   1       2.017   0.587   0.623  0.00  0.00    -0.257 OA
ATOM     11  C   UNL d   1      -0.246   4.665   1.068  0.00  0.00     0.091 A 
ATOM     12  C   UNL d   1      -2.494   3.932   0.771  0.00  0.00     0.004 A 
ATOM     13  C   UNL d   1      -1.550   4.959   1.119  0.00  0.00     0.017 A 
ATOM     14  C   UNL d   1       1.738   3.348   0.547  0.00  0.00     0.156 C 
ENDROOT
BRANCH   5  15
ATOM     15  C   UNL d   1      -1.231  -2.176  -1.186  0.00  0.00     0.015 A 
ATOM     16  C   UNL d   1      -2.600  -2.258  -1.471  0.00  0.00     0.016 A 
ATOM     17  C   UNL d   1      -3.136  -3.434  -2.002  0.00  0.00     0.001 A 
ATOM     18  C   UNL d   1      -2.309  -4.529  -2.251  0.00  0.00     0.000 A 
ATOM     19  C   UNL d   1      -0.945  -4.450  -1.974  0.00  0.00     0.001 A 
ATOM     20  C   UNL d   1      -0.404  -3.277  -1.444  0.00  0.00     0.016 A 
ENDBRANCH   5  15
TORSDOF 1
