REMARK  4 active torsions:
REMARK  status: ('A' for Active; 'I' for Inactive)
REMARK    1  A    between atoms: N_2  and  C_1 
REMARK    2  A    between atoms: N_3  and  C_1 
REMARK    3  A    between atoms: C_4  and  N_2 
REMARK    4  A    between atoms: C_7  and  N_3 
ROOT
ATOM      1  N   UNL d   1       0.553  -1.248   0.052  0.00  0.00    -0.332 N 
ATOM      2  H   UNL d   1       0.070  -1.643  -0.745  0.00  0.00     0.168 HD
ENDROOT
BRANCH   1   3
ATOM      3  C   UNL d   1       1.004   0.027  -0.129  0.00  0.00     0.172 C 
ATOM      4  S   UNL d   1       2.571   0.566   0.111  0.00  0.00    -0.041 SA
BRANCH   3   5
ATOM      5  N   UNL d   1       0.104   0.941  -0.584  0.00  0.00    -0.359 N 
ATOM      6  H   UNL d   1       0.535   1.849  -0.721  0.00  0.00     0.162 HD
BRANCH   5   7
ATOM      7  C   UNL d   1      -1.372   0.908  -0.665  0.00  0.00     0.021 C 
ATOM      8  C   UNL d   1      -2.004   0.392   0.638  0.00  0.00     0.037 C 
ATOM      9  C   UNL d   1      -1.850   2.360  -0.876  0.00  0.00     0.037 C 
ATOM     10  C   UNL d   1      -1.847   0.071  -1.860  0.00  0.00     0.037 C 
ENDBRANCH   5   7
ENDBRANCH   3   5
ENDBRANCH   1   3
BRANCH   1  11
ATOM     11  C   UNL d   1       0.963  -2.187   1.028  0.00  0.00     0.056 A 
ATOM     12  C   UNL d   1       0.845  -3.562   0.767  0.00  0.00     0.060 A 
ATOM     13 CL   UNL d   1       0.294  -4.135  -0.770  0.00  0.00    -0.082 Cl
ATOM     14  C   UNL d   1       1.189  -4.504   1.741  0.00  0.00     0.026 A 
ATOM     15  C   UNL d   1       1.624  -4.080   2.997  0.00  0.00     0.002 A 
ATOM     16  C   UNL d   1       1.715  -2.718   3.277  0.00  0.00     0.002 A 
ATOM     17  C   UNL d   1       1.385  -1.777   2.298  0.00  0.00     0.031 A 
ENDBRANCH   1  11
TORSDOF 4
