REMARK  6 active torsions:
REMARK  status: ('A' for Active; 'I' for Inactive)
REMARK    1  A    between atoms: C_13  and  C_1 
REMARK    2  A    between atoms: C_8  and  N_2 
REMARK    3  A    between atoms: C_17  and  C_5 
REMARK    4  A    between atoms: C_9  and  C_11 
REMARK    5  A    between atoms: C_10  and  C_12 
REMARK    6  A    between atoms: O_25  and  C_13 
ROOT
ATOM      1  C   UNL d   1      -0.154  -1.265   0.184  0.00  0.00     0.152 C 
ATOM      2  N   UNL d   1       1.005   0.582   0.057  0.00  0.00    -0.239 N 
ATOM      3  N   UNL d   1      -0.281   0.912   0.326  0.00  0.00    -0.235 N 
ATOM      4  HN  UNL d   1      -0.631   1.853   0.505  1.00  0.00     0.209 HD
ATOM      5  C   UNL d   1       1.162  -0.812   0.076  0.00  0.00     0.103 C 
ATOM      6  N   UNL d   1      -1.002  -0.191   0.315  0.00  0.00    -0.278 N 
ATOM      7  HN  UNL d   1      -2.018  -0.240   0.391  1.00  0.00     0.189 HD
ENDROOT
BRANCH   2   8
ATOM      8  C   UNL d   1       1.976   1.600  -0.152  0.00  0.00     0.060 A 
ATOM      9  C   UNL d   1       3.066   1.370  -1.003  0.00  0.00     0.047 A 
ATOM     10  C   UNL d   1       4.137   2.270  -1.052  0.00  0.00     0.051 A 
ATOM     11  C   UNL d   1       4.074   3.436  -0.273  0.00  0.00     0.032 A 
ATOM     12  C   UNL d   1       2.950   3.723   0.523  0.00  0.00     0.051 A 
ATOM     13  C   UNL d   1       1.889   2.802   0.565  0.00  0.00     0.047 A 
BRANCH  10  14
ATOM     14  C   UNL d   1       5.360   1.967  -1.886  0.00  0.00     0.417 C 
ATOM     15  F   UNL d   1       5.264   0.807  -2.592  0.00  0.00    -0.166 F 
ATOM     16  F   UNL d   1       5.620   2.942  -2.798  0.00  0.00    -0.166 F 
ATOM     17  F   UNL d   1       6.483   1.851  -1.126  0.00  0.00    -0.166 F 
ENDBRANCH  10  14
BRANCH  12  18
ATOM     18  C   UNL d   1       2.931   4.988   1.353  0.00  0.00     0.417 C 
ATOM     19  F   UNL d   1       1.784   5.158   2.066  0.00  0.00    -0.166 F 
ATOM     20  F   UNL d   1       3.945   5.020   2.261  0.00  0.00    -0.166 F 
ATOM     21  F   UNL d   1       3.073   6.107   0.592  0.00  0.00    -0.166 F 
ENDBRANCH  12  18
ENDBRANCH   2   8
BRANCH   5  22
ATOM     22  C   UNL d   1       2.451  -1.522   0.086  0.00  0.00    -0.005 A 
ATOM     23  C   UNL d   1       3.535  -1.040   0.844  0.00  0.00     0.014 A 
ATOM     24  C   UNL d   1       4.792  -1.647   0.783  0.00  0.00     0.001 A 
ATOM     25  C   UNL d   1       4.966  -2.800   0.028  0.00  0.00     0.000 A 
ATOM     26  C   UNL d   1       3.891  -3.331  -0.679  0.00  0.00     0.001 A 
ATOM     27  C   UNL d   1       2.650  -2.684  -0.669  0.00  0.00     0.014 A 
ENDBRANCH   5  22
BRANCH   1  28
ATOM     28  C   UNL d   1      -0.689  -2.619   0.237  0.00  0.00     0.197 C 
ATOM     29  O   UNL d   1      -0.033  -3.648   0.233  0.00  0.00    -0.645 OA
BRANCH  28  30
ATOM     30  O   UNL d   1      -2.054  -2.648   0.277  0.00  0.00    -0.772 OA
ATOM     31  H   UNL d   1      -2.410  -1.733   0.276  0.00  0.00     0.167 HD
ENDBRANCH  28  30
ENDBRANCH   1  28
TORSDOF 6
