REMARK  5 active torsions:
REMARK  status: ('A' for Active; 'I' for Inactive)
REMARK    1  A    between atoms: C_2  and  C_1 
REMARK    2  A    between atoms: C_11  and  C_4 
REMARK    3  A    between atoms: C_5  and  C_9 
REMARK    4  A    between atoms: C_7  and  C_11 
REMARK    5  A    between atoms: N_20  and  C_12 
ROOT
ATOM      1  C   UNL d   1      -0.045   1.095  -0.003  0.00  0.00     0.088 A 
ATOM      2  O   UNL d   1      -0.943   0.053  -0.011  0.00  0.00    -0.306 OA
ATOM      3  C   UNL d   1      -0.224  -1.117   0.001  0.00  0.00     0.126 A 
ATOM      4  C   UNL d   1       1.238   0.585  -0.021  0.00  0.00     0.041 A 
ATOM      5  C   UNL d   1       1.125  -0.821   0.003  0.00  0.00     0.044 A 
ENDROOT
BRANCH   1   6
ATOM      6  C   UNL d   1      -0.610   2.450   0.013  0.00  0.00     0.020 A 
ATOM      7  C   UNL d   1      -1.831   2.692  -0.650  0.00  0.00     0.032 A 
ATOM      8  C   UNL d   1      -2.414   3.975  -0.692  0.00  0.00     0.048 A 
ATOM      9  C   UNL d   1      -1.758   5.038  -0.059  0.00  0.00     0.018 A 
ATOM     10  C   UNL d   1      -0.552   4.822   0.603  0.00  0.00     0.026 A 
ATOM     11  C   UNL d   1       0.018   3.542   0.646  0.00  0.00     0.047 A 
ATOM     12 CL   UNL d   1       1.487   3.406   1.552  0.00  0.00    -0.083 Cl
BRANCH   8  13
ATOM     13  C   UNL d   1      -3.728   4.225  -1.394  0.00  0.00     0.417 C 
ATOM     14  F   UNL d   1      -4.243   3.123  -2.002  0.00  0.00    -0.166 F 
ATOM     15  F   UNL d   1      -4.692   4.668  -0.540  0.00  0.00    -0.166 F 
ATOM     16  F   UNL d   1      -3.625   5.176  -2.364  0.00  0.00    -0.166 F 
ENDBRANCH   8  13
ENDBRANCH   1   6
BRANCH   3  17
ATOM     17  C   UNL d   1      -0.871  -2.418   0.005  0.00  0.00     0.206 C 
ATOM     18  O   UNL d   1      -0.220  -3.463   0.026  0.00  0.00    -0.285 OA
BRANCH  17  19
ATOM     19  C   UNL d   1      -2.364  -2.470  -0.025  0.00  0.00     0.074 C 
ATOM     20  C   UNL d   1      -2.994  -3.655  -0.053  0.00  0.00     0.088 C 
BRANCH  20  21
ATOM     21  N   UNL d   1      -4.350  -3.950  -0.085  0.00  0.00    -0.398 N 
ATOM     22  C   UNL d   1      -5.419  -2.955  -0.106  0.00  0.00     0.148 C 
ATOM     23  C   UNL d   1      -4.829  -5.336  -0.126  0.00  0.00     0.148 C 
ENDBRANCH  20  21
ENDBRANCH  17  19
ENDBRANCH   3  17
TORSDOF 5
