REMARK  7 active torsions:
REMARK  status: ('A' for Active; 'I' for Inactive)
REMARK    1  A    between atoms: C_4  and  C_1 
REMARK    2  A    between atoms: N_5  and  C_2 
REMARK       I    between atoms: C_3  and  N_6 
REMARK    3  A    between atoms: C_9  and  C_3 
REMARK    4  A    between atoms: O_17  and  C_4 
REMARK    5  A    between atoms: N_6  and  C_10 
REMARK    6  A    between atoms: C_25  and  C_20 
REMARK    7  A    between atoms: C_27  and  C_25 
ROOT
ATOM      1  C   UNL d   1       1.452  -0.228   0.136  0.00  0.00     0.068 A 
ATOM      2  C   UNL d   1       0.662  -1.376  -0.111  0.00  0.00     0.046 A 
ATOM      3  C   UNL d   1       0.868   1.058   0.178  0.00  0.00     0.049 A 
ATOM      4  C   UNL d   1      -0.702  -1.146  -0.379  0.00  0.00     0.032 A 
ATOM      5  C   UNL d   1      -0.495   1.249  -0.024  0.00  0.00     0.036 A 
ATOM      6  C   UNL d   1      -1.274   0.136  -0.339  0.00  0.00     0.032 A 
ENDROOT
BRANCH   5   7
ATOM      7  N   UNL d   1      -1.139   2.500   0.097  0.00  0.00    -0.323 N 
ATOM      8  C   UNL d   1      -0.531   3.731   0.291  0.00  0.00     0.256 C 
ATOM      9  O   UNL d   1       0.671   3.970   0.250  0.00  0.00    -0.267 OA
ATOM     10  H   UNL d   1      -2.145   2.495  -0.005  0.00  0.00     0.169 HD
BRANCH   8  11
ATOM     11  C   UNL d   1      -1.464   4.871   0.492  0.00  0.00     0.032 A 
ATOM     12  C   UNL d   1      -2.640   4.746   1.240  0.00  0.00     0.017 A 
ATOM     13  C   UNL d   1      -3.529   5.822   1.324  0.00  0.00     0.008 A 
ATOM     14  C   UNL d   1      -3.250   7.030   0.666  0.00  0.00    -0.058 A 
ATOM     15  C   UNL d   1      -2.027   7.174  -0.001  0.00  0.00     0.008 A 
ATOM     16  C   UNL d   1      -1.140   6.101  -0.090  0.00  0.00     0.017 A 
BRANCH  14  17
ATOM     17  C   UNL d   1      -4.268   8.146   0.646  0.00  0.00     0.038 C 
BRANCH  17  18
ATOM     18  C   UNL d   1      -4.733   8.524  -0.768  0.00  0.00     0.000 C 
ATOM     19  C   UNL d   1      -5.416   7.381  -1.509  0.00  0.00     0.005 C 
ENDBRANCH  17  18
ENDBRANCH  14  17
ENDBRANCH   8  11
ENDBRANCH   5   7
BRANCH   1  20
ATOM     20  C   UNL d   1       2.946  -0.295   0.266  0.00  0.00     0.295 C 
ATOM     21  O   UNL d   1       3.669  -1.132  -0.245  0.00  0.00    -0.259 OA
BRANCH  20  22
ATOM     22  O   UNL d   1       3.372   0.715   1.071  0.00  0.00    -0.322 OA
ATOM     23  C   UNL d   1       4.785   0.831   1.237  0.00  0.00     0.213 C 
ENDBRANCH  20  22
ENDBRANCH   1  20
BRANCH   2  24
ATOM     24  N   UNL d   1       1.169  -2.669  -0.118  0.00  0.00    -0.376 N 
ATOM     25  C   UNL d   1       0.538  -3.753  -0.890  0.00  0.00     0.149 C 
ATOM     26  C   UNL d   1       1.616  -4.795  -1.247  0.00  0.00     0.187 C 
ATOM     27  O   UNL d   1       2.253  -5.315  -0.065  0.00  0.00    -0.388 OA
ATOM     28  C   UNL d   1       2.881  -4.246   0.670  0.00  0.00     0.187 C 
ATOM     29  C   UNL d   1       1.851  -3.182   1.092  0.00  0.00     0.149 C 
ENDBRANCH   2  24
TORSDOF 7
