REMARK  2 active torsions:
REMARK  status: ('A' for Active; 'I' for Inactive)
REMARK    1  A    between atoms: C_2  and  C_1 
REMARK    2  A    between atoms: C_10  and  N_3 
ROOT
ATOM      1  C   UNL d   1      -0.054   2.349   0.151  0.00  0.00     0.104 C 
ATOM      2  N   UNL d   1      -0.988   3.226  -0.051  0.00  0.00    -0.365 N 
ATOM      3  HN  UNL d   1      -1.937   2.925  -0.273  1.00  0.00     0.165 HD
ENDROOT
BRANCH   2   4
ATOM      4  C   UNL d   1      -0.683   4.592   0.039  0.00  0.00     0.033 A 
ATOM      5  C   UNL d   1      -1.601   5.431   0.682  0.00  0.00     0.056 A 
ATOM      6  C   UNL d   1      -1.375   6.809   0.750  0.00  0.00     0.074 A 
ATOM      7 CL   UNL d   1      -2.527   7.819   1.538  0.00  0.00    -0.081 Cl
ATOM      8  C   UNL d   1      -0.230   7.353   0.176  0.00  0.00     0.138 A 
ATOM      9  C   UNL d   1       0.687   6.536  -0.476  0.00  0.00     0.046 A 
ATOM     10  F   UNL d   1       0.005   8.671   0.228  0.00  0.00    -0.204 F 
ATOM     11  C   UNL d   1       0.453   5.161  -0.553  0.00  0.00     0.032 A 
ENDBRANCH   2   4
BRANCH   1  12
ATOM     12  C   UNL d   1      -0.296   0.892   0.076  0.00  0.00     0.040 A 
ATOM     13  C   UNL d   1       0.773  -0.016   0.092  0.00  0.00     0.048 A 
ATOM     14 CL   UNL d   1       2.430   0.477   0.152  0.00  0.00    -0.083 Cl
ATOM     15  C   UNL d   1       0.532  -1.397   0.043  0.00  0.00     0.025 A 
ATOM     16  C   UNL d   1      -0.773  -1.884  -0.022  0.00  0.00     0.005 A 
ATOM     17  C   UNL d   1      -1.838  -0.989  -0.044  0.00  0.00     0.043 A 
ATOM     18  C   UNL d   1      -1.599   0.386   0.005  0.00  0.00     0.129 A 
ATOM     19  F   UNL d   1      -2.669   1.192  -0.001  0.00  0.00    -0.205 F 
ENDBRANCH   1  12
TORSDOF 2
