REMARK  5 active torsions:
REMARK  status: ('A' for Active; 'I' for Inactive)
REMARK    1  A    between atoms: C_8  and  N_1 
REMARK    2  A    between atoms: C_9  and  N_2 
REMARK    3  A    between atoms: C_7  and  O_15 
REMARK    4  A    between atoms: C_10  and  C_9 
REMARK    5  A    between atoms: O_15  and  C_21 
ROOT
ATOM      1  N   UNL d   1       0.773   1.195   0.140  0.00  0.00    -0.308 N 
ATOM      2  N   UNL d   1      -0.716  -1.105   0.064  0.00  0.00    -0.342 N 
ATOM      3  C   UNL d   1       1.489  -0.007   0.233  0.00  0.00     0.242 C 
ATOM      4  C   UNL d   1      -1.364   0.018  -0.433  0.00  0.00     0.238 C 
ATOM      5  C   UNL d   1      -0.444   1.220  -0.680  0.00  0.00     0.235 C 
ATOM      6  C   UNL d   1       0.708  -1.237  -0.214  0.00  0.00     0.229 C 
ATOM      7  O   UNL d   1       2.689  -0.099   0.515  0.00  0.00    -0.271 OA
ATOM      8  O   UNL d   1      -2.551   0.045  -0.739  0.00  0.00    -0.272 OA
ENDROOT
BRANCH   1   9
ATOM      9  C   UNL d   1       1.380   2.429   0.512  0.00  0.00     0.037 A 
ATOM     10  C   UNL d   1       1.206   3.591  -0.251  0.00  0.00     0.032 A 
ATOM     11  C   UNL d   1       1.815   4.797   0.121  0.00  0.00     0.039 A 
ATOM     12  C   UNL d   1       2.611   4.857   1.260  0.00  0.00     0.078 A 
ATOM     13  C   UNL d   1       2.741   3.720   2.058  0.00  0.00     0.039 A 
ATOM     14  C   UNL d   1       2.149   2.512   1.679  0.00  0.00     0.032 A 
BRANCH  12  15
ATOM     15  O   UNL d   1       3.256   5.960   1.725  0.00  0.00    -0.255 OA
BRANCH  15  16
ATOM     16  C   UNL d   1       3.783   6.895   0.793  0.00  0.00     0.530 C 
ATOM     17  F   UNL d   1       3.754   6.477  -0.490  0.00  0.00    -0.144 F 
ATOM     18  F   UNL d   1       3.097   8.054   0.888  0.00  0.00    -0.144 F 
ATOM     19  F   UNL d   1       5.073   7.142   1.117  0.00  0.00    -0.144 F 
ENDBRANCH  15  16
ENDBRANCH  12  15
ENDBRANCH   1   9
BRANCH   2  20
ATOM     20  C   UNL d   1      -1.469  -2.306   0.385  0.00  0.00     0.131 C 
BRANCH  20  21
ATOM     21  C   UNL d   1      -1.549  -2.583   1.862  0.00  0.00     0.004 A 
ATOM     22  C   UNL d   1      -2.179  -1.577   2.796  0.00  0.00     0.007 A 
ATOM     23  C   UNL d   1      -0.718  -1.903   2.928  0.00  0.00     0.007 A 
ENDBRANCH  20  21
ENDBRANCH   2  20
TORSDOF 5
