REMARK  3 active torsions:
REMARK  status: ('A' for Active; 'I' for Inactive)
REMARK    1  A    between atoms: C_13  and  N_6 
REMARK    2  A    between atoms: C_9  and  O_14 
REMARK    3  A    between atoms: O_14  and  C_20 
ROOT
ATOM      1  N   UNL d   1       0.385   0.494  -0.426  0.00  0.00    -0.315 N 
ATOM      2  C   UNL d   1       0.829  -0.807  -0.374  0.00  0.00     0.115 A 
ATOM      3  N   UNL d   1      -0.185  -1.635  -0.216  0.00  0.00    -0.342 N 
ATOM      4  HN  UNL d   1      -0.144  -2.654  -0.181  1.00  0.00     0.167 HD
ATOM      5  C   UNL d   1       1.241   1.659  -0.573  0.00  0.00     0.259 C 
ATOM      6  N   UNL d   1       2.322   1.788   0.400  0.00  0.00    -0.343 N 
ATOM      7  C   UNL d   1      -0.984   0.493  -0.274  0.00  0.00     0.064 A 
ATOM      8  C   UNL d   1      -1.304  -0.851  -0.109  0.00  0.00     0.060 A 
ATOM      9  C   UNL d   1       3.417   0.832   0.298  0.00  0.00     0.296 C 
ATOM     10  O   UNL d   1       3.009  -0.500   0.557  0.00  0.00    -0.359 OA
ATOM     11  C   UNL d   1       2.273  -1.195  -0.450  0.00  0.00     0.187 C 
ATOM     12  C   UNL d   1      -1.956   1.509  -0.228  0.00  0.00     0.032 A 
ATOM     13  C   UNL d   1      -2.634  -1.220   0.141  0.00  0.00     0.032 A 
ATOM     14  C   UNL d   1       2.853  -1.131  -1.860  0.00  0.00     0.048 C 
ATOM     15  C   UNL d   1      -3.270   1.122   0.035  0.00  0.00     0.002 A 
ATOM     16  C   UNL d   1      -3.608  -0.219   0.221  0.00  0.00     0.002 A 
ENDROOT
BRANCH   6  17
ATOM     17  C   UNL d   1       2.119   2.479   1.588  0.00  0.00     0.033 A 
ATOM     18  C   UNL d   1       0.857   2.617   2.177  0.00  0.00     0.032 A 
ATOM     19  C   UNL d   1       0.660   3.359   3.347  0.00  0.00     0.039 A 
ATOM     20  C   UNL d   1       1.728   3.983   3.981  0.00  0.00     0.078 A 
ATOM     21  C   UNL d   1       2.988   3.899   3.402  0.00  0.00     0.039 A 
ATOM     22  C   UNL d   1       3.177   3.145   2.231  0.00  0.00     0.032 A 
BRANCH  20  23
ATOM     23  O   UNL d   1       1.397   4.679   5.101  0.00  0.00    -0.255 OA
BRANCH  23  24
ATOM     24  C   UNL d   1       2.338   4.774   6.157  0.00  0.00     0.530 C 
ATOM     25  F   UNL d   1       3.399   3.949   6.028  0.00  0.00    -0.144 F 
ATOM     26  F   UNL d   1       2.784   6.046   6.246  0.00  0.00    -0.144 F 
ATOM     27  F   UNL d   1       1.714   4.464   7.316  0.00  0.00    -0.144 F 
ENDBRANCH  23  24
ENDBRANCH  20  23
ENDBRANCH   6  17
TORSDOF 3
