REMARK  1 active torsions:
REMARK  status: ('A' for Active; 'I' for Inactive)
REMARK    1  A    between atoms: C_12  and  C_8 
ROOT
ATOM      1  C   UNL d   1      -0.781  -0.362  -0.011  0.00  0.00    -0.019 A 
ATOM      2  C   UNL d   1       0.709  -0.363  -0.020  0.00  0.00    -0.019 A 
ATOM      3  C   UNL d   1      -1.508   0.854  -0.017  0.00  0.00    -0.041 A 
ATOM      4  C   UNL d   1       1.424   0.845  -0.041  0.00  0.00    -0.046 A 
ATOM      5  C   UNL d   1       2.837   0.857  -0.039  0.00  0.00     0.015 A 
ATOM      6  C   UNL d   1       1.480  -1.544  -0.003  0.00  0.00     0.013 A 
ATOM      7  C   UNL d   1      -0.786   2.178  -0.046  0.00  0.00     0.044 A 
ATOM      8  C   UNL d   1       3.584  -0.325  -0.007  0.00  0.00    -0.054 A 
ATOM      9  C   UNL d   1       0.737   2.178  -0.049  0.00  0.00     0.044 A 
ATOM     10  C   UNL d   1       2.884  -1.528   0.003  0.00  0.00     0.008 A 
ATOM     11  C   UNL d   1      -2.930   0.851  -0.002  0.00  0.00    -0.055 A 
ATOM     12  C   UNL d   1      -1.529  -1.559   0.005  0.00  0.00     0.013 A 
ATOM     13  C   UNL d   1      -2.924  -1.565   0.017  0.00  0.00     0.001 A 
ATOM     14  C   UNL d   1      -3.621  -0.368   0.015  0.00  0.00     0.007 A 
ATOM     15  C   UNL d   1      -3.768   2.107  -0.004  0.00  0.00     0.049 C 
ENDROOT
BRANCH   8  16
ATOM     16  C   UNL d   1       5.100  -0.257   0.041  0.00  0.00     0.010 C 
ATOM     17  C   UNL d   1       5.654  -0.913   1.309  0.00  0.00     0.015 C 
ATOM     18  C   UNL d   1       5.745  -0.863  -1.206  0.00  0.00     0.015 C 
ENDBRANCH   8  16
TORSDOF 1
