REMARK  5 active torsions:
REMARK  status: ('A' for Active; 'I' for Inactive)
REMARK    1  A    between atoms: C_6  and  C_3 
REMARK    2  A    between atoms: C_7  and  C_6 
REMARK    3  A    between atoms: C_8  and  C_7 
REMARK    4  A    between atoms: O_18  and  C_13 
REMARK    5  A    between atoms: C_19  and  O_18 
ROOT
ATOM      1  C   UNL d   1       0.926  -2.626   1.068  0.00  0.00     0.121 C 
ENDROOT
BRANCH   1   2
ATOM      2  C   UNL d   1       1.244  -1.157   1.338  0.00  0.00     0.173 A 
ATOM      3  O   UNL d   1       1.996  -0.578   0.246  0.00  0.00    -0.307 OA
ATOM      4  C   UNL d   1       3.162   0.003   0.667  0.00  0.00     0.294 A 
ATOM      5  C   UNL d   1       3.198  -0.150   2.116  0.00  0.00     0.048 A 
ATOM      6  O   UNL d   1       3.995   0.545  -0.028  0.00  0.00    -0.259 OA
ATOM      7  C   UNL d   1       2.072  -0.838   2.523  0.00  0.00    -0.012 A 
ATOM      8  C   UNL d   1       4.157   0.315   3.001  0.00  0.00     0.018 A 
ATOM      9  C   UNL d   1       1.849  -1.072   3.871  0.00  0.00     0.011 A 
ATOM     10  C   UNL d   1       2.792  -0.597   4.790  0.00  0.00     0.001 A 
ATOM     11  C   UNL d   1       3.940   0.087   4.359  0.00  0.00     0.001 A 
ENDBRANCH   1   2
BRANCH   1  12
ATOM     12  C   UNL d   1       2.122  -3.558   1.119  0.00  0.00     0.162 C 
ATOM     13  O   UNL d   1       2.235  -4.383   2.025  0.00  0.00    -0.292 OA
BRANCH  12  14
ATOM     14  C   UNL d   1       3.192  -3.463   0.086  0.00  0.00     0.010 A 
ATOM     15  C   UNL d   1       4.491  -3.832   0.455  0.00  0.00     0.018 A 
ATOM     16  C   UNL d   1       5.554  -3.657  -0.435  0.00  0.00     0.037 A 
ATOM     17  C   UNL d   1       5.325  -3.115  -1.699  0.00  0.00     0.068 A 
ATOM     18  C   UNL d   1       4.021  -2.814  -2.093  0.00  0.00     0.037 A 
ATOM     19  C   UNL d   1       2.953  -2.989  -1.207  0.00  0.00     0.018 A 
BRANCH  17  20
ATOM     20  O   UNL d   1       6.300  -2.882  -2.631  0.00  0.00    -0.352 OA
BRANCH  20  21
ATOM     21  C   UNL d   1       7.545  -2.433  -2.089  0.00  0.00     0.171 C 
ATOM     22  C   UNL d   1       8.446  -2.023  -3.239  0.00  0.00     0.034 C 
ENDBRANCH  20  21
ENDBRANCH  17  20
ENDBRANCH  12  14
ENDBRANCH   1  12
TORSDOF 5
