REMARK  3 active torsions:
REMARK  status: ('A' for Active; 'I' for Inactive)
REMARK    1  A    between atoms: N_7  and  C_1 
REMARK       I    between atoms: C_4  and  N_8 
REMARK    2  A    between atoms: C_10  and  C_4 
REMARK    3  A    between atoms: C_22  and  C_9 
ROOT
ATOM      1  C   UNL d   1       2.421   0.763  -0.037  0.00  0.00     0.127 A 
ATOM      2  N   UNL d   1       1.357   1.316   0.597  0.00  0.00    -0.339 N 
ATOM      3  HN  UNL d   1       1.431   2.245   1.012  1.00  0.00     0.167 HD
ATOM      4  N   UNL d   1       1.114  -1.232  -0.510  0.00  0.00    -0.355 N 
ATOM      5  HN  UNL d   1       1.028  -2.158  -0.929  1.00  0.00     0.166 HD
ATOM      6  C   UNL d   1       2.292  -0.546  -0.558  0.00  0.00     0.053 A 
ATOM      7  C   UNL d   1       0.203   0.629   0.674  0.00  0.00     0.060 A 
ATOM      8  C   UNL d   1       0.078  -0.653   0.103  0.00  0.00     0.059 A 
ATOM      9  C   UNL d   1      -0.899   1.184   1.315  0.00  0.00     0.032 A 
ATOM     10  C   UNL d   1      -1.136  -1.325   0.192  0.00  0.00     0.032 A 
ATOM     11  C   UNL d   1      -2.115   0.505   1.403  0.00  0.00     0.002 A 
ATOM     12  C   UNL d   1      -2.235  -0.757   0.835  0.00  0.00     0.002 A 
ENDROOT
BRANCH   1  13
ATOM     13  N   UNL d   1       3.549   1.550  -0.120  0.00  0.00    -0.363 N 
ATOM     14  C   UNL d   1       3.840   2.503   0.976  0.00  0.00     0.144 C 
ATOM     15  C   UNL d   1       4.167   3.913   0.444  0.00  0.00     0.146 C 
ATOM     16  N   UNL d   1       5.170   3.836  -0.624  0.00  0.00    -0.344 N 
ATOM     17  C   UNL d   1       6.472   4.282  -0.372  0.00  0.00     0.260 C 
ATOM     18  C   UNL d   1       4.705   3.035  -1.752  0.00  0.00     0.146 C 
ATOM     19  O   UNL d   1       6.693   4.956   0.636  0.00  0.00    -0.267 OA
ATOM     20  C   UNL d   1       4.420   1.590  -1.300  0.00  0.00     0.144 C 
BRANCH  17  21
ATOM     21  C   UNL d   1       7.551   3.936  -1.298  0.00  0.00     0.072 A 
ATOM     22  S   UNL d   1       8.767   5.117  -1.603  0.00  0.00    -0.097 SA
ATOM     23  C   UNL d   1       9.640   4.069  -2.633  0.00  0.00     0.050 A 
ATOM     24  C   UNL d   1       9.037   2.839  -2.744  0.00  0.00     0.009 A 
ATOM     25  C   UNL d   1       7.855   2.753  -1.951  0.00  0.00     0.025 A 
ENDBRANCH  17  21
ENDBRANCH   1  13
BRANCH   6  26
ATOM     26  C   UNL d   1       3.427  -1.299  -1.212  0.00  0.00     0.056 C 
ATOM     27  C   UNL d   1       3.375  -2.814  -1.030  0.00  0.00     0.011 C 
ENDBRANCH   6  26
TORSDOF 3
