REMARK  7 active torsions:
REMARK  status: ('A' for Active; 'I' for Inactive)
REMARK    1  A    between atoms: C_5  and  N_1 
REMARK    2  A    between atoms: N_2  and  C_3 
REMARK       I    between atoms: C_4  and  N_2 
REMARK    3  A    between atoms: C_9  and  C_4 
REMARK    4  A    between atoms: C_6  and  C_11 
REMARK    5  A    between atoms: O_12  and  C_6 
REMARK    6  A    between atoms: C_7  and  C_9 
REMARK    7  A    between atoms: C_11  and  C_7 
ROOT
ATOM      1  N   UNL d   1       3.432  -1.552  -0.533  0.00  0.00    -0.227 NA
ATOM      2  C   UNL d   1       3.896  -1.062  -1.760  0.00  0.00     0.202 C 
ATOM      3  O   UNL d   1       4.290   0.080  -1.958  0.00  0.00    -0.280 OA
ATOM      4  H   UNL d   1       3.764  -2.497  -0.378  0.00  0.00     0.136 HD
ENDROOT
BRANCH   1   5
ATOM      5  C   UNL d   1       3.508  -0.740   0.636  0.00  0.00     0.041 A 
ATOM      6  C   UNL d   1       2.399  -0.020   1.148  0.00  0.00     0.052 A 
ATOM      7  C   UNL d   1       2.604   0.678   2.363  0.00  0.00     0.031 A 
ATOM      8  C   UNL d   1       3.806   0.628   3.071  0.00  0.00     0.002 A 
ATOM      9  C   UNL d   1       4.859  -0.124   2.577  0.00  0.00     0.002 A 
ATOM     10  C   UNL d   1       4.710  -0.806   1.371  0.00  0.00     0.026 A 
BRANCH   6  11
ATOM     11  N   UNL d   1       1.120   0.062   0.591  0.00  0.00    -0.379 N 
ATOM     12  C   UNL d   1       0.889  -0.108  -0.839  0.00  0.00     0.123 C 
ATOM     13  C   UNL d   1      -0.342   0.706  -1.248  0.00  0.00     0.020 C 
ATOM     14  C   UNL d   1      -1.560   0.393  -0.383  0.00  0.00     0.003 C 
ATOM     15  C   UNL d   1      -1.222   0.498   1.102  0.00  0.00     0.020 C 
ATOM     16  C   UNL d   1      -0.003  -0.357   1.445  0.00  0.00     0.123 C 
ENDBRANCH   6  11
ENDBRANCH   1   5
BRANCH   2  17
ATOM     17  C   UNL d   1       3.838  -2.133  -2.853  0.00  0.00     0.106 C 
BRANCH  17  18
ATOM     18  C   UNL d   1       4.143  -1.690  -4.316  0.00  0.00    -0.031 C 
ATOM     19  C   UNL d   1       3.970  -2.913  -5.251  0.00  0.00     0.016 C 
ATOM     20  C   UNL d   1       3.105  -0.642  -4.782  0.00  0.00     0.016 C 
BRANCH  18  21
ATOM     21  C   UNL d   1       5.557  -1.083  -4.514  0.00  0.00     0.119 C 
BRANCH  21  22
ATOM     22  C   UNL d   1       6.734  -1.959  -4.133  0.00  0.00     0.140 C 
ATOM     23  O   UNL d   1       6.672  -3.086  -3.669  0.00  0.00    -0.650 OA
BRANCH  22  24
ATOM     24  O   UNL d   1       7.920  -1.350  -4.374  0.00  0.00    -0.776 OA
ATOM     25  H   UNL d   1       7.827  -0.440  -4.717  0.00  0.00     0.167 HD
ENDBRANCH  22  24
ENDBRANCH  21  22
ENDBRANCH  18  21
ENDBRANCH  17  18
ENDBRANCH   2  17
TORSDOF 7
