REMARK  0 active torsions:
REMARK  status: ('A' for Active; 'I' for Inactive)
ROOT
ATOM      1  C   UNL d   1       0.056   0.668   0.013  0.00  0.00     0.029 A 
ATOM      2  C   UNL d   1      -1.224   1.424  -0.006  0.00  0.00     0.161 C 
ATOM      3  C   UNL d   1       0.096  -0.733  -0.061  0.00  0.00     0.014 A 
ATOM      4  S   UNL d   1      -1.350  -1.776  -0.140  0.00  0.00    -0.129 SA
ATOM      5  C   UNL d   1       1.249   1.404   0.086  0.00  0.00     0.058 A 
ATOM      6  O   UNL d   1      -1.224   2.635   0.204  0.00  0.00    -0.292 OA
ATOM      7  C   UNL d   1       1.343  -1.378  -0.083  0.00  0.00     0.022 A 
ATOM      8  C   UNL d   1       2.468   0.743   0.066  0.00  0.00     0.117 A 
ATOM      9  C   UNL d   1      -2.494   0.693  -0.359  0.00  0.00     0.094 C 
ATOM     10  C   UNL d   1      -2.611  -0.599   0.415  0.00  0.00     0.087 C 
ATOM     11  C   UNL d   1       2.528  -0.641  -0.021  0.00  0.00     0.043 A 
ATOM     12  F   UNL d   1       3.604   1.448   0.124  0.00  0.00    -0.206 F 
ENDROOT
TORSDOF 0
