REMARK  6 active torsions:
REMARK  status: ('A' for Active; 'I' for Inactive)
REMARK    1  A    between atoms: C_4  and  N_1 
REMARK    2  A    between atoms: C_3  and  O_8 
REMARK    3  A    between atoms: C_7  and  C_3 
REMARK    4  A    between atoms: O_8  and  C_13 
REMARK    5  A    between atoms: N_14  and  N_10 
REMARK    6  A    between atoms: C_17  and  C_21 
ROOT
ATOM      1  N   UNL d   1       3.005   1.610  -0.163  0.00  0.00    -0.309 N 
ATOM      2  HN  UNL d   1       3.016   1.066  -1.026  1.00  0.00     0.186 HD
ATOM      3  C   UNL d   1       3.982   1.661   0.688  0.00  0.00     0.121 C 
ENDROOT
BRANCH   3   4
ATOM      4  C   UNL d   1       5.361   1.163   0.451  0.00  0.00     0.015 A 
ATOM      5  C   UNL d   1       5.778   0.237  -0.519  0.00  0.00     0.091 A 
ATOM      6  C   UNL d   1       7.151  -0.029  -0.672  0.00  0.00     0.038 A 
ATOM      7  C   UNL d   1       8.100   0.579   0.152  0.00  0.00     0.003 A 
ATOM      8  C   UNL d   1       7.691   1.482   1.124  0.00  0.00     0.001 A 
ATOM      9  C   UNL d   1       6.334   1.773   1.270  0.00  0.00     0.015 A 
BRANCH   5  10
ATOM     10  O   UNL d   1       4.838  -0.381  -1.383  0.00  0.00    -0.274 OA
BRANCH  10  11
ATOM     11  C   UNL d   1       5.043  -1.698  -1.801  0.00  0.00     0.299 C 
ATOM     12  O   UNL d   1       5.929  -2.454  -1.441  0.00  0.00    -0.259 OA
BRANCH  11  13
ATOM     13  C   UNL d   1       3.972  -2.133  -2.745  0.00  0.00     0.046 C 
ATOM     14  C   UNL d   1       4.228  -3.070  -3.781  0.00  0.00    -0.040 C 
ATOM     15  C   UNL d   1       3.128  -3.707  -4.409  0.00  0.00    -0.055 C 
ATOM     16  C   UNL d   1       5.623  -3.355  -4.284  0.00  0.00     0.050 C 
ATOM     17  C   UNL d   1       3.294  -4.833  -5.399  0.00  0.00     0.049 C 
ATOM     18  C   UNL d   1       1.824  -3.281  -4.115  0.00  0.00     0.007 C 
ATOM     19  C   UNL d   1       1.593  -2.280  -3.175  0.00  0.00     0.002 C 
ATOM     20  C   UNL d   1       2.658  -1.727  -2.471  0.00  0.00     0.018 C 
ENDBRANCH  11  13
ENDBRANCH  10  11
ENDBRANCH   5  10
ENDBRANCH   3   4
BRANCH   1  21
ATOM     21  N   UNL d   1       1.915   2.415   0.271  0.00  0.00    -0.280 N 
ATOM     22  C   UNL d   1       1.291   3.023  -0.698  0.00  0.00     0.169 C 
ATOM     23  N   UNL d   1       0.295   3.987  -0.562  0.00  0.00    -0.260 N 
ATOM     24  S   UNL d   1       1.681   2.781  -2.400  0.00  0.00    -0.083 SA
ATOM     25  C   UNL d   1      -0.091   4.603  -1.751  0.00  0.00     0.240 C 
ATOM     26  C   UNL d   1       0.804   4.250  -2.900  0.00  0.00     0.186 C 
ATOM     27  O   UNL d   1      -1.044   5.360  -1.925  0.00  0.00    -0.272 OA
ATOM     28  HN  UNL d   1       1.646   2.508   1.251  1.00  0.00     0.189 HD
BRANCH  23  29
ATOM     29  C   UNL d   1      -0.362   4.347   0.669  0.00  0.00     0.046 A 
ATOM     30  C   UNL d   1      -0.880   5.649   0.847  0.00  0.00     0.054 A 
ATOM     31  C   UNL d   1      -1.629   5.993   1.974  0.00  0.00     0.036 A 
ATOM     32 CL   UNL d   1      -2.257   7.589   2.132  0.00  0.00    -0.084 Cl
ATOM     33  C   UNL d   1      -1.880   5.053   2.962  0.00  0.00     0.024 A 
ATOM     34  C   UNL d   1      -1.345   3.769   2.828  0.00  0.00     0.004 A 
ATOM     35  C   UNL d   1      -0.581   3.425   1.701  0.00  0.00     0.030 A 
ENDBRANCH  23  29
ENDBRANCH   1  21
TORSDOF 6
