REMARK  2 active torsions:
REMARK  status: ('A' for Active; 'I' for Inactive)
REMARK    1  A    between atoms: C_10  and  C_3 
REMARK    2  A    between atoms: N_15  and  C_9 
REMARK       I    between atoms: N_13  and  C_10 
ROOT
ATOM      1  C   UNL d   1       1.626  -0.933  -0.003  0.00  0.00     0.161 A 
ATOM      2  N   UNL d   1       0.934   0.258   0.038  0.00  0.00    -0.221 N 
ATOM      3  C   UNL d   1       2.953  -0.530   0.021  0.00  0.00     0.160 A 
ATOM      4  N   UNL d   1       1.003  -2.144  -0.052  0.00  0.00    -0.329 N 
ATOM      5  HN  UNL d   1       1.539  -3.011  -0.070  1.00  0.00     0.168 HD
ATOM      6  N   UNL d   1       1.764   1.316   0.092  0.00  0.00    -0.013 NA
ATOM      7  N   UNL d   1       3.005   0.848   0.058  0.00  0.00    -0.275 N 
ATOM      8  HN  UNL d   1       3.854   1.413   0.058  1.00  0.00     0.184 HD
ATOM      9  C   UNL d   1      -0.304  -2.160  -0.075  0.00  0.00     0.092 A 
ATOM     10  C   UNL d   1      -1.131  -0.909  -0.027  0.00  0.00     0.030 A 
ATOM     11  C   UNL d   1      -0.462   0.320   0.030  0.00  0.00     0.070 A 
ATOM     12  C   UNL d   1      -2.526  -0.926  -0.055  0.00  0.00     0.017 A 
ATOM     13  C   UNL d   1      -1.158   1.531   0.065  0.00  0.00     0.032 A 
ATOM     14  C   UNL d   1      -3.233   0.280  -0.017  0.00  0.00     0.001 A 
ATOM     15  C   UNL d   1      -2.553   1.501   0.042  0.00  0.00     0.002 A 
ENDROOT
BRANCH   3  16
ATOM     16  C   UNL d   1       4.112  -1.414  -0.066  0.00  0.00     0.275 C 
ATOM     17  N   UNL d   1       5.295  -1.067   0.591  0.00  0.00    -0.343 N 
ATOM     18  C   UNL d   1       5.492   0.020   1.557  0.00  0.00     0.152 C 
ATOM     19  C   UNL d   1       6.420  -2.003   0.543  0.00  0.00     0.152 C 
ATOM     20  C   UNL d   1       6.838   0.710   1.304  0.00  0.00     0.187 C 
ATOM     21  O   UNL d   1       7.919  -0.238   1.332  0.00  0.00    -0.388 OA
ATOM     22  C   UNL d   1       7.734  -1.250   0.329  0.00  0.00     0.187 C 
ATOM     23  O   UNL d   1       4.053  -2.456  -0.721  0.00  0.00    -0.266 OA
ENDBRANCH   3  16
BRANCH   9  24
ATOM     24  N   UNL d   1      -0.899  -3.390  -0.144  0.00  0.00    -0.288 NA
ATOM     25  H   UNL d   1      -0.221  -4.136  -0.004  0.00  0.00     0.125 HD
ATOM     26  H   UNL d   1      -1.744  -3.533   0.394  0.00  0.00     0.125 HD
ENDBRANCH   9  24
TORSDOF 2
