REMARK  14 active torsions:
REMARK  status: ('A' for Active; 'I' for Inactive)
REMARK    1  A    between atoms: C_5  and  C_1 
REMARK    2  A    between atoms: C_7  and  C_2 
REMARK    3  A    between atoms: O_9  and  C_7 
REMARK    4  A    between atoms: N_13  and  O_9 
REMARK       I    between atoms: C_12  and  N_13 
REMARK    5  A    between atoms: C_20  and  C_12 
REMARK    6  A    between atoms: C_23  and  C_20 
REMARK    7  A    between atoms: C_30  and  C_23 
REMARK    8  A    between atoms: C_24  and  C_25 
REMARK    9  A    between atoms: C_25  and  C_29 
REMARK   10  A    between atoms: C_26  and  C_31 
REMARK   11  A    between atoms: C_27  and  C_26 
REMARK   12  A    between atoms: C_28  and  C_27 
REMARK   13  A    between atoms: C_29  and  C_28 
REMARK   14  A    between atoms: C_31  and  C_30 
ROOT
ATOM      1  C   UNL d   1       0.259  -2.935  -1.096  0.00  0.00     0.320 C 
ATOM      2  O   UNL d   1      -0.410  -1.954  -1.459  0.00  0.00    -0.257 OA
ENDROOT
BRANCH   1   3
ATOM      3  C   UNL d   1       1.710  -2.977  -1.188  0.00  0.00     0.102 A 
ATOM      4  C   UNL d   1       2.685  -4.049  -1.216  0.00  0.00     0.087 A 
ATOM      5  N   UNL d   1       3.915  -3.531  -1.386  0.00  0.00    -0.259 N 
ATOM      6  O   UNL d   1       3.793  -2.177  -1.425  0.00  0.00    -0.241 OA
ATOM      7  HN  UNL d   1       4.783  -4.060  -1.471  1.00  0.00     0.195 HD
ATOM      8  C   UNL d   1       2.491  -1.836  -1.346  0.00  0.00     0.091 A 
ATOM      9  C   UNL d   1       2.253  -0.381  -1.453  0.00  0.00     0.080 C 
BRANCH   4  10
ATOM     10  C   UNL d   1       2.572  -5.518  -1.176  0.00  0.00     0.037 A 
ATOM     11  C   UNL d   1       1.623  -6.215  -1.947  0.00  0.00     0.048 A 
ATOM     12 CL   UNL d   1       0.581  -5.449  -3.102  0.00  0.00    -0.083 Cl
ATOM     13  C   UNL d   1       1.542  -7.617  -1.906  0.00  0.00     0.025 A 
ATOM     14  C   UNL d   1       2.461  -8.366  -1.183  0.00  0.00     0.003 A 
ATOM     15  C   UNL d   1       3.459  -7.711  -0.475  0.00  0.00     0.025 A 
ATOM     16  C   UNL d   1       3.506  -6.307  -0.449  0.00  0.00     0.048 A 
ATOM     17 CL   UNL d   1       4.781  -5.650   0.536  0.00  0.00    -0.083 Cl
ENDBRANCH   4  10
ENDBRANCH   1   3
BRANCH   1  18
ATOM     18  O   UNL d   1      -0.357  -4.029  -0.523  0.00  0.00    -0.192 OA
BRANCH  18  19
ATOM     19  N   UNL d   1      -1.768  -3.826  -0.426  0.00  0.00    -0.225 N 
ATOM     20  C   UNL d   1      -2.584  -4.931  -0.357  0.00  0.00     0.241 C 
ATOM     21  O   UNL d   1      -2.189  -6.086  -0.295  0.00  0.00    -0.271 OA
ATOM     22  H   UNL d   1      -2.099  -2.946  -0.829  0.00  0.00     0.198 HD
BRANCH  20  23
ATOM     23  C   UNL d   1      -4.070  -4.541  -0.306  0.00  0.00     0.105 C 
BRANCH  23  24
ATOM     24  C   UNL d   1      -5.063  -5.714  -0.253  0.00  0.00     0.009 C 
BRANCH  24  25
ATOM     25  C   UNL d   1      -6.517  -5.214  -0.122  0.00  0.00     0.000 C 
BRANCH  25  26
ATOM     26  C   UNL d   1      -7.534  -6.359  -0.030  0.00  0.00     0.000 C 
BRANCH  26  27
ATOM     27  C   UNL d   1      -8.985  -5.859   0.103  0.00  0.00     0.000 C 
BRANCH  27  28
ATOM     28  C   UNL d   1      -9.959  -7.041   0.198  0.00  0.00     0.000 C 
BRANCH  28  29
ATOM     29  C   UNL d   1     -11.426  -6.616   0.329  0.00  0.00     0.000 C 
BRANCH  29  30
ATOM     30  C   UNL d   1     -12.333  -7.850   0.418  0.00  0.00     0.000 C 
BRANCH  30  31
ATOM     31  C   UNL d   1     -13.812  -7.482   0.548  0.00  0.00    -0.000 C 
BRANCH  31  32
ATOM     32  C   UNL d   1     -14.684  -8.738   0.640  0.00  0.00    -0.005 C 
ATOM     33  C   UNL d   1     -16.159  -8.392   0.772  0.00  0.00     0.005 C 
ENDBRANCH  31  32
ENDBRANCH  30  31
ENDBRANCH  29  30
ENDBRANCH  28  29
ENDBRANCH  27  28
ENDBRANCH  26  27
ENDBRANCH  25  26
ENDBRANCH  24  25
ENDBRANCH  23  24
ENDBRANCH  20  23
ENDBRANCH  18  19
ENDBRANCH   1  18
TORSDOF 14
