REMARK  5 active torsions:
REMARK  status: ('A' for Active; 'I' for Inactive)
REMARK    1  A    between atoms: C_3  and  C_1 
REMARK       I    between atoms: N_4  and  C_1 
REMARK    2  A    between atoms: C_2  and  C_6 
REMARK    3  A    between atoms: C_8  and  N_5 
REMARK    4  A    between atoms: C_11  and  C_7 
REMARK    5  A    between atoms: O_24  and  C_11 
ROOT
ATOM      1  C   UNL d   1       0.763   0.258  -0.056  0.00  0.00     0.255 C 
ATOM      2  N   UNL d   1       0.143   1.077   0.882  0.00  0.00    -0.345 N 
ATOM      3  N   UNL d   1      -0.382   2.626   3.222  0.00  0.00    -0.364 N 
ATOM      4  O   UNL d   1       1.704   0.643  -0.748  0.00  0.00    -0.267 OA
ATOM      5  C   UNL d   1       0.539   2.499   0.951  0.00  0.00     0.146 C 
ATOM      6  C   UNL d   1      -0.959   0.704   1.796  0.00  0.00     0.146 C 
ATOM      7  C   UNL d   1       0.785   2.975   2.399  0.00  0.00     0.144 C 
ATOM      8  C   UNL d   1      -0.729   1.209   3.231  0.00  0.00     0.144 C 
ENDROOT
BRANCH   1   9
ATOM      9  C   UNL d   1       0.339  -1.142  -0.264  0.00  0.00     0.049 A 
ATOM     10  C   UNL d   1       1.250  -2.215  -0.349  0.00  0.00     0.053 A 
ATOM     11  C   UNL d   1       0.722  -3.509  -0.573  0.00  0.00     0.019 A 
ATOM     12  C   UNL d   1      -0.649  -3.732  -0.717  0.00  0.00     0.001 A 
ATOM     13  C   UNL d   1      -1.529  -2.663  -0.679  0.00  0.00     0.001 A 
ATOM     14  C   UNL d   1      -1.036  -1.373  -0.488  0.00  0.00     0.018 A 
BRANCH  10  15
ATOM     15  C   UNL d   1       2.744  -2.186  -0.178  0.00  0.00     0.177 C 
ATOM     16  O   UNL d   1       3.382  -3.232  -0.132  0.00  0.00    -0.646 OA
BRANCH  15  17
ATOM     17  O   UNL d   1       3.375  -1.011  -0.036  0.00  0.00    -0.773 OA
ATOM     18  H   UNL d   1       2.899  -0.219  -0.381  0.00  0.00     0.167 HD
ENDBRANCH  15  17
ENDBRANCH  10  15
ENDBRANCH   1   9
BRANCH   3  19
ATOM     19  C   UNL d   1      -1.128   3.624   3.790  0.00  0.00     0.103 A 
ATOM     20  N   UNL d   1      -0.491   4.761   4.148  0.00  0.00    -0.352 N 
ATOM     21  C   UNL d   1      -1.192   5.758   4.739  0.00  0.00     0.106 A 
ATOM     22  HN  UNL d   1       0.508   4.867   3.974  1.00  0.00     0.166 HD
ATOM     23  C   UNL d   1      -2.552   5.710   4.977  0.00  0.00     0.063 A 
ATOM     24  C   UNL d   1      -3.217   4.550   4.587  0.00  0.00     0.021 A 
ATOM     25  C   UNL d   1      -2.498   3.502   4.002  0.00  0.00     0.049 A 
BRANCH  23  26
ATOM     26  C   UNL d   1      -3.269   6.860   5.608  0.00  0.00     0.418 C 
ATOM     27  F   UNL d   1      -2.453   7.890   5.962  0.00  0.00    -0.166 F 
ATOM     28  F   UNL d   1      -4.210   7.398   4.783  0.00  0.00    -0.166 F 
ATOM     29  F   UNL d   1      -3.932   6.502   6.742  0.00  0.00    -0.166 F 
ENDBRANCH  23  26
ENDBRANCH   3  19
TORSDOF 5
