REMARK  6 active torsions:
REMARK  status: ('A' for Active; 'I' for Inactive)
REMARK    1  A    between atoms: N_9  and  S_1 
REMARK    2  A    between atoms: C_16  and  S_1 
REMARK    3  A    between atoms: N_4  and  C_10 
REMARK    4  A    between atoms: C_13  and  C_7 
REMARK    5  A    between atoms: N_12  and  N_9 
REMARK    6  A    between atoms: C_10  and  C_11 
REMARK       I    between atoms: C_11  and  N_12 
ROOT
ATOM      1  C   UNL d   1      -0.405  -1.889  -3.869  0.00  0.00     0.271 C 
ENDROOT
BRANCH   1   2
ATOM      2  N   UNL d   1      -0.904  -2.482  -2.646  0.00  0.00    -0.207 N 
ATOM      3  N   UNL d   1      -0.592  -2.063  -1.402  0.00  0.00    -0.268 N 
ATOM      4  C   UNL d   1      -1.297  -2.943  -0.662  0.00  0.00     0.144 A 
ATOM      5  HN  UNL d   1       0.010  -1.296  -1.104  1.00  0.00     0.190 HD
ATOM      6  N   UNL d   1      -1.996  -3.835  -1.441  0.00  0.00    -0.266 N 
ATOM      7  N   UNL d   1      -1.738  -3.533  -2.704  0.00  0.00    -0.002 NA
ATOM      8  HN  UNL d   1      -2.599  -4.587  -1.108  1.00  0.00     0.186 HD
BRANCH   4   9
ATOM      9  C   UNL d   1      -1.338  -2.965   0.795  0.00  0.00     0.010 A 
ATOM     10  C   UNL d   1      -0.581  -2.059   1.551  0.00  0.00     0.016 A 
ATOM     11  C   UNL d   1      -0.633  -2.081   2.949  0.00  0.00     0.007 A 
ATOM     12  C   UNL d   1      -1.440  -3.008   3.617  0.00  0.00    -0.062 A 
ATOM     13  C   UNL d   1      -2.194  -3.916   2.867  0.00  0.00     0.007 A 
ATOM     14  C   UNL d   1      -1.494  -3.008   5.116  0.00  0.00     0.048 C 
ATOM     15  C   UNL d   1      -2.142  -3.894   1.469  0.00  0.00     0.016 A 
ENDBRANCH   4   9
ENDBRANCH   1   2
BRANCH   1  16
ATOM     16  C   UNL d   1       0.507  -0.690  -3.777  0.00  0.00     0.257 C 
ATOM     17  N   UNL d   1       0.778  -0.145  -2.547  0.00  0.00    -0.259 N 
ATOM     18  H   UNL d   1       0.409  -0.546  -1.675  0.00  0.00     0.190 HD
ATOM     19  O   UNL d   1       0.988  -0.199  -4.806  0.00  0.00    -0.270 OA
BRANCH  17  20
ATOM     20  N   UNL d   1       1.650   1.004  -2.467  0.00  0.00    -0.220 N 
ATOM     21  H   UNL d   1       2.041   1.397  -3.329  0.00  0.00     0.200 HD
BRANCH  20  22
ATOM     22  S   UNL d   1       1.985   1.701  -0.973  0.00  0.00     0.276 S 
ATOM     23  O   UNL d   1       2.682   0.714  -0.175  0.00  0.00    -0.199 OA
ATOM     24  O   UNL d   1       0.766   2.316  -0.493  0.00  0.00    -0.199 OA
BRANCH  22  25
ATOM     25  C   UNL d   1       3.127   2.986  -1.406  0.00  0.00     0.081 A 
ATOM     26  C   UNL d   1       2.648   4.265  -1.706  0.00  0.00     0.025 A 
ATOM     27  C   UNL d   1       3.552   5.291  -1.986  0.00  0.00     0.002 A 
ATOM     28  C   UNL d   1       4.925   5.039  -1.958  0.00  0.00     0.000 A 
ATOM     29  C   UNL d   1       5.400   3.762  -1.652  0.00  0.00     0.002 A 
ATOM     30  C   UNL d   1       4.502   2.731  -1.371  0.00  0.00     0.025 A 
ENDBRANCH  22  25
ENDBRANCH  20  22
ENDBRANCH  17  20
ENDBRANCH   1  16
TORSDOF 6
