REMARK  7 active torsions:
REMARK  status: ('A' for Active; 'I' for Inactive)
REMARK    1  A    between atoms: N_2  and  S_1 
REMARK    2  A    between atoms: C_6  and  S_1 
REMARK    3  A    between atoms: C_4  and  N_2 
REMARK    4  A    between atoms: N_3  and  C_10 
REMARK    5  A    between atoms: C_20  and  C_4 
REMARK    6  A    between atoms: O_7  and  C_5 
REMARK    7  A    between atoms: C_14  and  O_7 
ROOT
ATOM      1  C   UNL d   1      -0.195   0.553  -4.241  0.00  0.00     0.119 A 
ATOM      2  C   UNL d   1       0.579   0.303  -1.560  0.00  0.00     0.083 A 
ATOM      3  C   UNL d   1      -0.059   1.688  -3.423  0.00  0.00     0.071 A 
ATOM      4  C   UNL d   1       0.118  -0.708  -3.709  0.00  0.00     0.071 A 
ATOM      5  C   UNL d   1       0.326   1.569  -2.085  0.00  0.00     0.052 A 
ATOM      6  C   UNL d   1       0.481  -0.836  -2.365  0.00  0.00     0.052 A 
ATOM      7 CL   UNL d   1       0.136  -2.150  -4.663  0.00  0.00    -0.081 Cl
ATOM      8 CL   UNL d   1      -0.342   3.276  -4.046  0.00  0.00    -0.081 Cl
ENDROOT
BRANCH   2   9
ATOM      9  S   UNL d   1       1.125   0.115   0.122  0.00  0.00     0.264 S 
ATOM     10  O   UNL d   1       2.072  -0.974   0.147  0.00  0.00    -0.200 OA
ATOM     11  O   UNL d   1       1.446   1.432   0.631  0.00  0.00    -0.200 OA
BRANCH   9  12
ATOM     12  N   UNL d   1      -0.265  -0.405   0.849  0.00  0.00    -0.264 N 
ATOM     13  H   UNL d   1      -0.370  -1.422   0.899  0.00  0.00     0.180 HD
BRANCH  12  14
ATOM     14  C   UNL d   1      -1.340   0.352   1.326  0.00  0.00     0.135 C 
ATOM     15  N   UNL d   1      -1.280   1.626   1.501  0.00  0.00    -0.383 N 
ATOM     16  H   UNL d   1      -0.319   1.952   1.315  0.00  0.00     0.157 HD
ATOM     17  HN  UNL d   1      -2.060   2.220   1.780  1.00  0.00     0.157 HD
BRANCH  14  18
ATOM     18  C   UNL d   1      -2.564  -0.460   1.595  0.00  0.00     0.076 A 
ATOM     19  N   UNL d   1      -2.449  -1.798   1.345  0.00  0.00    -0.363 N 
ATOM     20  C   UNL d   1      -3.565  -2.536   1.538  0.00  0.00     0.088 A 
ATOM     21  HN  UNL d   1      -1.573  -2.215   1.031  1.00  0.00     0.165 HD
ATOM     22  C   UNL d   1      -4.780  -2.007   1.950  0.00  0.00     0.017 A 
ATOM     23  C   UNL d   1      -4.862  -0.639   2.195  0.00  0.00     0.004 A 
ATOM     24  C   UNL d   1      -3.733   0.155   2.020  0.00  0.00     0.033 A 
ENDBRANCH  14  18
ENDBRANCH  12  14
ENDBRANCH   9  12
ENDBRANCH   2   9
BRANCH   1  25
ATOM     25  O   UNL d   1      -0.495   0.767  -5.568  0.00  0.00    -0.306 OA
BRANCH  25  26
ATOM     26  C   UNL d   1      -1.572   0.138  -6.158  0.00  0.00     0.098 A 
ATOM     27  C   UNL d   1      -1.552   0.039  -7.561  0.00  0.00     0.070 A 
ATOM     28  C   UNL d   1      -2.579  -0.610  -8.250  0.00  0.00     0.062 A 
ATOM     29 CL   UNL d   1      -0.253   0.706  -8.486  0.00  0.00    -0.081 Cl
ATOM     30  C   UNL d   1      -3.640  -1.163  -7.527  0.00  0.00     0.104 A 
ATOM     31  C   UNL d   1      -3.693  -1.041  -6.131  0.00  0.00     0.039 A 
ATOM     32  C   UNL d   1      -2.668  -0.372  -5.452  0.00  0.00     0.041 A 
BRANCH  30  33
ATOM     33  N   UNL d   1      -4.706  -1.880  -8.237  0.00  0.00    -0.116 N 
ATOM     34  O   UNL d   1      -4.675  -1.879  -9.475  0.00  0.00    -0.532 OA
ATOM     35  O   UNL d   1      -5.572  -2.445  -7.554  0.00  0.00    -0.532 OA
ENDBRANCH  30  33
ENDBRANCH  25  26
ENDBRANCH   1  25
TORSDOF 7
