REMARK  7 active torsions:
REMARK  status: ('A' for Active; 'I' for Inactive)
REMARK    1  A    between atoms: C_2  and  C_1 
REMARK    2  A    between atoms: C_3  and  C_9 
REMARK    3  A    between atoms: C_6  and  N_22 
REMARK    4  A    between atoms: N_23  and  C_10 
REMARK    5  A    between atoms: N_22  and  C_27 
REMARK    6  A    between atoms: C_28  and  N_23 
REMARK    7  A    between atoms: C_27  and  C_28 
ROOT
ATOM      1  C   UNL d   1      -1.407   2.097   7.415  0.00  0.00     0.114 C 
ENDROOT
BRANCH   1   2
ATOM      2  N   UNL d   1      -1.444   3.424   8.014  0.00  0.00    -0.263 NA
ATOM      3  H   UNL d   1      -1.926   4.145   7.490  0.00  0.00     0.130 HD
BRANCH   2   4
ATOM      4  C   UNL d   1      -1.875   3.524   9.322  0.00  0.00     0.157 A 
ATOM      5  N   UNL d   1      -2.449   4.690   9.642  0.00  0.00    -0.329 N 
ATOM      6  C   UNL d   1      -2.846   4.876  10.928  0.00  0.00     0.120 A 
ATOM      7  HN  UNL d   1      -2.583   5.418   8.940  1.00  0.00     0.168 HD
ATOM      8  C   UNL d   1      -2.680   3.894  11.886  0.00  0.00     0.051 A 
ATOM      9  C   UNL d   1      -2.100   2.728  11.456  0.00  0.00     0.093 A 
ATOM     10  N   UNL d   1      -1.700   2.521  10.188  0.00  0.00    -0.343 N 
ATOM     11  HN  UNL d   1      -1.280   1.637   9.900  1.00  0.00     0.167 HD
BRANCH   6  12
ATOM     12  C   UNL d   1      -3.490   6.192  11.327  0.00  0.00     0.432 C 
ATOM     13  F   UNL d   1      -3.607   7.095  10.314  0.00  0.00    -0.165 F 
ATOM     14  F   UNL d   1      -4.753   6.020  11.819  0.00  0.00    -0.165 F 
ATOM     15  F   UNL d   1      -2.801   6.830  12.318  0.00  0.00    -0.165 F 
ENDBRANCH   6  12
ENDBRANCH   2   4
ENDBRANCH   1   2
BRANCH   1  16
ATOM     16  C   UNL d   1      -0.897   2.205   5.963  0.00  0.00     0.136 C 
BRANCH  16  17
ATOM     17  N   UNL d   1      -0.903   0.938   5.232  0.00  0.00    -0.374 N 
ATOM     18  H   UNL d   1      -1.786   0.436   5.249  0.00  0.00     0.161 HD
BRANCH  17  19
ATOM     19  C   UNL d   1       0.185   0.076   5.402  0.00  0.00     0.123 A 
ATOM     20  N   UNL d   1       1.233   0.481   6.154  0.00  0.00    -0.350 N 
ATOM     21  C   UNL d   1       2.324  -0.319   6.237  0.00  0.00     0.106 A 
ATOM     22  HN  UNL d   1       1.203   1.372   6.650  1.00  0.00     0.166 HD
ATOM     23  C   UNL d   1       2.445  -1.540   5.593  0.00  0.00     0.065 A 
ATOM     24  C   UNL d   1       1.364  -1.959   4.815  0.00  0.00     0.045 A 
ATOM     25  C   UNL d   1       0.231  -1.149   4.715  0.00  0.00     0.078 A 
ATOM     26 CL   UNL d   1      -1.085  -1.695   3.737  0.00  0.00    -0.080 Cl
BRANCH  23  27
ATOM     27  C   UNL d   1       3.699  -2.341   5.745  0.00  0.00     0.418 C 
ATOM     28  F   UNL d   1       3.678  -3.516   5.057  0.00  0.00    -0.166 F 
ATOM     29  F   UNL d   1       3.951  -2.671   7.040  0.00  0.00    -0.166 F 
ATOM     30  F   UNL d   1       4.801  -1.673   5.307  0.00  0.00    -0.166 F 
ENDBRANCH  23  27
ENDBRANCH  17  19
ENDBRANCH  16  17
ENDBRANCH   1  16
TORSDOF 7
