REMARK  5 active torsions:
REMARK  status: ('A' for Active; 'I' for Inactive)
REMARK    1  A    between atoms: N_2  and  S_1 
REMARK    2  A    between atoms: C_9  and  S_1 
REMARK    3  A    between atoms: N_5  and  N_2 
REMARK    4  A    between atoms: C_3  and  C_8 
REMARK    5  A    between atoms: C_4  and  N_5 
ROOT
ATOM      1  N   UNL d   1       0.793   1.482   2.045  0.00  0.00    -0.122 N 
ATOM      2  H   UNL d   1       1.510   0.954   2.531  0.00  0.00     0.206 HD
ENDROOT
BRANCH   1   3
ATOM      3  C   UNL d   1       0.201   2.491   2.791  0.00  0.00     0.697 A 
ATOM      4  N   UNL d   1      -0.755   3.242   2.220  0.00  0.00    -0.185 N 
ATOM      5  C   UNL d   1      -1.321   4.225   2.971  0.00  0.00     0.133 A 
ATOM      6  HN  UNL d   1      -1.047   3.081   1.256  1.00  0.00     0.184 HD
ATOM      7  C   UNL d   1      -0.945   4.448   4.283  0.00  0.00     0.052 A 
ATOM      8  C   UNL d   1       0.035   3.624   4.777  0.00  0.00     0.108 A 
ATOM      9  N   UNL d   1       0.619   2.653   4.054  0.00  0.00    -0.200 N 
ATOM     10  HN  UNL d   1       1.350   2.064   4.450  1.00  0.00     0.183 HD
BRANCH   5  11
ATOM     11  C   UNL d   1      -2.395   5.102   2.352  0.00  0.00     0.433 C 
ATOM     12  F   UNL d   1      -2.694   4.792   1.059  0.00  0.00    -0.165 F 
ATOM     13  F   UNL d   1      -3.575   5.037   3.034  0.00  0.00    -0.165 F 
ATOM     14  F   UNL d   1      -2.049   6.422   2.348  0.00  0.00    -0.165 F 
ENDBRANCH   5  11
ENDBRANCH   1   3
BRANCH   1  15
ATOM     15  N   UNL d   1       0.420   1.098   0.686  0.00  0.00    -0.208 N 
ATOM     16  H   UNL d   1      -0.342   1.588   0.211  0.00  0.00     0.201 HD
BRANCH  15  17
ATOM     17  S   UNL d   1       1.154  -0.242  -0.028  0.00  0.00     0.276 S 
ATOM     18  O   UNL d   1       0.711  -1.418   0.693  0.00  0.00    -0.199 OA
ATOM     19  O   UNL d   1       2.564   0.051  -0.167  0.00  0.00    -0.199 OA
BRANCH  17  20
ATOM     20  C   UNL d   1       0.428  -0.279  -1.645  0.00  0.00     0.081 A 
ATOM     21  C   UNL d   1       1.064   0.377  -2.702  0.00  0.00     0.026 A 
ATOM     22  C   UNL d   1       0.557   0.249  -3.998  0.00  0.00     0.008 A 
ATOM     23  C   UNL d   1      -0.577  -0.538  -4.244  0.00  0.00    -0.062 A 
ATOM     24  C   UNL d   1      -1.208  -1.184  -3.173  0.00  0.00     0.008 A 
ATOM     25  C   UNL d   1      -1.081  -0.705  -5.649  0.00  0.00     0.048 C 
ATOM     26  C   UNL d   1      -0.707  -1.060  -1.875  0.00  0.00     0.026 A 
ENDBRANCH  17  20
ENDBRANCH  15  17
ENDBRANCH   1  15
TORSDOF 5
