REMARK  1 active torsions:
REMARK  status: ('A' for Active; 'I' for Inactive)
REMARK    1  A    between atoms: C_8  and  N_3 
ROOT
ATOM      1  C   UNL d   1      -1.267   0.067   0.125  0.00  0.00     0.281 C 
ATOM      2  C   UNL d   1      -0.298   1.210   0.094  0.00  0.00     0.081 C 
ATOM      3  N   UNL d   1      -0.433  -1.057   0.243  0.00  0.00    -0.220 N 
ATOM      4  N   UNL d   1       0.916  -0.767   0.145  0.00  0.00    -0.294 N 
ATOM      5  HN  UNL d   1       1.685  -1.436   0.178  1.00  0.00     0.187 HD
ATOM      6  C   UNL d   1       1.016   0.525   0.003  0.00  0.00     0.040 C 
ATOM      7  C   UNL d   1      -0.620   2.508   0.258  0.00  0.00     0.054 C 
ATOM      8  S   UNL d   1       0.578   3.768   0.440  0.00  0.00    -0.122 SA
ATOM      9  S   UNL d   1      -2.269   3.093   0.356  0.00  0.00    -0.122 SA
ATOM     10  O   UNL d   1      -2.482   0.132   0.094  0.00  0.00    -0.265 OA
ATOM     11  C   UNL d   1       2.354   1.142  -0.256  0.00  0.00     0.071 C 
ATOM     12  C   UNL d   1      -1.206   4.784   2.310  0.00  0.00     0.021 C 
ATOM     13  C   UNL d   1      -2.279   3.728   2.058  0.00  0.00     0.081 C 
ATOM     14  C   UNL d   1       0.214   4.253   2.151  0.00  0.00     0.081 C 
ENDROOT
BRANCH   3  15
ATOM     15  C   UNL d   1      -0.821  -2.410   0.428  0.00  0.00     0.060 A 
ATOM     16  C   UNL d   1      -2.163  -2.807   0.404  0.00  0.00     0.032 A 
ATOM     17  C   UNL d   1      -2.524  -4.146   0.593  0.00  0.00     0.009 A 
ATOM     18  C   UNL d   1      -1.552  -5.122   0.823  0.00  0.00    -0.062 A 
ATOM     19  C   UNL d   1      -0.210  -4.739   0.855  0.00  0.00     0.009 A 
ATOM     20  C   UNL d   1      -1.958  -6.556   1.001  0.00  0.00     0.048 C 
ATOM     21  C   UNL d   1       0.149  -3.400   0.657  0.00  0.00     0.032 A 
ENDBRANCH   3  15
TORSDOF 1
