REMARK  0 active torsions:
REMARK  status: ('A' for Active; 'I' for Inactive)
ROOT
ATOM      1  C   UNL d   1      -3.188   0.159   0.056  0.00  0.00     0.147 A 
ATOM      2  N   UNL d   1      -2.469   1.190  -0.331  0.00  0.00    -0.336 N 
ATOM      3  HN  UNL d   1      -2.857   2.068  -0.674  1.00  0.00     0.168 HD
ATOM      4  S   UNL d   1      -2.250  -1.218   0.530  0.00  0.00    -0.052 SA
ATOM      5  C   UNL d   1      -0.797  -0.364   0.215  0.00  0.00     0.036 A 
ATOM      6  N   UNL d   1      -4.550   0.121   0.029  0.00  0.00    -0.361 N 
ATOM      7  C   UNL d   1      -1.117   0.924  -0.211  0.00  0.00     0.051 A 
ATOM      8  C   UNL d   1       0.530  -0.805   0.343  0.00  0.00     0.045 A 
ATOM      9  C   UNL d   1      -0.064   1.824  -0.483  0.00  0.00     0.032 A 
ATOM     10  C   UNL d   1       1.550   0.105   0.057  0.00  0.00     0.035 A 
ATOM     11  C   UNL d   1       1.265   1.406  -0.341  0.00  0.00     0.026 A 
ATOM     12 CL   UNL d   1       3.190  -0.398   0.207  0.00  0.00    -0.084 Cl
ATOM     13  C   UNL d   1      -5.279   0.924  -0.947  0.00  0.00     0.125 C 
ATOM     14  C   UNL d   1      -5.319  -0.430   1.141  0.00  0.00     0.125 C 
ATOM     15  C   UNL d   1      -6.080   2.029  -0.265  0.00  0.00     0.020 C 
ATOM     16  C   UNL d   1      -6.092   0.683   1.850  0.00  0.00     0.020 C 
ATOM     17  C   UNL d   1      -6.946   1.476   0.864  0.00  0.00     0.003 C 
ENDROOT
TORSDOF 0
