REMARK  0 active torsions:
REMARK  status: ('A' for Active; 'I' for Inactive)
ROOT
ATOM      1  S   UNL d   1       0.463   1.777   0.945  0.00  0.00     0.267 S 
ATOM      2  S   UNL d   1       0.101  -0.544  -1.579  0.00  0.00     0.209 S 
ATOM      3  N   UNL d   1      -0.331   2.255  -0.426  0.00  0.00    -0.246 N 
ATOM      4  C   UNL d   1       1.555  -0.330  -0.578  0.00  0.00     0.087 A 
ATOM      5  C   UNL d   1       1.714   0.644   0.411  0.00  0.00     0.101 A 
ATOM      6  C   UNL d   1      -1.660   1.936  -0.749  0.00  0.00     0.266 C 
ATOM      7  C   UNL d   1      -1.363  -0.567  -0.585  0.00  0.00     0.080 A 
ATOM      8  C   UNL d   1      -2.134   0.583  -0.398  0.00  0.00     0.054 A 
ATOM      9  O   UNL d   1       1.133   2.968   1.419  0.00  0.00    -0.200 OA
ATOM     10  O   UNL d   1      -0.416   1.023   1.805  0.00  0.00    -0.200 OA
ATOM     11  O   UNL d   1       0.048   0.575  -2.497  0.00  0.00    -0.217 OA
ATOM     12  O   UNL d   1       0.186  -1.884  -2.136  0.00  0.00    -0.217 OA
ATOM     13  O   UNL d   1      -2.385   2.749  -1.296  0.00  0.00    -0.267 OA
ATOM     14  C   UNL d   1       2.619  -1.217  -0.841  0.00  0.00     0.025 A 
ATOM     15  C   UNL d   1       2.938   0.730   1.106  0.00  0.00     0.027 A 
ATOM     16  C   UNL d   1      -3.359   0.497   0.279  0.00  0.00     0.018 A 
ATOM     17  C   UNL d   1      -1.815  -1.800  -0.091  0.00  0.00     0.025 A 
ATOM     18  C   UNL d   1       3.820  -1.131  -0.136  0.00  0.00     0.002 A 
ATOM     19  C   UNL d   1       3.982  -0.152   0.834  0.00  0.00     0.002 A 
ATOM     20  C   UNL d   1      -3.792  -0.727   0.791  0.00  0.00     0.001 A 
ATOM     21  C   UNL d   1      -3.018  -1.872   0.611  0.00  0.00     0.002 A 
ATOM     22  H   UNL d   1      -0.086   3.210  -0.688  0.00  0.00     0.182 HD
ENDROOT
TORSDOF 0
