REMARK  4 active torsions:
REMARK  status: ('A' for Active; 'I' for Inactive)
REMARK    1  A    between atoms: C_2  and  N_1 
REMARK       I    between atoms: C_3  and  N_4 
REMARK    2  A    between atoms: C_11  and  C_3 
REMARK    3  A    between atoms: N_4  and  N_8 
REMARK    4  A    between atoms: N_8  and  C_7 
ROOT
ATOM      1  N   UNL d   1      -2.377   3.314   2.807  0.00  0.00    -0.278 N 
ATOM      2  C   UNL d   1      -2.303   2.902   1.410  0.00  0.00     0.179 C 
ENDROOT
BRANCH   1   3
ATOM      3  N   UNL d   1      -3.501   2.945   3.563  0.00  0.00    -0.262 N 
ATOM      4  C   UNL d   1      -3.759   1.589   3.750  0.00  0.00     0.270 C 
ATOM      5  O   UNL d   1      -3.055   0.667   3.352  0.00  0.00    -0.266 OA
ATOM      6  H   UNL d   1      -4.240   3.634   3.640  0.00  0.00     0.190 HD
BRANCH   4   7
ATOM      7  C   UNL d   1      -5.034   1.272   4.447  0.00  0.00     0.033 A 
ATOM      8  C   UNL d   1      -5.772   0.152   4.041  0.00  0.00     0.017 A 
ATOM      9  C   UNL d   1      -6.965  -0.177   4.690  0.00  0.00     0.007 A 
ATOM     10  C   UNL d   1      -7.423   0.597   5.764  0.00  0.00    -0.062 A 
ATOM     11  C   UNL d   1      -6.670   1.705   6.178  0.00  0.00     0.007 A 
ATOM     12  C   UNL d   1      -8.707   0.238   6.454  0.00  0.00     0.048 C 
ATOM     13  C   UNL d   1      -5.482   2.042   5.524  0.00  0.00     0.017 A 
ENDBRANCH   4   7
ENDBRANCH   1   3
BRANCH   1  14
ATOM     14  C   UNL d   1      -1.598   4.419   3.185  0.00  0.00     0.121 A 
ATOM     15  C   UNL d   1      -1.806   5.111   4.383  0.00  0.00     0.052 A 
ATOM     16  C   UNL d   1      -0.968   6.176   4.742  0.00  0.00     0.041 A 
ATOM     17  C   UNL d   1       0.086   6.515   3.899  0.00  0.00     0.118 A 
ATOM     18  C   UNL d   1       0.239   5.805   2.725  0.00  0.00     0.125 A 
ATOM     19  N   UNL d   1      -0.586   4.796   2.359  0.00  0.00    -0.349 N 
ATOM     20  HN  UNL d   1      -0.449   4.320   1.467  1.00  0.00     0.167 HD
BRANCH  17  21
ATOM     21  N   UNL d   1       1.021   7.580   4.232  0.00  0.00    -0.114 N 
ATOM     22  O   UNL d   1       1.937   7.817   3.433  0.00  0.00    -0.532 OA
ATOM     23  O   UNL d   1       0.840   8.186   5.298  0.00  0.00    -0.532 OA
ENDBRANCH  17  21
ENDBRANCH   1  14
TORSDOF 4
