REMARK  3 active torsions:
REMARK  status: ('A' for Active; 'I' for Inactive)
REMARK    1  A    between atoms: C_4  and  C_1 
REMARK    2  A    between atoms: C_3  and  C_2 
REMARK    3  A    between atoms: O_12  and  C_4 
ROOT
ATOM      1  C   UNL d   1       0.887   0.165   0.004  0.00  0.00     0.122 C 
ATOM      2  C   UNL d   1       0.198  -0.848   0.568  0.00  0.00     0.066 C 
ATOM      3  C   UNL d   1       0.265   1.275  -0.627  0.00  0.00     0.105 C 
ATOM      4  N   UNL d   1      -0.227   2.182  -1.165  0.00  0.00    -0.191 NA
ENDROOT
BRANCH   1   5
ATOM      5  C   UNL d   1       2.378   0.112   0.002  0.00  0.00     0.303 C 
ATOM      6  O   UNL d   1       3.041  -0.780   0.508  0.00  0.00    -0.258 OA
BRANCH   5   7
ATOM      7  O   UNL d   1       2.884   1.197  -0.642  0.00  0.00    -0.322 OA
ATOM      8  C   UNL d   1       4.310   1.287  -0.719  0.00  0.00     0.213 C 
ENDBRANCH   5   7
ENDBRANCH   1   5
BRANCH   2   9
ATOM      9  C   UNL d   1      -1.230  -0.867   0.637  0.00  0.00     0.077 A 
ATOM     10  O   UNL d   1      -2.000   0.276   0.684  0.00  0.00    -0.316 OA
ATOM     11  C   UNL d   1      -3.311  -0.069   0.724  0.00  0.00     0.050 A 
ATOM     12  C   UNL d   1      -4.293   1.036   0.728  0.00  0.00     0.076 C 
ATOM     13  C   UNL d   1      -3.432  -1.436   0.740  0.00  0.00     0.035 A 
ATOM     14  C   UNL d   1      -2.109  -1.946   0.683  0.00  0.00     0.040 A 
ENDBRANCH   2   9
TORSDOF 3
