REMARK  3 active torsions:
REMARK  status: ('A' for Active; 'I' for Inactive)
REMARK    1  A    between atoms: C_8  and  C_1 
REMARK    2  A    between atoms: C_11  and  C_6 
REMARK    3  A    between atoms: C_12  and  C_7 
REMARK       I    between atoms: N_14  and  C_8 
ROOT
ATOM      1  C   UNL d   1       1.012   0.893   0.027  0.00  0.00     0.138 C 
ATOM      2  N   UNL d   1      -0.299   1.377  -0.029  0.00  0.00    -0.350 N 
ATOM      3  HN  UNL d   1      -0.486   2.380  -0.050  1.00  0.00     0.166 HD
ATOM      4  C   UNL d   1       1.319  -0.421   0.015  0.00  0.00     0.143 C 
ATOM      5  N   UNL d   1       0.320  -1.392  -0.047  0.00  0.00    -0.365 N 
ATOM      6  C   UNL d   1      -1.278   0.509  -0.053  0.00  0.00     0.047 C 
ATOM      7  C   UNL d   1      -1.090  -1.033   0.022  0.00  0.00     0.166 C 
ATOM      8  C   UNL d   1       2.653  -0.953   0.042  0.00  0.00     0.120 C 
ATOM      9  N   UNL d   1       3.688  -1.480   0.050  0.00  0.00    -0.190 NA
ATOM     10  H   UNL d   1       0.580  -2.333   0.237  0.00  0.00     0.161 HD
ENDROOT
BRANCH   1  11
ATOM     11  C   UNL d   1       2.104   1.943   0.119  0.00  0.00     0.269 C 
ATOM     12  O   UNL d   1       3.302   1.719   0.195  0.00  0.00    -0.266 OA
ATOM     13  N   UNL d   1       1.624   3.220   0.121  0.00  0.00    -0.365 N 
ATOM     14  H   UNL d   1       0.626   3.378   0.034  0.00  0.00     0.159 HD
ATOM     15  H   UNL d   1       2.272   3.992   0.164  0.00  0.00     0.159 HD
ENDBRANCH   1  11
BRANCH   7  16
ATOM     16  C   UNL d   1      -1.721  -1.614   1.276  0.00  0.00    -0.030 A 
ATOM     17  C   UNL d   1      -1.615  -0.960   2.516  0.00  0.00     0.009 A 
ATOM     18  C   UNL d   1      -2.320  -1.424   3.627  0.00  0.00     0.001 A 
ATOM     19  C   UNL d   1      -3.108  -2.567   3.524  0.00  0.00     0.000 A 
ATOM     20  C   UNL d   1      -3.174  -3.261   2.318  0.00  0.00     0.001 A 
ATOM     21  C   UNL d   1      -2.480  -2.792   1.200  0.00  0.00     0.009 A 
ENDBRANCH   7  16
BRANCH   6  22
ATOM     22  C   UNL d   1      -2.687   1.035  -0.077  0.00  0.00    -0.011 A 
ATOM     23  C   UNL d   1      -3.734   0.328  -0.680  0.00  0.00     0.013 A 
ATOM     24  C   UNL d   1      -5.036   0.835  -0.642  0.00  0.00     0.001 A 
ATOM     25  C   UNL d   1      -5.300   2.046  -0.004  0.00  0.00     0.000 A 
ATOM     26  C   UNL d   1      -4.262   2.756   0.597  0.00  0.00     0.001 A 
ATOM     27  C   UNL d   1      -2.959   2.255   0.558  0.00  0.00     0.013 A 
ENDBRANCH   6  22
TORSDOF 3
