REMARK  4 active torsions:
REMARK  status: ('A' for Active; 'I' for Inactive)
REMARK    1  A    between atoms: C_4  and  S_1 
REMARK    2  A    between atoms: N_9  and  S_1 
REMARK    3  A    between atoms: C_28  and  C_6 
REMARK    4  A    between atoms: C_7  and  C_14 
ROOT
ATOM      1  N   UNL d   1       4.259  -0.344   5.073  0.00  0.00    -0.321 N 
ATOM      2  HN  UNL d   1       4.185   0.668   4.969  1.00  0.00     0.169 HD
ATOM      3  C   UNL d   1       3.672  -1.225   4.291  0.00  0.00     0.165 A 
ATOM      4  C   UNL d   1       4.997  -0.991   6.068  0.00  0.00     0.123 A 
ATOM      5  N   UNL d   1       0.591  -0.144   1.594  0.00  0.00    -0.203 NA
ATOM      6  N   UNL d   1       5.040  -2.328   6.052  0.00  0.00    -0.309 N 
ATOM      7  HN  UNL d   1       5.548  -2.925   6.705  1.00  0.00     0.176 HD
ATOM      8  S   UNL d   1       4.114  -2.831   4.775  0.00  0.00     0.024 SA
ATOM      9  N   UNL d   1       2.807  -0.903   3.291  0.00  0.00    -0.358 N 
ATOM     10  C   UNL d   1       1.242   0.864   2.500  0.00  0.00     0.127 C 
ATOM     11  C   UNL d   1       0.711  -1.516   2.192  0.00  0.00     0.127 C 
ATOM     12  C   UNL d   1       2.705   0.497   2.848  0.00  0.00     0.140 C 
ATOM     13  C   UNL d   1       2.186  -1.897   2.410  0.00  0.00     0.140 C 
ENDROOT
BRANCH   5  14
ATOM     14  S   UNL d   1       1.008  -0.049  -0.058  0.00  0.00     0.250 S 
ATOM     15  O   UNL d   1       2.270   0.636  -0.194  0.00  0.00    -0.205 OA
ATOM     16  O   UNL d   1       0.797  -1.360  -0.643  0.00  0.00    -0.205 OA
BRANCH  14  17
ATOM     17  C   UNL d   1      -0.184   0.973  -0.896  0.00  0.00     0.116 A 
ATOM     18  S   UNL d   1      -0.378   2.583  -0.352  0.00  0.00    -0.075 SA
ATOM     19  C   UNL d   1      -1.550   2.919  -1.545  0.00  0.00     0.033 A 
ATOM     20  C   UNL d   1      -1.798   1.822  -2.342  0.00  0.00     0.023 A 
ATOM     21  C   UNL d   1      -0.997   0.706  -1.981  0.00  0.00     0.034 A 
BRANCH  19  22
ATOM     22  C   UNL d   1      -2.251   4.226  -1.755  0.00  0.00     0.056 A 
ATOM     23  N   UNL d   1      -3.258   4.320  -2.703  0.00  0.00    -0.353 N 
ATOM     24  C   UNL d   1      -3.740   5.543  -2.734  0.00  0.00     0.047 A 
ATOM     25  HN  UNL d   1      -3.579   3.552  -3.291  1.00  0.00     0.166 HD
ATOM     26  C   UNL d   1      -4.842   5.976  -3.632  0.00  0.00     0.076 C 
ATOM     27  S   UNL d   1      -2.998   6.654  -1.655  0.00  0.00    -0.087 SA
ATOM     28  C   UNL d   1      -1.976   5.398  -1.081  0.00  0.00     0.082 A 
ENDBRANCH  19  22
ENDBRANCH  14  17
ENDBRANCH   5  14
BRANCH   4  29
ATOM     29  C   UNL d   1       5.664  -0.210   7.114  0.00  0.00     0.009 A 
ATOM     30  C   UNL d   1       5.627   1.193   7.092  0.00  0.00     0.015 A 
ATOM     31  C   UNL d   1       6.230   1.937   8.109  0.00  0.00     0.001 A 
ATOM     32  C   UNL d   1       6.878   1.288   9.159  0.00  0.00     0.000 A 
ATOM     33  C   UNL d   1       6.930  -0.103   9.191  0.00  0.00     0.001 A 
ATOM     34  C   UNL d   1       6.328  -0.847   8.175  0.00  0.00     0.015 A 
ENDBRANCH   4  29
TORSDOF 4
