REMARK  3 active torsions:
REMARK  status: ('A' for Active; 'I' for Inactive)
REMARK    1  A    between atoms: C_11  and  C_3 
REMARK    2  A    between atoms: C_10  and  C_4 
REMARK    3  A    between atoms: C_12  and  C_5 
ROOT
ATOM      1  N   UNL d   1       1.357   0.359  -0.076  0.00  0.00    -0.336 N 
ATOM      2  HN  UNL d   1       2.322   0.676  -0.171  1.00  0.00     0.168 HD
ATOM      3  C   UNL d   1       1.038  -0.974  -0.064  0.00  0.00     0.091 A 
ATOM      4  C   UNL d   1      -0.275  -1.412   0.102  0.00  0.00     0.103 A 
ATOM      5  C   UNL d   1       0.334   1.233   0.044  0.00  0.00     0.147 A 
ATOM      6  N   UNL d   1      -1.264  -0.487   0.171  0.00  0.00    -0.295 N 
ATOM      7  HN  UNL d   1      -2.237  -0.784   0.245  1.00  0.00     0.187 HD
ATOM      8  N   UNL d   1      -0.956   0.847   0.140  0.00  0.00    -0.283 N 
ATOM      9  HN  UNL d   1      -1.697   1.545   0.190  1.00  0.00     0.188 HD
ENDROOT
BRANCH   3  10
ATOM     10  C   UNL d   1       2.193  -1.881  -0.233  0.00  0.00     0.061 A 
ATOM     11  N   UNL d   1       2.008  -2.977  -1.021  0.00  0.00    -0.364 N 
ATOM     12  C   UNL d   1       3.009  -3.883  -1.080  0.00  0.00     0.088 A 
ATOM     13  HN  UNL d   1       1.145  -3.108  -1.548  1.00  0.00     0.165 HD
ATOM     14  C   UNL d   1       4.227  -3.729  -0.445  0.00  0.00     0.017 A 
ATOM     15  C   UNL d   1       4.442  -2.567   0.284  0.00  0.00     0.004 A 
ATOM     16  C   UNL d   1       3.415  -1.632   0.391  0.00  0.00     0.032 A 
ENDBRANCH   3  10
BRANCH   4  17
ATOM     17  C   UNL d   1      -0.709  -2.805   0.293  0.00  0.00     0.062 A 
ATOM     18  N   UNL d   1       0.079  -3.592   1.075  0.00  0.00    -0.364 N 
ATOM     19  C   UNL d   1      -0.272  -4.886   1.229  0.00  0.00     0.088 A 
ATOM     20  HN  UNL d   1       0.911  -3.216   1.530  1.00  0.00     0.165 HD
ATOM     21  C   UNL d   1      -1.420  -5.441   0.693  0.00  0.00     0.017 A 
ATOM     22  C   UNL d   1      -2.257  -4.619  -0.049  0.00  0.00     0.004 A 
ATOM     23  C   UNL d   1      -1.900  -3.288  -0.255  0.00  0.00     0.032 A 
ENDBRANCH   4  17
BRANCH   5  24
ATOM     24  C   UNL d   1       0.646   2.680   0.132  0.00  0.00     0.077 A 
ATOM     25  N   UNL d   1      -0.400   3.542   0.274  0.00  0.00    -0.363 N 
ATOM     26  C   UNL d   1      -0.134   4.861   0.397  0.00  0.00     0.088 A 
ATOM     27  HN  UNL d   1      -1.361   3.199   0.288  1.00  0.00     0.165 HD
ATOM     28  C   UNL d   1       1.142   5.391   0.384  0.00  0.00     0.017 A 
ATOM     29  C   UNL d   1       2.210   4.519   0.232  0.00  0.00     0.004 A 
ATOM     30  C   UNL d   1       1.962   3.152   0.104  0.00  0.00     0.033 A 
ENDBRANCH   5  24
TORSDOF 3
