REMARK  2 active torsions:
REMARK  status: ('A' for Active; 'I' for Inactive)
REMARK    1  A    between atoms: C_3  and  N_1 
REMARK    2  A    between atoms: C_6  and  C_2 
ROOT
ATOM      1  N   UNL d   1      -0.659  -1.178   0.181  0.00  0.00    -0.299 N 
ATOM      2  C   UNL d   1       0.730  -1.405  -0.207  0.00  0.00     0.190 C 
ATOM      3  S   UNL d   1       1.557   0.206  -0.209  0.00  0.00    -0.129 SA
ATOM      4  C   UNL d   1      -1.088   0.153   0.166  0.00  0.00     0.235 C 
ATOM      5  C   UNL d   1       0.011   1.118  -0.212  0.00  0.00     0.179 C 
ATOM      6  O   UNL d   1      -2.233   0.548   0.363  0.00  0.00    -0.272 OA
ENDROOT
BRANCH   1   7
ATOM      7  C   UNL d   1      -1.553  -2.269   0.425  0.00  0.00     0.042 A 
ATOM      8  C   UNL d   1      -1.369  -3.511  -0.199  0.00  0.00     0.053 A 
ATOM      9  C   UNL d   1      -2.217  -4.585   0.092  0.00  0.00     0.037 A 
ATOM     10 CL   UNL d   1      -1.975  -6.093  -0.702  0.00  0.00    -0.084 Cl
ATOM     11  C   UNL d   1      -3.248  -4.452   1.013  0.00  0.00     0.048 A 
ATOM     12  C   UNL d   1      -3.437  -3.222   1.633  0.00  0.00     0.037 A 
ATOM     13  C   UNL d   1      -2.610  -2.136   1.338  0.00  0.00     0.053 A 
ATOM     14 CL   UNL d   1      -4.687  -3.047   2.805  0.00  0.00    -0.084 Cl
ENDBRANCH   1   7
BRANCH   2  15
ATOM     15  C   UNL d   1       1.472  -2.384   0.675  0.00  0.00    -0.010 A 
ATOM     16  C   UNL d   1       2.216  -3.414   0.104  0.00  0.00     0.097 A 
ATOM     17  N   UNL d   1       2.849  -4.380   0.806  0.00  0.00    -0.375 N 
ATOM     18  C   UNL d   1       2.757  -4.314   2.151  0.00  0.00     0.087 A 
ATOM     19  HN  UNL d   1       3.370  -5.124   0.342  1.00  0.00     0.164 HD
ATOM     20  C   UNL d   1       2.073  -3.318   2.825  0.00  0.00     0.018 A 
ATOM     21  C   UNL d   1       1.427  -2.338   2.076  0.00  0.00     0.013 A 
ENDBRANCH   2  15
TORSDOF 2
