REMARK  4 active torsions:
REMARK  status: ('A' for Active; 'I' for Inactive)
REMARK    1  A    between atoms: C_15  and  N_1 
REMARK    2  A    between atoms: C_16  and  N_2 
REMARK    3  A    between atoms: C_17  and  C_7 
REMARK    4  A    between atoms: O_33  and  C_17 
ROOT
ATOM      1  N   UNL d   1      -3.625  -0.170   0.334  0.00  0.00    -0.153 NA
ATOM      2  N   UNL d   1       2.807   1.879   0.294  0.00  0.00    -0.153 NA
ATOM      3  C   UNL d   1      -3.169   1.053   0.767  0.00  0.00     0.216 C 
ATOM      4  C   UNL d   1      -2.743  -0.599  -0.653  0.00  0.00     0.216 C 
ATOM      5  C   UNL d   1       1.714   2.664   0.630  0.00  0.00     0.216 C 
ATOM      6  C   UNL d   1       2.298   1.030  -0.676  0.00  0.00     0.216 C 
ATOM      7  C   UNL d   1      -0.768   2.069  -1.554  0.00  0.00     0.019 C 
ATOM      8  C   UNL d   1       0.878   0.679  -0.280  0.00  0.00     0.096 C 
ATOM      9  C   UNL d   1      -1.377  -0.052  -0.286  0.00  0.00     0.096 C 
ATOM     10  C   UNL d   1       0.590   1.685   0.869  0.00  0.00     0.095 C 
ATOM     11  C   UNL d   1      -1.687   0.897   0.898  0.00  0.00     0.095 C 
ATOM     12  C   UNL d   1      -0.347   0.633  -1.252  0.00  0.00     0.051 C 
ATOM     13  C   UNL d   1      -0.855   2.176   0.839  0.00  0.00     0.036 C 
ATOM     14  C   UNL d   1      -1.082   2.819  -0.484  0.00  0.00    -0.007 C 
ATOM     15  O   UNL d   1      -3.812   2.047   1.045  0.00  0.00    -0.278 OA
ATOM     16  O   UNL d   1      -2.954  -1.377  -1.560  0.00  0.00    -0.278 OA
ATOM     17  O   UNL d   1       1.659   3.877   0.714  0.00  0.00    -0.278 OA
ATOM     18  O   UNL d   1       2.873   0.591  -1.658  0.00  0.00    -0.278 OA
ENDROOT
BRANCH   1  19
ATOM     19  C   UNL d   1      -4.050  -1.079   1.382  0.00  0.00     0.028 A 
ATOM     20  C   UNL d   1      -4.500  -0.541   2.609  0.00  0.00     0.048 A 
ATOM     21  C   UNL d   1      -4.669  -1.343   3.738  0.00  0.00     0.037 A 
ATOM     22 CL   UNL d   1      -5.089  -0.615   5.239  0.00  0.00    -0.084 Cl
ATOM     23  C   UNL d   1      -4.446  -2.709   3.667  0.00  0.00     0.047 A 
ATOM     24  C   UNL d   1      -4.070  -3.266   2.447  0.00  0.00     0.037 A 
ATOM     25  C   UNL d   1      -3.873  -2.467   1.307  0.00  0.00     0.048 A 
ATOM     26 CL   UNL d   1      -3.783  -4.961   2.363  0.00  0.00    -0.084 Cl
ENDBRANCH   1  19
BRANCH   7  27
ATOM     27  C   UNL d   1      -0.833   2.728  -2.880  0.00  0.00     0.289 C 
ATOM     28  O   UNL d   1      -1.276   2.217  -3.890  0.00  0.00    -0.260 OA
BRANCH  27  29
ATOM     29  O   UNL d   1      -0.383   4.000  -2.720  0.00  0.00    -0.323 OA
ATOM     30  C   UNL d   1      -0.785   4.995  -3.664  0.00  0.00     0.213 C 
ENDBRANCH  27  29
ENDBRANCH   7  27
BRANCH   2  31
ATOM     31  C   UNL d   1       3.383   1.304   1.511  0.00  0.00     0.028 C 
ATOM     32  C   UNL d   1       3.300  -0.068   1.804  0.00  0.00     0.048 C 
ATOM     33  C   UNL d   1       3.316  -0.492   3.139  0.00  0.00     0.037 C 
ATOM     34 CL   UNL d   1       2.942  -2.132   3.511  0.00  0.00    -0.084 Cl
ATOM     35  C   UNL d   1       3.512   0.412   4.180  0.00  0.00     0.047 C 
ATOM     36  C   UNL d   1       3.739   1.749   3.878  0.00  0.00     0.037 C 
ATOM     37  C   UNL d   1       3.688   2.196   2.557  0.00  0.00     0.048 C 
ATOM     38 CL   UNL d   1       3.956   2.886   5.150  0.00  0.00    -0.084 Cl
ENDBRANCH   2  31
TORSDOF 4
