REMARK  3 active torsions:
REMARK  status: ('A' for Active; 'I' for Inactive)
REMARK    1  A    between atoms: C_16  and  C_3 
REMARK    2  A    between atoms: C_11  and  C_4 
REMARK    3  A    between atoms: C_8  and  C_15 
ROOT
ATOM      1  N   UNL d   1       1.287  -0.484  -0.493  0.00  0.00    -0.349 N 
ATOM      2  HN  UNL d   1       2.092  -0.911  -0.949  1.00  0.00     0.166 HD
ATOM      3  C   UNL d   1       0.109  -1.062  -0.352  0.00  0.00     0.084 A 
ATOM      4  C   UNL d   1       1.276   0.787   0.065  0.00  0.00     0.050 A 
ATOM      5  S   UNL d   1      -1.094  -0.065   0.382  0.00  0.00    -0.081 SA
ATOM      6  C   UNL d   1       0.056   1.188   0.574  0.00  0.00     0.082 A 
ENDROOT
BRANCH   4   7
ATOM      7  C   UNL d   1       2.458   1.639   0.045  0.00  0.00    -0.008 A 
ATOM      8  C   UNL d   1       3.389   1.504  -0.990  0.00  0.00     0.022 A 
ATOM      9  C   UNL d   1       4.524   2.341  -1.104  0.00  0.00    -0.042 A 
ATOM     10  C   UNL d   1       5.484   2.130  -2.279  0.00  0.00    -0.020 C 
ATOM     11  C   UNL d   1       4.697   3.373  -0.156  0.00  0.00    -0.043 A 
ATOM     12  C   UNL d   1       6.802   2.914  -2.093  0.00  0.00     0.015 C 
ATOM     13  C   UNL d   1       4.771   2.574  -3.576  0.00  0.00     0.020 C 
ATOM     14  C   UNL d   1       5.886   0.642  -2.425  0.00  0.00     0.020 C 
ATOM     15  C   UNL d   1       6.580   4.332  -1.600  0.00  0.00     0.015 C 
ATOM     16  C   UNL d   1       5.838   4.394  -0.245  0.00  0.00    -0.020 C 
ATOM     17  C   UNL d   1       6.827   4.143   0.914  0.00  0.00     0.020 C 
ATOM     18  C   UNL d   1       5.292   5.838  -0.121  0.00  0.00     0.020 C 
ATOM     19  C   UNL d   1       3.789   3.454   0.921  0.00  0.00     0.009 A 
ATOM     20  C   UNL d   1       2.688   2.603   1.023  0.00  0.00     0.014 A 
ENDBRANCH   4   7
BRANCH   3  21
ATOM     21  C   UNL d   1      -0.208  -2.426  -0.808  0.00  0.00    -0.002 A 
ATOM     22  C   UNL d   1      -1.220  -3.202  -0.225  0.00  0.00     0.015 A 
ATOM     23  C   UNL d   1      -1.496  -4.496  -0.681  0.00  0.00     0.017 A 
ATOM     24  C   UNL d   1      -0.761  -5.051  -1.736  0.00  0.00     0.048 A 
ATOM     25  C   UNL d   1       0.263  -4.289  -2.317  0.00  0.00     0.017 A 
ATOM     26  C   UNL d   1       0.537  -2.995  -1.855  0.00  0.00     0.015 A 
BRANCH  24  27
ATOM     27  C   UNL d   1      -1.055  -6.443  -2.241  0.00  0.00     0.417 C 
ATOM     28  F   UNL d   1      -2.073  -7.058  -1.575  0.00  0.00    -0.166 F 
ATOM     29  F   UNL d   1      -1.412  -6.455  -3.555  0.00  0.00    -0.166 F 
ATOM     30  F   UNL d   1       0.016  -7.276  -2.134  0.00  0.00    -0.166 F 
ENDBRANCH  24  27
ENDBRANCH   3  21
TORSDOF 3
