REMARK  3 active torsions:
REMARK  status: ('A' for Active; 'I' for Inactive)
REMARK    1  A    between atoms: C_2  and  S_1 
REMARK    2  A    between atoms: N_3  and  S_1 
REMARK    3  A    between atoms: C_6  and  N_3 
ROOT
ATOM      1  C   UNL d   1       0.379   0.249  -1.780  0.00  0.00     0.081 A 
ATOM      2  C   UNL d   1      -0.487   1.312  -2.050  0.00  0.00     0.050 A 
ATOM      3  C   UNL d   1      -0.886   1.553  -3.367  0.00  0.00     0.057 A 
ATOM      4  C   UNL d   1      -0.422   0.732  -4.403  0.00  0.00     0.055 A 
ATOM      5  C   UNL d   1       0.855  -0.570  -2.808  0.00  0.00     0.027 A 
ATOM      6  C   UNL d   1       0.449  -0.327  -4.121  0.00  0.00     0.027 A 
ATOM      7 CL   UNL d   1      -1.959   2.879  -3.648  0.00  0.00    -0.083 Cl
ATOM      8 CL   UNL d   1      -0.887   0.968  -6.050  0.00  0.00    -0.083 Cl
ENDROOT
BRANCH   1   9
ATOM      9  S   UNL d   1       0.870  -0.085  -0.109  0.00  0.00     0.259 S 
ATOM     10  O   UNL d   1       0.109   0.768   0.776  0.00  0.00    -0.201 OA
ATOM     11  O   UNL d   1       2.317  -0.111  -0.087  0.00  0.00    -0.201 OA
BRANCH   9  12
ATOM     12  N   UNL d   1       0.355  -1.672   0.092  0.00  0.00    -0.311 N 
ATOM     13  H   UNL d   1       1.073  -2.296   0.457  0.00  0.00     0.172 HD
BRANCH  12  14
ATOM     14  C   UNL d   1      -1.048  -1.932   0.379  0.00  0.00     0.093 A 
ATOM     15  C   UNL d   1      -1.514  -3.334   0.658  0.00  0.00     0.028 A 
ATOM     16  C   UNL d   1      -1.893  -2.663  -0.628  0.00  0.00     0.028 A 
ENDBRANCH  12  14
ENDBRANCH   9  12
ENDBRANCH   1   9
TORSDOF 3
