REMARK  2 active torsions:
REMARK  status: ('A' for Active; 'I' for Inactive)
REMARK    1  A    between atoms: C_7  and  C_3 
REMARK    2  A    between atoms: C_12  and  C_4 
ROOT
ATOM      1  N   UNL d   1      -3.264   0.858   2.417  0.00  0.00    -0.197 NA
ATOM      2  C   UNL d   1      -2.402   0.105   2.215  0.00  0.00     0.065 C 
ATOM      3  C   UNL d   1      -1.336  -0.871   1.966  0.00  0.00     0.188 C 
ENDROOT
BRANCH   3   4
ATOM      4  C   UNL d   1      -0.406  -0.352   0.916  0.00  0.00     0.064 A 
ATOM      5  N   UNL d   1       0.661   0.382   1.159  0.00  0.00    -0.352 N 
ATOM      6  C   UNL d   1       1.284   0.735  -0.030  0.00  0.00     0.049 A 
ATOM      7  HN  UNL d   1       0.983   0.652   2.089  1.00  0.00     0.166 HD
ATOM      8  C   UNL d   1       0.673   0.243  -1.167  0.00  0.00     0.081 A 
ATOM      9  S   UNL d   1      -0.691  -0.705  -0.744  0.00  0.00    -0.085 SA
BRANCH   6  10
ATOM     10  C   UNL d   1       2.467   1.591  -0.038  0.00  0.00    -0.007 A 
ATOM     11  C   UNL d   1       3.411   1.536  -1.074  0.00  0.00     0.039 A 
ATOM     12  C   UNL d   1       4.535   2.372  -1.062  0.00  0.00     0.056 A 
ATOM     13 CL   UNL d   1       5.646   2.235  -2.380  0.00  0.00    -0.083 Cl
ATOM     14  C   UNL d   1       4.729   3.272  -0.010  0.00  0.00     0.055 A 
ATOM     15  C   UNL d   1       3.798   3.330   1.028  0.00  0.00     0.026 A 
ATOM     16 CL   UNL d   1       6.092   4.330   0.067  0.00  0.00    -0.083 Cl
ATOM     17  C   UNL d   1       2.677   2.493   1.015  0.00  0.00     0.015 A 
ENDBRANCH   6  10
ENDBRANCH   3   4
TORSDOF 2
