REMARK  6 active torsions:
REMARK  status: ('A' for Active; 'I' for Inactive)
REMARK    1  A    between atoms: C_3  and  S_1 
REMARK    2  A    between atoms: C_5  and  S_1 
REMARK       I    between atoms: C_2  and  N_6 
REMARK       I    between atoms: N_4  and  C_2 
REMARK    3  A    between atoms: C_10  and  C_3 
REMARK    4  A    between atoms: C_13  and  N_4 
REMARK    5  A    between atoms: N_6  and  C_10 
REMARK    6  A    between atoms: C_23  and  N_6 
ROOT
ATOM      1  C   UNL d   1      -0.289   0.972  -4.191  0.00  0.00     0.322 C 
ATOM      2  N   UNL d   1      -0.789   1.427  -5.395  0.00  0.00    -0.309 N 
ATOM      3  N   UNL d   1       0.334   1.921  -3.371  0.00  0.00    -0.333 N 
ATOM      4  O   UNL d   1      -0.390  -0.195  -3.817  0.00  0.00    -0.247 OA
ATOM      5  H   UNL d   1      -0.447   2.301  -5.751  0.00  0.00     0.170 HD
ENDROOT
BRANCH   3   6
ATOM      6  C   UNL d   1       0.948   1.407  -2.125  0.00  0.00     0.143 C 
BRANCH   6   7
ATOM      7  C   UNL d   1       0.302   1.916  -0.841  0.00  0.00     0.165 C 
BRANCH   7   8
ATOM      8  S   UNL d   1       1.100   1.141   0.558  0.00  0.00     0.177 S 
ATOM      9  O   UNL d   1       2.497   1.556   0.555  0.00  0.00    -0.223 OA
ATOM     10  O   UNL d   1       0.753  -0.266   0.574  0.00  0.00    -0.223 OA
BRANCH   8  11
ATOM     11  C   UNL d   1       0.337   1.893   1.970  0.00  0.00     0.059 A 
ATOM     12  C   UNL d   1      -0.775   1.286   2.559  0.00  0.00     0.024 A 
ATOM     13  C   UNL d   1      -1.340   1.853   3.702  0.00  0.00     0.008 A 
ATOM     14  C   UNL d   1      -0.795   3.016   4.266  0.00  0.00    -0.062 A 
ATOM     15  C   UNL d   1       0.334   3.600   3.675  0.00  0.00     0.008 A 
ATOM     16  C   UNL d   1      -1.407   3.605   5.503  0.00  0.00     0.048 C 
ATOM     17  C   UNL d   1       0.905   3.038   2.531  0.00  0.00     0.024 A 
ENDBRANCH   8  11
ENDBRANCH   7   8
ENDBRANCH   6   7
ENDBRANCH   3   6
BRANCH   3  18
ATOM     18  C   UNL d   1       0.514   3.349  -3.666  0.00  0.00     0.123 C 
ATOM     19  C   UNL d   1       1.935   3.685  -4.097  0.00  0.00     0.026 C 
ENDBRANCH   3  18
BRANCH   2  20
ATOM     20  C   UNL d   1      -1.689   0.718  -6.243  0.00  0.00     0.036 A 
ATOM     21  C   UNL d   1      -2.313  -0.483  -5.880  0.00  0.00     0.031 A 
ATOM     22  C   UNL d   1      -3.320  -1.046  -6.674  0.00  0.00     0.026 A 
ATOM     23  C   UNL d   1      -3.701  -0.419  -7.852  0.00  0.00     0.034 A 
ATOM     24  C   UNL d   1      -3.039   0.731  -8.274  0.00  0.00     0.026 A 
ATOM     25 CL   UNL d   1      -5.018  -1.043  -8.767  0.00  0.00    -0.084 Cl
ATOM     26  C   UNL d   1      -2.035   1.296  -7.473  0.00  0.00     0.031 A 
ENDBRANCH   2  20
TORSDOF 6
