REMARK  4 active torsions:
REMARK  status: ('A' for Active; 'I' for Inactive)
REMARK    1  A    between atoms: C_9  and  C_2 
REMARK    2  A    between atoms: C_11  and  C_4 
REMARK    3  A    between atoms: C_10  and  C_5 
REMARK    4  A    between atoms: O_12  and  N_7 
ROOT
ATOM      1  N   UNL d   1       1.926   0.549  -0.519  0.00  0.00     0.102 NA
ATOM      2  C   UNL d   1       0.729   1.399  -0.387  0.00  0.00     0.264 C 
ATOM      3  C   UNL d   1      -0.542  -0.499   0.512  0.00  0.00     0.019 C 
ATOM      4  C   UNL d   1      -0.209   0.963   0.768  0.00  0.00     0.074 C 
ATOM      5  C   UNL d   1       1.680  -0.904  -0.603  0.00  0.00     0.259 C 
ATOM      6  C   UNL d   1       0.624  -1.446   0.376  0.00  0.00     0.095 C 
ATOM      7  N   UNL d   1      -1.750  -0.993   0.435  0.00  0.00    -0.277 N 
ATOM      8  HN  UNL d   1      -1.960  -1.980   0.287  1.00  0.00     0.193 HD
ATOM      9  H   UNL d   1       2.525   0.722   0.287  0.00  0.00     0.317 HD
ENDROOT
BRANCH   2  10
ATOM     10  C   UNL d   1       0.061   1.691  -1.736  0.00  0.00    -0.025 A 
ATOM     11  C   UNL d   1      -0.951   0.897  -2.296  0.00  0.00     0.009 A 
ATOM     12  C   UNL d   1      -1.509   1.183  -3.544  0.00  0.00     0.001 A 
ATOM     13  C   UNL d   1      -1.076   2.286  -4.263  0.00  0.00     0.000 A 
ATOM     14  C   UNL d   1      -0.079   3.102  -3.732  0.00  0.00     0.001 A 
ATOM     15  C   UNL d   1       0.486   2.804  -2.485  0.00  0.00     0.009 A 
ENDBRANCH   2  10
BRANCH   4  16
ATOM     16  C   UNL d   1       0.394   1.093   2.209  0.00  0.00    -0.011 C 
ATOM     17  C   UNL d   1       0.799   2.527   2.567  0.00  0.00     0.010 C 
ATOM     18  C   UNL d   1      -0.599   0.593   3.272  0.00  0.00     0.010 C 
ENDBRANCH   4  16
BRANCH   5  19
ATOM     19  C   UNL d   1       1.639  -1.421  -2.040  0.00  0.00    -0.025 A 
ATOM     20  C   UNL d   1       2.778  -1.239  -2.849  0.00  0.00     0.009 A 
ATOM     21  C   UNL d   1       2.874  -1.825  -4.113  0.00  0.00     0.001 A 
ATOM     22  C   UNL d   1       1.823  -2.593  -4.603  0.00  0.00     0.000 A 
ATOM     23  C   UNL d   1       0.669  -2.748  -3.840  0.00  0.00     0.001 A 
ATOM     24  C   UNL d   1       0.576  -2.167  -2.571  0.00  0.00     0.009 A 
ENDBRANCH   5  19
BRANCH   7  25
ATOM     25  O   UNL d   1      -2.718   0.006   0.580  0.00  0.00    -0.290 OA
ATOM     26  H   UNL d   1      -3.523  -0.419   0.228  0.00  0.00     0.244 HD
ENDBRANCH   7  25
TORSDOF 4
