REMARK  2 active torsions:
REMARK  status: ('A' for Active; 'I' for Inactive)
REMARK    1  A    between atoms: C_14  and  C_2 
REMARK    2  A    between atoms: C_7  and  N_4 
ROOT
ATOM      1  C   UNL d   1       3.084  -0.982   0.611  0.00  0.00     0.192 C 
ATOM      2  C   UNL d   1       5.010  -0.757   1.748  0.00  0.00     0.070 C 
ATOM      3  O   UNL d   1       4.152  -1.687   1.113  0.00  0.00    -0.291 OA
ATOM      4  N   UNL d   1       2.008  -1.519   0.133  0.00  0.00    -0.330 N 
ATOM      5  HN  UNL d   1       1.257  -0.924  -0.215  1.00  0.00     0.168 HD
ATOM      6  S   UNL d   1       3.251   0.764   0.706  0.00  0.00    -0.056 SA
ATOM      7  C   UNL d   1       4.701   0.539   1.614  0.00  0.00     0.087 C 
ENDROOT
BRANCH   4   8
ATOM      8  C   UNL d   1       1.865  -2.922   0.091  0.00  0.00     0.041 A 
ATOM      9  C   UNL d   1       2.240  -3.740   1.169  0.00  0.00     0.037 A 
ATOM     10  C   UNL d   1       2.160  -5.140   1.116  0.00  0.00    -0.054 A 
ATOM     11  C   UNL d   1       2.701  -5.944   2.263  0.00  0.00     0.049 C 
ATOM     12  C   UNL d   1       1.587  -5.745  -0.012  0.00  0.00    -0.056 A 
ATOM     13  C   UNL d   1       1.142  -4.934  -1.067  0.00  0.00     0.016 A 
ATOM     14  C   UNL d   1       1.442  -7.238  -0.109  0.00  0.00     0.049 C 
ATOM     15  C   UNL d   1       1.283  -3.532  -1.031  0.00  0.00    -0.035 A 
ATOM     16  C   UNL d   1       0.747  -2.740  -2.193  0.00  0.00     0.050 C 
ENDBRANCH   4   8
BRANCH   2  17
ATOM     17  C   UNL d   1       6.147  -1.381   2.547  0.00  0.00    -0.001 C 
ATOM     18  C   UNL d   1       7.019  -2.243   1.617  0.00  0.00     0.021 C 
ATOM     19  C   UNL d   1       7.050  -0.334   3.229  0.00  0.00     0.021 C 
ATOM     20  C   UNL d   1       5.550  -2.281   3.648  0.00  0.00     0.021 C 
ENDBRANCH   2  17
TORSDOF 2
