REMARK  2 active torsions:
REMARK  status: ('A' for Active; 'I' for Inactive)
REMARK    1  A    between atoms: C_6  and  C_1 
REMARK    2  A    between atoms: N_11  and  N_2 
REMARK       I    between atoms: N_9  and  C_6 
ROOT
ATOM      1  C   UNL d   1       1.373  -1.708   0.114  0.00  0.00     0.195 A 
ATOM      2  N   UNL d   1       1.896  -0.432  -0.074  0.00  0.00    -0.223 N 
ATOM      3  N   UNL d   1       0.102  -1.958   0.205  0.00  0.00    -0.336 N 
ATOM      4  HN  UNL d   1      -0.236  -2.908   0.358  1.00  0.00     0.168 HD
ATOM      5  C   UNL d   1       1.077   0.701  -0.075  0.00  0.00     0.276 A 
ATOM      6  C   UNL d   1      -0.375   0.437  -0.007  0.00  0.00     0.060 A 
ATOM      7  C   UNL d   1      -0.790  -0.888   0.088  0.00  0.00     0.049 A 
ATOM      8  O   UNL d   1       1.504   1.853  -0.118  0.00  0.00    -0.266 OA
ATOM      9  C   UNL d   1      -1.306   1.480  -0.058  0.00  0.00     0.019 A 
ATOM     10  C   UNL d   1      -2.159  -1.173   0.095  0.00  0.00     0.030 A 
ATOM     11  C   UNL d   1      -2.670   1.185  -0.035  0.00  0.00     0.001 A 
ATOM     12  C   UNL d   1      -3.096  -0.142   0.030  0.00  0.00     0.002 A 
ENDROOT
BRANCH   1  13
ATOM     13  C   UNL d   1       2.347  -2.868   0.302  0.00  0.00     0.289 C 
ATOM     14  N   UNL d   1       2.124  -4.018  -0.434  0.00  0.00    -0.345 N 
ATOM     15  C   UNL d   1       2.857  -5.237  -0.172  0.00  0.00     0.126 C 
ATOM     16  C   UNL d   1       1.120  -4.214  -1.468  0.00  0.00     0.126 C 
ATOM     17  C   UNL d   1       2.697  -6.038  -1.452  0.00  0.00     0.021 C 
ATOM     18  C   UNL d   1       1.302  -5.656  -1.933  0.00  0.00     0.021 C 
ATOM     19  O   UNL d   1       3.242  -2.742   1.135  0.00  0.00    -0.264 OA
ENDBRANCH   1  13
BRANCH   2  20
ATOM     20  N   UNL d   1       3.298  -0.220  -0.245  0.00  0.00    -0.238 NA
ATOM     21  H   UNL d   1       3.774  -0.662   0.551  0.00  0.00     0.143 HD
ATOM     22  H   UNL d   1       3.454   0.788  -0.125  0.00  0.00     0.143 HD
ENDBRANCH   2  20
TORSDOF 2
