REMARK  3 active torsions:
REMARK  status: ('A' for Active; 'I' for Inactive)
REMARK    1  A    between atoms: C_9  and  N_6 
REMARK    2  A    between atoms: C_10  and  C_9 
REMARK    3  A    between atoms: O_12  and  C_10 
ROOT
ATOM      1  C   UNL d   1      -0.178  -1.374   0.135  0.00  0.00     0.709 A 
ATOM      2  N   UNL d   1      -0.603  -0.533  -0.823  0.00  0.00    -0.115 N 
ATOM      3  HN  UNL d   1      -1.330  -0.655  -1.527  1.00  0.00     0.207 HD
ATOM      4  N   UNL d   1       0.765  -0.795   0.952  0.00  0.00    -0.113 N 
ATOM      5  HN  UNL d   1       1.196  -1.220   1.774  1.00  0.00     0.203 HD
ATOM      6  N   UNL d   1       0.206   0.518  -0.588  0.00  0.00    -0.193 N 
ATOM      7  N   UNL d   1       1.010   0.415   0.474  0.00  0.00     0.011 NA
ATOM      8  N   UNL d   1      -0.575  -2.650   0.318  0.00  0.00    -0.215 N 
ATOM      9  C   UNL d   1       0.163  -3.551   1.199  0.00  0.00     0.141 C 
ATOM     10  C   UNL d   1      -1.241  -3.387  -0.751  0.00  0.00     0.141 C 
ATOM     11  C   UNL d   1       0.201  -4.868   0.431  0.00  0.00     0.022 C 
ATOM     12  C   UNL d   1      -1.112  -4.850  -0.333  0.00  0.00     0.022 C 
ENDROOT
BRANCH   6  13
ATOM     13  C   UNL d   1       0.185   1.680  -1.437  0.00  0.00     0.277 C 
BRANCH  13  14
ATOM     14  C   UNL d   1      -1.067   2.482  -1.252  0.00  0.00     0.161 C 
ATOM     15  O   UNL d   1      -1.080   3.704  -1.352  0.00  0.00    -0.649 OA
BRANCH  14  16
ATOM     16  O   UNL d   1      -2.211   1.782  -1.073  0.00  0.00    -0.775 OA
ATOM     17  H   UNL d   1      -2.105   0.802  -1.026  0.00  0.00     0.167 HD
ENDBRANCH  14  16
ENDBRANCH  13  14
ENDBRANCH   6  13
TORSDOF 3
