REMARK  2 active torsions:
REMARK  status: ('A' for Active; 'I' for Inactive)
REMARK    1  A    between atoms: C_2  and  S_1 
REMARK    2  A    between atoms: N_9  and  S_1 
ROOT
ATOM      1  C   UNL d   1       0.543  -1.795  -0.138  0.00  0.00     0.116 A 
ATOM      2  S   UNL d   1      -1.082  -2.123  -0.576  0.00  0.00    -0.065 SA
ATOM      3  C   UNL d   1      -0.807  -3.791  -0.533  0.00  0.00     0.075 A 
ATOM      4  C   UNL d   1       1.267  -2.961   0.038  0.00  0.00     0.034 A 
ATOM      5  C   UNL d   1       0.476  -4.127  -0.190  0.00  0.00     0.033 A 
ATOM      6 CL   UNL d   1      -2.090  -4.873  -0.894  0.00  0.00    -0.076 Cl
ENDROOT
BRANCH   1   7
ATOM      7  S   UNL d   1       0.968  -0.086   0.033  0.00  0.00     0.245 S 
ATOM      8  O   UNL d   1       0.572   0.562  -1.195  0.00  0.00    -0.206 OA
ATOM      9  O   UNL d   1       2.324  -0.058   0.525  0.00  0.00    -0.206 OA
BRANCH   7  10
ATOM     10  N   UNL d   1      -0.012   0.551   1.242  0.00  0.00    -0.225 NA
ATOM     11  H   UNL d   1      -0.965   0.663   0.896  0.00  0.00     0.136 HD
ATOM     12  H   UNL d   1       0.381   1.440   1.560  0.00  0.00     0.136 HD
ENDBRANCH   7  10
ENDBRANCH   1   7
TORSDOF 2
