REMARK  2 active torsions:
REMARK  status: ('A' for Active; 'I' for Inactive)
REMARK    1  A    between atoms: C_14  and  C_10 
REMARK    2  A    between atoms: O_20  and  C_14 
ROOT
ATOM      1  N   UNL d   1       0.903  -0.614  -0.002  0.00  0.00    -0.255 N 
ATOM      2  C   UNL d   1       1.360   0.661   0.000  0.00  0.00     0.160 A 
ATOM      3  C   UNL d   1      -0.464  -0.571  -0.002  0.00  0.00     0.073 A 
ATOM      4  C   UNL d   1       3.176  -1.002   0.001  0.00  0.00     0.082 A 
ATOM      5  C   UNL d   1       1.828  -1.628  -0.003  0.00  0.00     0.271 A 
ATOM      6  N   UNL d   1       0.406   1.554   0.000  0.00  0.00    -0.334 N 
ATOM      7  HN  UNL d   1       0.495   2.570   0.001  1.00  0.00     0.168 HD
ATOM      8  S   UNL d   1       3.083   0.742   0.003  0.00  0.00    -0.048 SA
ATOM      9  C   UNL d   1      -0.754   0.797  -0.001  0.00  0.00     0.063 A 
ATOM     10  C   UNL d   1       4.240  -1.812   0.005  0.00  0.00     0.106 C 
ATOM     11  C   UNL d   1      -1.444  -1.567  -0.002  0.00  0.00     0.058 A 
ATOM     12  C   UNL d   1      -2.099   1.202  -0.001  0.00  0.00     0.057 A 
ATOM     13  C   UNL d   1      -2.779  -1.147  -0.001  0.00  0.00     0.058 A 
ATOM     14  C   UNL d   1      -3.104   0.217  -0.001  0.00  0.00     0.058 A 
ATOM     15  O   UNL d   1       1.514  -2.805  -0.006  0.00  0.00    -0.266 OA
ATOM     16 CL   UNL d   1      -3.983  -2.389   0.001  0.00  0.00    -0.082 Cl
ATOM     17 CL   UNL d   1      -4.748   0.760  -0.000  0.00  0.00    -0.082 Cl
ENDROOT
BRANCH  10  18
ATOM     18  C   UNL d   1       5.650  -1.385   0.011  0.00  0.00     0.283 C 
ATOM     19  O   UNL d   1       6.047  -0.239   0.013  0.00  0.00    -0.260 OA
BRANCH  18  20
ATOM     20  O   UNL d   1       6.428  -2.499   0.015  0.00  0.00    -0.323 OA
ATOM     21  C   UNL d   1       7.830  -2.220   0.021  0.00  0.00     0.213 C 
ENDBRANCH  18  20
ENDBRANCH  10  18
TORSDOF 2
