REMARK  2 active torsions:
REMARK  status: ('A' for Active; 'I' for Inactive)
REMARK    1  A    between atoms: N_10  and  C_7 
REMARK    2  A    between atoms: C_12  and  N_10 
ROOT
ATOM      1  S   UNL d   1      -1.191  -1.600   0.053  0.00  0.00     0.270 S 
ATOM      2  C   UNL d   1      -2.430  -0.505   0.503  0.00  0.00     0.146 C 
ATOM      3  N   UNL d   1      -1.739  -2.008  -1.510  0.00  0.00    -0.275 N 
ATOM      4  C   UNL d   1      -2.685   0.599  -0.428  0.00  0.00     0.209 C 
ATOM      5  C   UNL d   1      -2.399   0.373  -1.874  0.00  0.00     0.043 A 
ATOM      6  C   UNL d   1      -1.956  -0.870  -2.384  0.00  0.00     0.059 A 
ATOM      7  C   UNL d   1      -3.298  -0.806   1.478  0.00  0.00     0.119 C 
ATOM      8  O   UNL d   1       0.061  -0.886  -0.109  0.00  0.00    -0.200 OA
ATOM      9  O   UNL d   1      -1.237  -2.801   0.860  0.00  0.00    -0.200 OA
ATOM     10  O   UNL d   1      -3.202   1.647  -0.043  0.00  0.00    -0.286 OA
ATOM     11  C   UNL d   1      -1.319  -3.316  -2.034  0.00  0.00     0.170 C 
ATOM     12  C   UNL d   1      -2.679   1.438  -2.746  0.00  0.00     0.018 A 
ATOM     13  C   UNL d   1      -1.865  -1.017  -3.775  0.00  0.00     0.031 A 
ATOM     14  C   UNL d   1      -2.557   1.274  -4.122  0.00  0.00     0.001 A 
ATOM     15  C   UNL d   1      -2.156   0.046  -4.636  0.00  0.00     0.002 A 
ENDROOT
BRANCH   7  16
ATOM     16  N   UNL d   1      -4.456  -0.127   1.788  0.00  0.00    -0.351 N 
ATOM     17  H   UNL d   1      -4.520   0.826   1.431  0.00  0.00     0.166 HD
BRANCH  16  18
ATOM     18  C   UNL d   1      -5.400  -0.503   2.752  0.00  0.00     0.104 A 
ATOM     19  N   UNL d   1      -5.158  -1.559   3.558  0.00  0.00    -0.352 N 
ATOM     20  C   UNL d   1      -6.129  -1.940   4.417  0.00  0.00     0.089 A 
ATOM     21  HN  UNL d   1      -4.268  -2.055   3.520  1.00  0.00     0.166 HD
ATOM     22  C   UNL d   1      -7.362  -1.321   4.510  0.00  0.00     0.017 A 
ATOM     23  C   UNL d   1      -7.615  -0.250   3.666  0.00  0.00     0.005 A 
ATOM     24  C   UNL d   1      -6.627   0.159   2.773  0.00  0.00     0.048 A 
ENDBRANCH  16  18
ENDBRANCH   7  16
TORSDOF 2
