REMARK  4 active torsions:
REMARK  status: ('A' for Active; 'I' for Inactive)
REMARK    1  A    between atoms: N_6  and  S_1 
REMARK    2  A    between atoms: C_10  and  S_1 
REMARK    3  A    between atoms: N_9  and  C_2 
REMARK    4  A    between atoms: C_14  and  N_6 
REMARK       I    between atoms: C_13  and  N_9 
ROOT
ATOM      1  C   UNL d   1      -0.735   5.131  -5.261  0.00  0.00     0.112 A 
ATOM      2  C   UNL d   1       0.606   5.771  -5.068  0.00  0.00     0.315 A 
ATOM      3  O   UNL d   1       1.568   5.064  -4.356  0.00  0.00    -0.273 OA
ATOM      4  C   UNL d   1      -1.006   3.960  -4.669  0.00  0.00     0.050 A 
ATOM      5  C   UNL d   1      -0.011   3.287  -3.853  0.00  0.00     0.002 A 
ATOM      6  C   UNL d   1       1.257   3.844  -3.730  0.00  0.00     0.090 A 
ATOM      7  C   UNL d   1       0.677   1.480  -2.403  0.00  0.00     0.043 A 
ATOM      8  C   UNL d   1      -0.299   2.089  -3.193  0.00  0.00     0.044 A 
ATOM      9  O   UNL d   1       0.835   6.880  -5.550  0.00  0.00    -0.257 OA
ATOM     10  C   UNL d   1       2.248   3.230  -2.969  0.00  0.00     0.040 A 
ATOM     11  C   UNL d   1       1.948   2.048  -2.288  0.00  0.00     0.033 A 
ENDROOT
BRANCH   7  12
ATOM     12  N   UNL d   1       0.384   0.286  -1.693  0.00  0.00    -0.281 N 
ATOM     13  H   UNL d   1       0.024  -0.511  -2.218  0.00  0.00     0.179 HD
BRANCH  12  14
ATOM     14  S   UNL d   1      -0.225   0.368  -0.120  0.00  0.00     0.263 S 
ATOM     15  O   UNL d   1       0.658   1.185   0.687  0.00  0.00    -0.200 OA
ATOM     16  O   UNL d   1      -0.544  -0.993   0.257  0.00  0.00    -0.200 OA
BRANCH  14  17
ATOM     17  C   UNL d   1      -1.763   1.243  -0.312  0.00  0.00     0.079 A 
ATOM     18  C   UNL d   1      -2.944   0.531  -0.543  0.00  0.00     0.026 A 
ATOM     19  C   UNL d   1      -4.137   1.226  -0.748  0.00  0.00     0.008 A 
ATOM     20  C   UNL d   1      -4.157   2.628  -0.720  0.00  0.00    -0.062 A 
ATOM     21  C   UNL d   1      -2.975   3.326  -0.440  0.00  0.00     0.008 A 
ATOM     22  C   UNL d   1      -5.438   3.364  -0.985  0.00  0.00     0.048 C 
ATOM     23  C   UNL d   1      -1.781   2.637  -0.222  0.00  0.00     0.026 A 
ENDBRANCH  14  17
ENDBRANCH  12  14
ENDBRANCH   7  12
BRANCH   1  24
ATOM     24  N   UNL d   1      -1.618   5.836  -6.069  0.00  0.00    -0.322 N 
ATOM     25  C   UNL d   1      -2.889   5.469  -6.462  0.00  0.00     0.218 C 
ATOM     26  O   UNL d   1      -3.468   4.433  -6.151  0.00  0.00    -0.274 OA
ATOM     27  C   UNL d   1      -3.558   6.467  -7.372  0.00  0.00     0.117 C 
ATOM     28  H   UNL d   1      -1.241   6.714  -6.418  0.00  0.00     0.169 HD
ENDBRANCH   1  24
TORSDOF 4
