REMARK  7 active torsions:
REMARK  status: ('A' for Active; 'I' for Inactive)
REMARK    1  A    between atoms: C_3  and  S_1 
REMARK    2  A    between atoms: C_6  and  S_1 
REMARK       I    between atoms: N_2  and  C_5 
REMARK    3  A    between atoms: C_4  and  N_2 
REMARK    4  A    between atoms: C_5  and  C_19 
REMARK    5  A    between atoms: C_20  and  C_6 
REMARK    6  A    between atoms: S_17  and  C_20 
REMARK    7  A    between atoms: C_19  and  S_17 
ROOT
ATOM      1  S   UNL d   1       1.414   4.386  -0.342  0.00  0.00    -0.159 SA
ENDROOT
BRANCH   1   2
ATOM      2  C   UNL d   1       1.232   2.780   0.535  0.00  0.00     0.089 C 
BRANCH   2   3
ATOM      3  C   UNL d   1       0.509   1.747  -0.317  0.00  0.00     0.156 C 
BRANCH   3   4
ATOM      4  S   UNL d   1       0.385   0.204   0.560  0.00  0.00     0.176 S 
ATOM      5  O   UNL d   1       1.726  -0.328   0.734  0.00  0.00    -0.223 OA
ATOM      6  O   UNL d   1      -0.490   0.404   1.696  0.00  0.00    -0.223 OA
BRANCH   4   7
ATOM      7  C   UNL d   1      -0.466  -0.876  -0.578  0.00  0.00     0.059 A 
ATOM      8  C   UNL d   1       0.275  -1.646  -1.481  0.00  0.00     0.025 A 
ATOM      9  C   UNL d   1      -0.384  -2.557  -2.311  0.00  0.00     0.025 A 
ATOM     10  C   UNL d   1      -1.770  -2.699  -2.226  0.00  0.00     0.034 A 
ATOM     11  C   UNL d   1      -2.507  -1.932  -1.324  0.00  0.00     0.025 A 
ATOM     12 CL   UNL d   1      -2.572  -3.847  -3.226  0.00  0.00    -0.084 Cl
ATOM     13  C   UNL d   1      -1.854  -1.018  -0.489  0.00  0.00     0.025 A 
ENDBRANCH   4   7
ENDBRANCH   3   4
ENDBRANCH   2   3
ENDBRANCH   1   2
BRANCH   1  14
ATOM     14  C   UNL d   1      -0.320   4.930  -0.308  0.00  0.00     0.177 C 
BRANCH  14  15
ATOM     15  C   UNL d   1      -0.585   6.339  -0.816  0.00  0.00     0.231 C 
ATOM     16  N   UNL d   1       0.435   6.973  -1.488  0.00  0.00    -0.325 N 
ATOM     17  H   UNL d   1       1.172   6.383  -1.865  0.00  0.00     0.169 HD
ATOM     18  O   UNL d   1      -1.717   6.815  -0.673  0.00  0.00    -0.272 OA
BRANCH  16  19
ATOM     19  C   UNL d   1       0.356   8.296  -1.982  0.00  0.00     0.056 A 
ATOM     20  C   UNL d   1       0.990   8.638  -3.188  0.00  0.00     0.060 A 
ATOM     21 CL   UNL d   1       1.795   7.440  -4.140  0.00  0.00    -0.082 Cl
ATOM     22  C   UNL d   1       0.923   9.945  -3.680  0.00  0.00     0.026 A 
ATOM     23  C   UNL d   1       0.258  10.933  -2.953  0.00  0.00     0.002 A 
ATOM     24  C   UNL d   1      -0.356  10.610  -1.746  0.00  0.00     0.002 A 
ATOM     25  C   UNL d   1      -0.318   9.297  -1.269  0.00  0.00     0.031 A 
ENDBRANCH  16  19
ENDBRANCH  14  15
ENDBRANCH   1  14
TORSDOF 7
