REMARK  5 active torsions:
REMARK  status: ('A' for Active; 'I' for Inactive)
REMARK    1  A    between atoms: C_2  and  S_1 
REMARK    2  A    between atoms: N_11  and  S_1 
REMARK    3  A    between atoms: C_3  and  C_7 
REMARK    4  A    between atoms: C_18  and  N_11 
REMARK    5  A    between atoms: C_19  and  C_18 
ROOT
ATOM      1  S   UNL d   1       0.940   0.055  -0.169  0.00  0.00     0.248 S 
ATOM      2  O   UNL d   1       0.150   0.523   0.948  0.00  0.00    -0.205 OA
ATOM      3  O   UNL d   1       2.385   0.140  -0.172  0.00  0.00    -0.205 OA
ENDROOT
BRANCH   1   4
ATOM      4  C   UNL d   1       0.391   1.076  -1.521  0.00  0.00     0.116 A 
ATOM      5  S   UNL d   1       0.996   0.709  -3.076  0.00  0.00    -0.075 SA
ATOM      6  C   UNL d   1       0.128   1.982  -3.800  0.00  0.00     0.033 A 
ATOM      7  C   UNL d   1      -0.612   2.688  -2.875  0.00  0.00     0.023 A 
ATOM      8  C   UNL d   1      -0.461   2.164  -1.559  0.00  0.00     0.034 A 
BRANCH   6   9
ATOM      9  C   UNL d   1       0.157   2.331  -5.257  0.00  0.00     0.056 A 
ATOM     10  N   UNL d   1      -0.521   3.444  -5.725  0.00  0.00    -0.353 N 
ATOM     11  C   UNL d   1      -0.321   3.583  -7.017  0.00  0.00     0.047 A 
ATOM     12  HN  UNL d   1      -1.092   4.065  -5.152  1.00  0.00     0.166 HD
ATOM     13  C   UNL d   1      -0.860   4.705  -7.830  0.00  0.00     0.076 C 
ATOM     14  S   UNL d   1       0.638   2.362  -7.753  0.00  0.00    -0.087 SA
ATOM     15  C   UNL d   1       0.839   1.617  -6.221  0.00  0.00     0.082 A 
ENDBRANCH   6   9
ENDBRANCH   1   4
BRANCH   1  16
ATOM     16  N   UNL d   1       0.483  -1.532  -0.456  0.00  0.00    -0.210 NA
ATOM     17  H   UNL d   1      -0.483  -1.625  -0.777  0.00  0.00     0.140 HD
BRANCH  16  18
ATOM     18  C   UNL d   1       1.416  -2.356  -1.237  0.00  0.00     0.161 C 
BRANCH  18  19
ATOM     19  C   UNL d   1       0.870  -3.748  -1.472  0.00  0.00     0.022 A 
ATOM     20  N   UNL d   1      -0.293  -3.844  -2.171  0.00  0.00    -0.368 N 
ATOM     21  C   UNL d   1      -0.760  -5.089  -2.419  0.00  0.00     0.088 A 
ATOM     22  HN  UNL d   1      -0.791  -3.014  -2.493  1.00  0.00     0.165 HD
ATOM     23  C   UNL d   1      -0.127  -6.248  -2.003  0.00  0.00     0.017 A 
ATOM     24  C   UNL d   1       1.053  -6.130  -1.279  0.00  0.00     0.003 A 
ATOM     25  C   UNL d   1       1.561  -4.864  -1.006  0.00  0.00     0.026 A 
ENDBRANCH  18  19
ENDBRANCH  16  18
ENDBRANCH   1  16
TORSDOF 5
