REMARK  8 active torsions:
REMARK  status: ('A' for Active; 'I' for Inactive)
REMARK    1  A    between atoms: N_2  and  C_1 
REMARK    2  A    between atoms: C_3  and  C_1 
REMARK    3  A    between atoms: C_5  and  C_1 
REMARK    4  A    between atoms: N_6  and  C_1 
REMARK       I    between atoms: C_4  and  N_2 
REMARK    5  A    between atoms: C_9  and  C_4 
REMARK    6  A    between atoms: O_16  and  C_5 
REMARK    7  A    between atoms: C_7  and  N_6 
REMARK    8  A    between atoms: C_23  and  O_16 
ROOT
ATOM      1  C   UNL d   1       1.017  -0.024  -0.097  0.00  0.00     0.297 C 
ENDROOT
BRANCH   1   2
ATOM      2  N   UNL d   1       0.383  -0.736  -1.216  0.00  0.00    -0.315 N 
ATOM      3  C   UNL d   1       0.290  -2.099  -1.270  0.00  0.00     0.254 C 
ATOM      4  O   UNL d   1       0.691  -2.843  -0.389  0.00  0.00    -0.268 OA
ATOM      5  H   UNL d   1      -0.170  -0.177  -1.855  0.00  0.00     0.166 HD
BRANCH   3   6
ATOM      6  C   UNL d   1      -0.365  -2.630  -2.490  0.00  0.00     0.032 A 
ATOM      7  C   UNL d   1       0.016  -2.157  -3.752  0.00  0.00     0.017 A 
ATOM      8  C   UNL d   1      -0.593  -2.676  -4.899  0.00  0.00     0.001 A 
ATOM      9  C   UNL d   1      -1.578  -3.655  -4.780  0.00  0.00     0.000 A 
ATOM     10  C   UNL d   1      -1.957  -4.125  -3.522  0.00  0.00     0.001 A 
ATOM     11  C   UNL d   1      -1.344  -3.619  -2.372  0.00  0.00     0.017 A 
ENDBRANCH   3   6
ENDBRANCH   1   2
BRANCH   1  12
ATOM     12  C   UNL d   1       0.547  -0.462   1.338  0.00  0.00     0.442 C 
ATOM     13  F   UNL d   1      -0.699  -0.998   1.332  0.00  0.00    -0.166 F 
ATOM     14  F   UNL d   1       1.386  -1.385   1.879  0.00  0.00    -0.166 F 
ATOM     15  F   UNL d   1       0.511   0.567   2.224  0.00  0.00    -0.166 F 
ENDBRANCH   1  12
BRANCH   1  16
ATOM     16  C   UNL d   1       0.569   1.455  -0.162  0.00  0.00     0.318 C 
ATOM     17  O   UNL d   1      -0.481   1.820  -0.685  0.00  0.00    -0.260 OA
BRANCH  16  18
ATOM     18  O   UNL d   1       1.495   2.301   0.378  0.00  0.00    -0.318 OA
BRANCH  18  19
ATOM     19  C   UNL d   1       1.231   3.706   0.266  0.00  0.00     0.174 C 
ATOM     20  C   UNL d   1       1.583   4.212  -1.122  0.00  0.00     0.034 C 
ENDBRANCH  18  19
ENDBRANCH  16  18
ENDBRANCH   1  16
BRANCH   1  21
ATOM     21  N   UNL d   1       2.486  -0.174  -0.305  0.00  0.00    -0.348 N 
ATOM     22  H   UNL d   1       2.821  -1.057   0.084  0.00  0.00     0.163 HD
BRANCH  21  23
ATOM     23  C   UNL d   1       3.231   0.277  -1.385  0.00  0.00     0.032 A 
ATOM     24  C   UNL d   1       2.712   0.993  -2.470  0.00  0.00     0.053 A 
ATOM     25  C   UNL d   1       3.548   1.503  -3.468  0.00  0.00     0.036 A 
ATOM     26 CL   UNL d   1       2.858   2.367  -4.789  0.00  0.00    -0.084 Cl
ATOM     27  C   UNL d   1       4.925   1.334  -3.398  0.00  0.00     0.024 A 
ATOM     28  C   UNL d   1       5.467   0.642  -2.321  0.00  0.00     0.004 A 
ATOM     29  C   UNL d   1       4.626   0.124  -1.329  0.00  0.00     0.029 A 
ENDBRANCH  21  23
ENDBRANCH   1  21
TORSDOF 8
