REMARK  7 active torsions:
REMARK  status: ('A' for Active; 'I' for Inactive)
REMARK    1  A    between atoms: C_2  and  C_1 
REMARK    2  A    between atoms: O_13  and  C_2 
REMARK    3  A    between atoms: C_3  and  C_9 
REMARK    4  A    between atoms: C_8  and  C_3 
REMARK    5  A    between atoms: S_4  and  C_5 
REMARK    6  A    between atoms: C_9  and  S_4 
REMARK    7  A    between atoms: O_15  and  N_6 
ROOT
ATOM      1  C   UNL d   1       3.335  -4.594  -0.174  0.00  0.00     0.051 C 
ATOM      2  N   UNL d   1       2.746  -5.750  -0.321  0.00  0.00    -0.272 N 
ATOM      3  HN  UNL d   1       3.263  -6.628  -0.296  1.00  0.00     0.194 HD
ENDROOT
BRANCH   1   4
ATOM      4  C   UNL d   1       2.717  -3.182  -0.160  0.00  0.00     0.139 C 
BRANCH   4   5
ATOM      5  S   UNL d   1       0.917  -3.041   0.098  0.00  0.00    -0.123 SA
BRANCH   5   6
ATOM      6  C   UNL d   1       0.641  -1.286  -0.110  0.00  0.00     0.017 A 
ATOM      7  C   UNL d   1       0.953  -0.311   0.849  0.00  0.00     0.054 A 
ATOM      8  C   UNL d   1       0.598   1.032   0.628  0.00  0.00     0.020 A 
ATOM      9  C   UNL d   1      -0.090   1.406  -0.526  0.00  0.00     0.001 A 
ATOM     10  C   UNL d   1      -0.411   0.444  -1.478  0.00  0.00     0.001 A 
ATOM     11  C   UNL d   1      -0.047  -0.891  -1.272  0.00  0.00     0.019 A 
BRANCH   7  12
ATOM     12  C   UNL d   1       1.645  -0.591   2.132  0.00  0.00     0.177 C 
ATOM     13  O   UNL d   1       2.463   0.179   2.609  0.00  0.00    -0.646 OA
BRANCH  12  14
ATOM     14  O   UNL d   1       1.242  -1.713   2.756  0.00  0.00    -0.773 OA
ATOM     15  H   UNL d   1       0.620  -2.263   2.231  0.00  0.00     0.167 HD
ENDBRANCH  12  14
ENDBRANCH   7  12
ENDBRANCH   5   6
ENDBRANCH   4   5
ENDBRANCH   1   4
BRANCH   1  16
ATOM     16  C   UNL d   1       4.855  -4.674  -0.064  0.00  0.00    -0.011 A 
ATOM     17  C   UNL d   1       5.678  -3.540   0.010  0.00  0.00     0.016 A 
ATOM     18  C   UNL d   1       7.071  -3.680   0.088  0.00  0.00     0.043 A 
ATOM     19  C   UNL d   1       7.645  -4.946   0.087  0.00  0.00     0.116 A 
ATOM     20  C   UNL d   1       6.854  -6.081   0.005  0.00  0.00     0.043 A 
ATOM     21  F   UNL d   1       8.976  -5.071   0.160  0.00  0.00    -0.206 F 
ATOM     22  C   UNL d   1       5.466  -5.944  -0.070  0.00  0.00     0.016 A 
ENDBRANCH   1  16
BRANCH   2  23
ATOM     23  O   UNL d   1       1.376  -5.710  -0.514  0.00  0.00    -0.290 OA
ATOM     24  H   UNL d   1       1.125  -6.651  -0.473  0.00  0.00     0.244 HD
ENDBRANCH   2  23
TORSDOF 7
