REMARK  6 active torsions:
REMARK  status: ('A' for Active; 'I' for Inactive)
REMARK    1  A    between atoms: C_8  and  N_1 
REMARK    2  A    between atoms: C_7  and  N_3 
REMARK    3  A    between atoms: C_19  and  C_8 
REMARK    4  A    between atoms: O_23  and  C_11 
REMARK    5  A    between atoms: O_24  and  C_12 
REMARK    6  A    between atoms: C_18  and  C_19 
ROOT
ATOM      1  N   UNL d   1      -0.441   0.894   0.080  0.00  0.00    -0.297 N 
ATOM      2  C   UNL d   1       0.873   0.470   0.098  0.00  0.00     0.150 C 
ATOM      3  N   UNL d   1       1.872   1.297   0.109  0.00  0.00    -0.336 N 
ATOM      4  HN  UNL d   1       1.672   2.297   0.108  1.00  0.00     0.168 HD
ATOM      5  C   UNL d   1      -1.402  -0.086  -0.098  0.00  0.00     0.235 C 
ATOM      6  S   UNL d   1       0.933  -1.282   0.076  0.00  0.00    -0.084 SA
ATOM      7  C   UNL d   1      -0.833  -1.471  -0.066  0.00  0.00     0.185 C 
ATOM      8  O   UNL d   1      -2.595   0.102  -0.319  0.00  0.00    -0.272 OA
ENDROOT
BRANCH   1   9
ATOM      9  C   UNL d   1      -0.762   2.317  -0.049  0.00  0.00     0.138 C 
BRANCH   9  10
ATOM     10  C   UNL d   1      -2.101   2.807   0.532  0.00  0.00     0.059 C 
BRANCH  10  11
ATOM     11  C   UNL d   1      -2.284   2.556   2.009  0.00  0.00    -0.054 A 
ATOM     12  C   UNL d   1      -1.414   3.132   2.947  0.00  0.00     0.046 A 
ATOM     13  C   UNL d   1      -1.562   2.904   4.325  0.00  0.00     0.102 A 
ATOM     14  C   UNL d   1      -2.634   2.111   4.769  0.00  0.00     0.101 A 
ATOM     15  C   UNL d   1      -3.502   1.535   3.833  0.00  0.00     0.040 A 
ATOM     16  C   UNL d   1      -3.334   1.757   2.467  0.00  0.00     0.010 A 
BRANCH  13  17
ATOM     17  O   UNL d   1      -0.688   3.392   5.261  0.00  0.00    -0.353 OA
ATOM     18  C   UNL d   1       0.419   4.158   4.803  0.00  0.00     0.210 C 
ENDBRANCH  13  17
BRANCH  14  19
ATOM     19  O   UNL d   1      -2.930   1.761   6.062  0.00  0.00    -0.353 OA
ATOM     20  C   UNL d   1      -2.631   2.720   7.068  0.00  0.00     0.210 C 
ENDBRANCH  14  19
ENDBRANCH  10  11
ENDBRANCH   9  10
ENDBRANCH   1   9
BRANCH   3  21
ATOM     21  C   UNL d   1       3.225   0.883   0.124  0.00  0.00     0.040 C 
ATOM     22  C   UNL d   1       4.199   1.523  -0.681  0.00  0.00    -0.035 C 
ATOM     23  C   UNL d   1       5.522   1.030  -0.693  0.00  0.00     0.015 C 
ATOM     24  C   UNL d   1       3.907   2.739  -1.514  0.00  0.00     0.050 C 
ATOM     25  C   UNL d   1       5.909  -0.070   0.080  0.00  0.00    -0.061 C 
ATOM     26  C   UNL d   1       4.964  -0.639   0.933  0.00  0.00     0.009 C 
ATOM     27  C   UNL d   1       7.300  -0.601   0.035  0.00  0.00     0.048 C 
ATOM     28  C   UNL d   1       3.668  -0.129   0.985  0.00  0.00     0.030 C 
ENDBRANCH   3  21
TORSDOF 6
