REMARK  3 active torsions:
REMARK  status: ('A' for Active; 'I' for Inactive)
REMARK    1  A    between atoms: C_4  and  C_1 
REMARK    2  A    between atoms: N_6  and  C_2 
REMARK       I    between atoms: C_3  and  N_5 
REMARK       I    between atoms: N_7  and  C_3 
REMARK    3  A    between atoms: C_18  and  N_7 
ROOT
ATOM      1  C   UNL d   1      -3.163   6.218  -0.320  0.00  0.00     0.323 C 
ATOM      2  N   UNL d   1      -2.579   4.964  -0.168  0.00  0.00    -0.331 N 
ATOM      3  N   UNL d   1      -1.153   2.491  -0.058  0.00  0.00    -0.363 N 
ATOM      4  N   UNL d   1      -4.228   6.488   0.505  0.00  0.00    -0.309 N 
ATOM      5  O   UNL d   1      -2.738   6.996  -1.169  0.00  0.00    -0.247 OA
ATOM      6  C   UNL d   1      -1.364   4.732  -0.971  0.00  0.00     0.147 C 
ATOM      7  C   UNL d   1      -2.748   4.039   0.976  0.00  0.00     0.147 C 
ATOM      8  C   UNL d   1      -2.462   2.561   0.612  0.00  0.00     0.144 C 
ATOM      9  C   UNL d   1      -1.168   3.251  -1.322  0.00  0.00     0.144 C 
ATOM     10  H   UNL d   1      -4.447   5.820   1.219  0.00  0.00     0.170 HD
ENDROOT
BRANCH   3  11
ATOM     11  C   UNL d   1      -0.518   1.261  -0.085  0.00  0.00     0.118 A 
ATOM     12  C   UNL d   1       0.873   1.161  -0.196  0.00  0.00     0.091 A 
ATOM     13  C   UNL d   1       1.458  -0.119  -0.186  0.00  0.00     0.021 A 
ATOM     14  C   UNL d   1       0.673  -1.247  -0.030  0.00  0.00     0.018 A 
ATOM     15  C   UNL d   1      -0.686  -1.060   0.105  0.00  0.00     0.089 A 
ATOM     16  N   UNL d   1      -1.282   0.153   0.080  0.00  0.00    -0.352 N 
ATOM     17  HN  UNL d   1      -2.293   0.234   0.185  1.00  0.00     0.166 HD
BRANCH  12  18
ATOM     18  C   UNL d   1       1.793   2.340  -0.287  0.00  0.00     0.421 C 
ATOM     19  F   UNL d   1       1.279   3.561   0.025  0.00  0.00    -0.166 F 
ATOM     20  F   UNL d   1       2.881   2.207   0.535  0.00  0.00    -0.166 F 
ATOM     21  F   UNL d   1       2.317   2.479  -1.542  0.00  0.00    -0.166 F 
ENDBRANCH  12  18
ENDBRANCH   3  11
BRANCH   4  22
ATOM     22  C   UNL d   1      -5.046   7.641   0.487  0.00  0.00     0.036 A 
ATOM     23  C   UNL d   1      -4.912   8.683  -0.434  0.00  0.00     0.029 A 
ATOM     24  C   UNL d   1      -5.761   9.794  -0.385  0.00  0.00     0.002 A 
ATOM     25  C   UNL d   1      -6.754   9.871   0.582  0.00  0.00     0.000 A 
ATOM     26  C   UNL d   1      -6.907   8.836   1.500  0.00  0.00     0.002 A 
ATOM     27  C   UNL d   1      -6.058   7.725   1.453  0.00  0.00     0.029 A 
ENDBRANCH   4  22
TORSDOF 3
