REMARK  5 active torsions:
REMARK  status: ('A' for Active; 'I' for Inactive)
REMARK    1  A    between atoms: C_10  and  C_3 
REMARK    2  A    between atoms: N_6  and  C_9 
REMARK    3  A    between atoms: C_15  and  C_8 
REMARK    4  A    between atoms: O_21  and  C_16 
REMARK    5  A    between atoms: C_25  and  O_21 
ROOT
ATOM      1  N   UNL d   1       1.565  -0.087   0.067  0.00  0.00    -0.331 N 
ATOM      2  HN  UNL d   1       2.515  -0.459   0.047  1.00  0.00     0.168 HD
ATOM      3  C   UNL d   1       1.182   1.149   0.075  0.00  0.00     0.162 A 
ATOM      4  C   UNL d   1       0.375  -0.773   0.092  0.00  0.00     0.111 A 
ATOM      5  O   UNL d   1      -0.146   1.396   0.109  0.00  0.00    -0.256 OA
ATOM      6  C   UNL d   1      -0.768   0.185   0.124  0.00  0.00     0.316 A 
ATOM      7  C   UNL d   1       0.289  -2.109   0.066  0.00  0.00     0.047 C 
ATOM      8  O   UNL d   1      -1.966  -0.001   0.158  0.00  0.00    -0.257 OA
ENDROOT
BRANCH   7   9
ATOM      9  C   UNL d   1      -0.952  -2.881   0.015  0.00  0.00    -0.034 A 
ATOM     10  C   UNL d   1      -1.498  -3.222  -1.225  0.00  0.00     0.014 A 
ATOM     11  C   UNL d   1      -2.684  -3.960  -1.300  0.00  0.00     0.037 A 
ATOM     12  C   UNL d   1      -3.337  -4.365  -0.136  0.00  0.00     0.068 A 
ATOM     13  C   UNL d   1      -2.786  -4.030   1.104  0.00  0.00     0.037 A 
ATOM     14  C   UNL d   1      -1.600  -3.290   1.183  0.00  0.00     0.014 A 
BRANCH  12  15
ATOM     15  O   UNL d   1      -4.505  -5.081  -0.085  0.00  0.00    -0.352 OA
BRANCH  15  16
ATOM     16  C   UNL d   1      -5.098  -5.414  -1.340  0.00  0.00     0.171 C 
ATOM     17  C   UNL d   1      -6.385  -6.178  -1.089  0.00  0.00     0.034 C 
ENDBRANCH  15  16
ENDBRANCH  12  15
ENDBRANCH   7   9
BRANCH   3  18
ATOM     18  C   UNL d   1       2.033   2.349   0.033  0.00  0.00     0.018 A 
ATOM     19  C   UNL d   1       3.420   2.207  -0.099  0.00  0.00     0.052 A 
ATOM     20  C   UNL d   1       4.223   3.356  -0.151  0.00  0.00     0.103 A 
ATOM     21  C   UNL d   1       3.652   4.636  -0.074  0.00  0.00     0.036 A 
ATOM     22  C   UNL d   1       2.271   4.767   0.061  0.00  0.00     0.003 A 
ATOM     23  C   UNL d   1       1.464   3.629   0.114  0.00  0.00     0.016 A 
BRANCH  20  24
ATOM     24  N   UNL d   1       5.679   3.224  -0.291  0.00  0.00    -0.116 N 
ATOM     25  O   UNL d   1       6.151   2.081  -0.353  0.00  0.00    -0.532 OA
ATOM     26  O   UNL d   1       6.349   4.266  -0.339  0.00  0.00    -0.532 OA
ENDBRANCH  20  24
ENDBRANCH   3  18
TORSDOF 5
