REMARK  1 active torsions:
REMARK  status: ('A' for Active; 'I' for Inactive)
REMARK       I    between atoms: N_2  and  C_1 
REMARK       I    between atoms: N_5  and  C_1 
REMARK    1  A    between atoms: C_6  and  N_2 
ROOT
ATOM      1  C   UNL d   1       1.124  -3.814   3.101  0.00  0.00     0.042 A 
ATOM      2  C   UNL d   1       0.507  -3.000   2.145  0.00  0.00     0.054 A 
ATOM      3  C   UNL d   1       0.991  -1.718   1.878  0.00  0.00     0.038 A 
ATOM      4  C   UNL d   1       2.252  -3.368   3.802  0.00  0.00    -0.040 A 
ATOM      5  C   UNL d   1       2.765  -2.098   3.499  0.00  0.00     0.011 A 
ATOM      6 CL   UNL d   1       0.443  -5.377   3.390  0.00  0.00    -0.084 Cl
ATOM      7  C   UNL d   1       2.143  -1.284   2.544  0.00  0.00     0.030 A 
ATOM      8  C   UNL d   1       2.911  -4.212   4.855  0.00  0.00     0.050 C 
ENDROOT
BRANCH   3   9
ATOM      9  N   UNL d   1       0.381  -0.832   0.958  0.00  0.00    -0.309 N 
ATOM     10  C   UNL d   1      -0.896  -0.947   0.451  0.00  0.00     0.322 C 
ATOM     11  N   UNL d   1      -1.238  -0.033  -0.541  0.00  0.00    -0.343 N 
ATOM     12  O   UNL d   1      -1.710  -1.784   0.842  0.00  0.00    -0.247 OA
ATOM     13  C   UNL d   1      -2.602  -0.069  -1.052  0.00  0.00     0.154 C 
ATOM     14  C   UNL d   1      -0.353   0.905  -1.216  0.00  0.00     0.154 C 
ATOM     15  H   UNL d   1       0.812   0.073   0.869  0.00  0.00     0.170 HD
ENDBRANCH   3   9
TORSDOF 1
