REMARK  8 active torsions:
REMARK  status: ('A' for Active; 'I' for Inactive)
REMARK    1  A    between atoms: C_9  and  C_1 
REMARK    2  A    between atoms: N_3  and  C_4 
REMARK    3  A    between atoms: C_7  and  C_10 
REMARK    4  A    between atoms: O_24  and  C_9 
REMARK    5  A    between atoms: C_13  and  N_23 
REMARK    6  A    between atoms: N_23  and  C_27 
REMARK    7  A    between atoms: C_28  and  O_24 
REMARK    8  A    between atoms: C_27  and  C_28 
ROOT
ATOM      1  C   UNL d   1      -6.561  -2.056  -0.206  0.00  0.00     0.146 C 
ENDROOT
BRANCH   1   2
ATOM      2  N   UNL d   1      -6.779  -1.345   1.065  0.00  0.00    -0.386 N 
ATOM      3  H   UNL d   1      -5.926  -0.935   1.473  0.00  0.00     0.159 HD
BRANCH   2   4
ATOM      4  C   UNL d   1      -7.938  -0.576   1.240  0.00  0.00     0.061 A 
ATOM      5  C   UNL d   1      -8.238   0.112   2.433  0.00  0.00     0.130 A 
ATOM      6  C   UNL d   1      -9.463   0.774   2.652  0.00  0.00     0.054 A 
ATOM      7  C   UNL d   1     -10.450   0.761   1.663  0.00  0.00     0.050 A 
ATOM      8  C   UNL d   1     -10.180   0.090   0.467  0.00  0.00     0.018 A 
ATOM      9  C   UNL d   1      -8.961  -0.574   0.274  0.00  0.00     0.032 A 
BRANCH   5  10
ATOM     10  N   UNL d   1      -7.281   0.177   3.522  0.00  0.00    -0.113 N 
ATOM     11  O   UNL d   1      -7.642  -0.273   4.619  0.00  0.00    -0.532 OA
ATOM     12  O   UNL d   1      -6.217   0.768   3.299  0.00  0.00    -0.532 OA
ENDBRANCH   5  10
BRANCH   7  13
ATOM     13  C   UNL d   1     -11.788   1.427   1.862  0.00  0.00     0.417 C 
ATOM     14  F   UNL d   1     -11.929   2.007   3.085  0.00  0.00    -0.166 F 
ATOM     15  F   UNL d   1     -12.016   2.410   0.950  0.00  0.00    -0.166 F 
ATOM     16  F   UNL d   1     -12.822   0.552   1.738  0.00  0.00    -0.166 F 
ENDBRANCH   7  13
ENDBRANCH   2   4
ENDBRANCH   1   2
BRANCH   1  17
ATOM     17  C   UNL d   1      -5.186  -2.732  -0.260  0.00  0.00     0.198 C 
BRANCH  17  18
ATOM     18  O   UNL d   1      -4.150  -1.758  -0.076  0.00  0.00    -0.316 OA
BRANCH  18  19
ATOM     19  C   UNL d   1      -4.033  -0.838  -1.059  0.00  0.00     0.299 C 
ATOM     20  O   UNL d   1      -4.435  -0.985  -2.205  0.00  0.00    -0.259 OA
BRANCH  19  21
ATOM     21  C   UNL d   1      -3.449   0.416  -0.539  0.00  0.00     0.115 A 
ATOM     22  C   UNL d   1      -3.438   0.751   0.902  0.00  0.00     0.304 A 
ATOM     23  O   UNL d   1      -2.969   2.016   1.248  0.00  0.00    -0.274 OA
ATOM     24  O   UNL d   1      -3.848  -0.017   1.766  0.00  0.00    -0.259 OA
ATOM     25  C   UNL d   1      -2.488   2.917   0.282  0.00  0.00     0.089 A 
ATOM     26  C   UNL d   1      -2.473   2.573  -1.065  0.00  0.00    -0.001 A 
ATOM     27  C   UNL d   1      -2.020   4.149   0.729  0.00  0.00     0.038 A 
ATOM     28  C   UNL d   1      -3.000   1.281  -1.465  0.00  0.00     0.038 A 
ATOM     29  C   UNL d   1      -1.961   3.483  -1.990  0.00  0.00     0.014 A 
ATOM     30  C   UNL d   1      -1.472   4.718  -1.555  0.00  0.00     0.001 A 
ATOM     31  C   UNL d   1      -1.506   5.053  -0.199  0.00  0.00     0.003 A 
ENDBRANCH  19  21
ENDBRANCH  18  19
ENDBRANCH  17  18
ENDBRANCH   1  17
TORSDOF 8
