REMARK  5 active torsions:
REMARK  status: ('A' for Active; 'I' for Inactive)
REMARK    1  A    between atoms: C_7  and  C_1 
REMARK    2  A    between atoms: C_8  and  C_2 
REMARK       I    between atoms: N_9  and  C_7 
REMARK    3  A    between atoms: O_16  and  C_8 
REMARK    4  A    between atoms: C_14  and  N_9 
REMARK    5  A    between atoms: C_15  and  C_14 
ROOT
ATOM      1  C   UNL d   1       0.443   1.467   0.073  0.00  0.00     0.096 C 
ATOM      2  C   UNL d   1       1.527   0.389   0.185  0.00  0.00     0.101 C 
ATOM      3  C   UNL d   1      -1.303  -0.454   0.271  0.00  0.00    -0.081 C 
ATOM      4  C   UNL d   1      -0.360  -1.393   0.061  0.00  0.00    -0.081 C 
ATOM      5  C   UNL d   1      -0.976   1.009   0.439  0.00  0.00     0.049 C 
ATOM      6  C   UNL d   1       1.104  -1.059  -0.086  0.00  0.00     0.050 C 
ATOM      7  C   UNL d   1      -2.777  -0.777   0.339  0.00  0.00     0.043 C 
ATOM      8  C   UNL d   1      -0.660  -2.869  -0.073  0.00  0.00     0.043 C 
ENDROOT
BRANCH   1   9
ATOM      9  C   UNL d   1       0.495   2.143  -1.293  0.00  0.00     0.223 C 
ATOM     10  N   UNL d   1       1.587   2.960  -1.467  0.00  0.00    -0.355 N 
ATOM     11  H   UNL d   1       2.295   3.092  -0.748  0.00  0.00     0.162 HD
ATOM     12  O   UNL d   1      -0.359   1.991  -2.159  0.00  0.00    -0.273 OA
BRANCH  10  13
ATOM     13  C   UNL d   1       1.733   3.780  -2.650  0.00  0.00     0.179 C 
BRANCH  13  14
ATOM     14  C   UNL d   1       2.950   4.680  -2.590  0.00  0.00     0.026 A 
ATOM     15  N   UNL d   1       3.796   4.549  -1.531  0.00  0.00    -0.368 N 
ATOM     16  C   UNL d   1       4.879   5.358  -1.502  0.00  0.00     0.088 A 
ATOM     17  HN  UNL d   1       3.620   3.868  -0.792  1.00  0.00     0.165 HD
ATOM     18  C   UNL d   1       5.163   6.300  -2.472  0.00  0.00     0.017 A 
ATOM     19  C   UNL d   1       4.289   6.428  -3.545  0.00  0.00     0.003 A 
ATOM     20  C   UNL d   1       3.167   5.606  -3.608  0.00  0.00     0.027 A 
ENDBRANCH  13  14
ENDBRANCH  10  13
ENDBRANCH   1   9
BRANCH   2  21
ATOM     21  C   UNL d   1       2.232   0.551   1.514  0.00  0.00     0.144 C 
ATOM     22  O   UNL d   1       3.272   1.177   1.644  0.00  0.00    -0.650 OA
BRANCH  21  23
ATOM     23  O   UNL d   1       1.579   0.026   2.572  0.00  0.00    -0.776 OA
ATOM     24  H   UNL d   1       0.740  -0.420   2.352  0.00  0.00     0.167 HD
ENDBRANCH  21  23
ENDBRANCH   2  21
TORSDOF 5
