REMARK  0 active torsions:
REMARK  status: ('A' for Active; 'I' for Inactive)
ROOT
ATOM      1  C   UNL d   1      -0.107   1.140  -0.005  0.00  0.00    -0.013 A 
ATOM      2  C   UNL d   1      -0.109  -1.138  -0.004  0.00  0.00    -0.013 A 
ATOM      3  C   UNL d   1      -0.900   0.002   0.003  0.00  0.00    -0.004 A 
ATOM      4  C   UNL d   1       1.286   0.711  -0.010  0.00  0.00    -0.014 A 
ATOM      5  C   UNL d   1       1.285  -0.713  -0.004  0.00  0.00    -0.014 A 
ATOM      6  C   UNL d   1      -2.292   0.002   0.023  0.00  0.00    -0.024 A 
ATOM      7  C   UNL d   1      -0.712   2.383   0.010  0.00  0.00     0.013 A 
ATOM      8  C   UNL d   1      -0.717  -2.381   0.000  0.00  0.00     0.013 A 
ATOM      9  C   UNL d   1       2.470   1.425  -0.002  0.00  0.00     0.013 A 
ATOM     10  C   UNL d   1       2.467  -1.428   0.021  0.00  0.00     0.013 A 
ATOM     11  C   UNL d   1      -2.118   2.443   0.032  0.00  0.00     0.002 A 
ATOM     12  C   UNL d   1      -2.122  -2.438   0.019  0.00  0.00     0.002 A 
ATOM     13  C   UNL d   1      -2.905   1.271   0.039  0.00  0.00     0.012 A 
ATOM     14  C   UNL d   1      -2.908  -1.264   0.032  0.00  0.00     0.012 A 
ATOM     15  C   UNL d   1       3.667   0.702   0.024  0.00  0.00     0.001 A 
ATOM     16  C   UNL d   1       3.666  -0.706   0.039  0.00  0.00     0.001 A 
ENDROOT
TORSDOF 0
