REMARK  2 active torsions:
REMARK  status: ('A' for Active; 'I' for Inactive)
REMARK    1  A    between atoms: C_6  and  N_1 
REMARK    2  A    between atoms: C_18  and  C_13 
ROOT
ATOM      1  N   UNL d   1      -2.196   0.064  -0.317  0.00  0.00    -0.252 N 
ATOM      2  C   UNL d   1      -1.488  -0.894   0.381  0.00  0.00     0.236 C 
ATOM      3  C   UNL d   1      -1.388   1.127  -0.654  0.00  0.00     0.236 C 
ATOM      4  C   UNL d   1      -0.190  -0.298   0.863  0.00  0.00     0.096 C 
ATOM      5  C   UNL d   1      -0.173   1.088   0.240  0.00  0.00     0.095 C 
ATOM      6  C   UNL d   1       1.101   1.576  -0.438  0.00  0.00     0.042 C 
ATOM      7  C   UNL d   1       1.000  -1.233   0.636  0.00  0.00     0.048 C 
ATOM      8  O   UNL d   1      -1.817  -2.051   0.608  0.00  0.00    -0.272 OA
ATOM      9  O   UNL d   1      -1.616   2.042  -1.435  0.00  0.00    -0.272 OA
ATOM     10  C   UNL d   1       2.120   0.527  -0.736  0.00  0.00    -0.023 C 
ATOM     11  C   UNL d   1       2.094  -0.723  -0.255  0.00  0.00    -0.087 C 
ATOM     12  C   UNL d   1       3.224  -1.672  -0.544  0.00  0.00     0.043 C 
ENDROOT
BRANCH   1  13
ATOM     13  C   UNL d   1      -3.592  -0.006  -0.565  0.00  0.00     0.045 A 
ATOM     14  C   UNL d   1      -4.421  -0.727   0.306  0.00  0.00     0.031 A 
ATOM     15  C   UNL d   1      -5.815  -0.668   0.205  0.00  0.00     0.010 A 
ATOM     16  C   UNL d   1      -6.444   0.095  -0.787  0.00  0.00    -0.054 A 
ATOM     17  C   UNL d   1      -5.614   0.754  -1.702  0.00  0.00     0.010 A 
ATOM     18  C   UNL d   1      -4.213   0.725  -1.580  0.00  0.00     0.031 A 
BRANCH  16  19
ATOM     19  C   UNL d   1      -7.972   0.112  -0.852  0.00  0.00     0.018 C 
ATOM     20  C   UNL d   1      -8.601   0.893  -2.023  0.00  0.00     0.009 C 
ATOM     21  C   UNL d   1      -8.559   2.412  -1.841  0.00  0.00     0.001 C 
ATOM     22  C   UNL d   1      -9.139   2.859  -0.505  0.00  0.00     0.000 C 
ATOM     23  C   UNL d   1      -8.565   2.082   0.676  0.00  0.00     0.001 C 
ATOM     24  C   UNL d   1      -8.643   0.573   0.463  0.00  0.00     0.009 C 
ENDBRANCH  16  19
ENDBRANCH   1  13
TORSDOF 2
