REMARK  4 active torsions:
REMARK  status: ('A' for Active; 'I' for Inactive)
REMARK       I    between atoms: N_2  and  C_1 
REMARK    1  A    between atoms: C_5  and  C_1 
REMARK    2  A    between atoms: C_6  and  N_2 
REMARK    3  A    between atoms: C_7  and  N_3 
REMARK    4  A    between atoms: C_12  and  C_7 
ROOT
ATOM      1  N   UNL d   1       1.290  -5.288  -0.213  0.00  0.00     0.092 N 
ATOM      2  C   UNL d   1       1.271  -2.399   0.056  0.00  0.00     0.088 C 
ATOM      3  C   UNL d   1       1.250  -3.065  -1.325  0.00  0.00     0.055 C 
ATOM      4  C   UNL d   1       1.058  -3.306   1.277  0.00  0.00     0.055 C 
ATOM      5  C   UNL d   1       0.768  -4.510  -1.352  0.00  0.00     0.275 C 
ATOM      6  C   UNL d   1       0.648  -4.753   0.997  0.00  0.00     0.275 C 
ENDROOT
BRANCH   2   7
ATOM      7  N   UNL d   1       0.494  -1.154   0.112  0.00  0.00    -0.352 N 
ATOM      8  C   UNL d   1      -0.878  -1.081  -0.001  0.00  0.00     0.252 C 
ATOM      9  O   UNL d   1      -1.591  -2.062  -0.172  0.00  0.00    -0.268 OA
ATOM     10  H   UNL d   1       1.024  -0.296   0.078  0.00  0.00     0.163 HD
BRANCH   8  11
ATOM     11  C   UNL d   1      -1.475   0.296   0.059  0.00  0.00     0.032 A 
ATOM     12  C   UNL d   1      -2.716   0.516  -0.556  0.00  0.00     0.017 A 
ATOM     13  C   UNL d   1      -3.312   1.783  -0.521  0.00  0.00     0.001 A 
ATOM     14  C   UNL d   1      -2.680   2.834   0.133  0.00  0.00     0.000 A 
ATOM     15  C   UNL d   1      -1.452   2.625   0.762  0.00  0.00     0.001 A 
ATOM     16  C   UNL d   1      -0.852   1.360   0.728  0.00  0.00     0.017 A 
ENDBRANCH   8  11
ENDBRANCH   2   7
BRANCH   1  17
ATOM     17  C   UNL d   1       0.944  -6.713  -0.426  0.00  0.00     0.311 C 
BRANCH  17  18
ATOM     18  C   UNL d   1       1.420  -7.677   0.645  0.00  0.00    -0.030 A 
ATOM     19  C   UNL d   1       0.488  -8.399   1.405  0.00  0.00     0.009 A 
ATOM     20  C   UNL d   1       0.907  -9.329   2.361  0.00  0.00     0.007 A 
ATOM     21  C   UNL d   1       2.269  -9.564   2.573  0.00  0.00    -0.062 A 
ATOM     22  C   UNL d   1       3.204  -8.842   1.823  0.00  0.00     0.007 A 
ATOM     23  C   UNL d   1       2.702 -10.550   3.618  0.00  0.00     0.048 C 
ATOM     24  C   UNL d   1       2.784  -7.909   0.867  0.00  0.00     0.009 A 
ENDBRANCH  17  18
ENDBRANCH   1  17
TORSDOF 4
