REMARK  8 active torsions:
REMARK  status: ('A' for Active; 'I' for Inactive)
REMARK    1  A    between atoms: C_10  and  N_1 
REMARK    2  A    between atoms: C_6  and  C_2 
REMARK    3  A    between atoms: C_3  and  C_13 
REMARK       I    between atoms: N_4  and  C_3 
REMARK    4  A    between atoms: C_5  and  N_4 
REMARK       I    between atoms: N_23  and  C_6 
REMARK    5  A    between atoms: N_9  and  C_25 
REMARK    6  A    between atoms: C_28  and  N_23 
REMARK    7  A    between atoms: C_25  and  C_26 
REMARK    8  A    between atoms: C_26  and  C_28 
ROOT
ATOM      1  C   UNL d   1      -2.456  -4.200  -1.021  0.00  0.00     0.058 A 
ATOM      2  C   UNL d   1      -3.358  -4.508   0.020  0.00  0.00     0.050 A 
ATOM      3  C   UNL d   1      -2.939  -3.708  -2.245  0.00  0.00     0.019 A 
ATOM      4  C   UNL d   1      -4.731  -4.365  -0.209  0.00  0.00     0.030 A 
ATOM      5  C   UNL d   1      -4.308  -3.547  -2.448  0.00  0.00     0.001 A 
ATOM      6  C   UNL d   1      -5.203  -3.884  -1.435  0.00  0.00     0.002 A 
ENDROOT
BRANCH   1   7
ATOM      7  C   UNL d   1      -0.996  -4.457  -0.847  0.00  0.00     0.253 C 
ATOM      8  O   UNL d   1      -0.467  -4.313   0.249  0.00  0.00    -0.268 OA
ATOM      9  N   UNL d   1      -0.324  -4.913  -1.967  0.00  0.00    -0.357 N 
ATOM     10  H   UNL d   1      -0.855  -5.145  -2.796  0.00  0.00     0.162 HD
BRANCH   9  11
ATOM     11  C   UNL d   1       1.093  -5.220  -1.952  0.00  0.00     0.124 C 
BRANCH  11  12
ATOM     12  C   UNL d   1       1.399  -6.654  -1.526  0.00  0.00     0.040 C 
BRANCH  12  13
ATOM     13  C   UNL d   1       0.847  -7.685  -2.509  0.00  0.00     0.130 C 
BRANCH  13  14
ATOM     14  N   UNL d   1       1.159  -9.044  -2.114  0.00  0.00    -0.352 N 
ATOM     15  C   UNL d   1       2.240  -9.770  -2.525  0.00  0.00     0.182 A 
ATOM     16  N   UNL d   1       2.224 -10.981  -2.010  0.00  0.00    -0.361 N 
ATOM     17  C   UNL d   1       1.089 -11.036  -1.245  0.00  0.00     0.106 A 
ATOM     18  HN  UNL d   1       2.912 -11.721  -2.150  1.00  0.00     0.166 HD
ATOM     19  C   UNL d   1       0.407  -9.840  -1.299  0.00  0.00     0.108 A 
ENDBRANCH  13  14
ENDBRANCH  12  13
ENDBRANCH  11  12
ENDBRANCH   9  11
ENDBRANCH   1   7
BRANCH   2  20
ATOM     20  N   UNL d   1      -2.864  -4.907   1.286  0.00  0.00    -0.322 N 
ATOM     21  C   UNL d   1      -3.497  -5.788   2.146  0.00  0.00     0.256 C 
ATOM     22  O   UNL d   1      -4.500  -6.431   1.880  0.00  0.00    -0.267 OA
ATOM     23  H   UNL d   1      -1.874  -4.719   1.440  0.00  0.00     0.169 HD
BRANCH  21  24
ATOM     24  C   UNL d   1      -2.814  -6.018   3.456  0.00  0.00     0.032 A 
ATOM     25  C   UNL d   1      -1.992  -5.051   4.053  0.00  0.00     0.019 A 
ATOM     26  C   UNL d   1      -1.333  -5.332   5.257  0.00  0.00     0.037 A 
ATOM     27  C   UNL d   1      -1.503  -6.582   5.868  0.00  0.00     0.102 A 
ATOM     28  C   UNL d   1      -2.365  -7.533   5.308  0.00  0.00     0.037 A 
ATOM     29  C   UNL d   1      -3.020  -7.245   4.106  0.00  0.00     0.019 A 
BRANCH  27  30
ATOM     30  N   UNL d   1      -0.750  -6.909   7.087  0.00  0.00    -0.116 N 
ATOM     31  O   UNL d   1      -0.938  -8.021   7.600  0.00  0.00    -0.532 OA
ATOM     32  O   UNL d   1       0.039  -6.058   7.521  0.00  0.00    -0.532 OA
ENDBRANCH  27  30
ENDBRANCH  21  24
ENDBRANCH   2  20
TORSDOF 8
