REMARK  1 active torsions:
REMARK  status: ('A' for Active; 'I' for Inactive)
REMARK    1  A    between atoms: N_7  and  N_4 
REMARK       I    between atoms: C_6  and  N_7 
REMARK       I    between atoms: N_12  and  C_6 
ROOT
ATOM      1  C   UNL d   1       0.728   1.478   0.050  0.00  0.00    -0.035 C 
ATOM      2  C   UNL d   1      -0.274   0.607  -0.181  0.00  0.00    -0.068 C 
ATOM      3  C   UNL d   1       2.143   0.945   0.126  0.00  0.00     0.032 C 
ATOM      4  N   UNL d   1       3.075   1.744   0.572  0.00  0.00    -0.300 N 
ATOM      5  HN  UNL d   1       2.841   2.697   0.850  1.00  0.00     0.186 HD
ATOM      6  C   UNL d   1      -0.090  -0.869  -0.404  0.00  0.00     0.015 C 
ATOM      7  C   UNL d   1       2.365  -0.495  -0.332  0.00  0.00     0.060 C 
ATOM      8  C   UNL d   1       1.227  -1.386   0.147  0.00  0.00     0.015 C 
ATOM      9  C   UNL d   1      -1.749   0.911  -0.099  0.00  0.00     0.035 C 
ATOM     10  C   UNL d   1       0.548   2.950   0.272  0.00  0.00     0.050 C 
ATOM     11  C   UNL d   1      -2.424  -0.463  -0.078  0.00  0.00     0.005 C 
ATOM     12  C   UNL d   1      -1.323  -1.458   0.267  0.00  0.00     0.009 C 
ENDROOT
BRANCH   4  13
ATOM     13  N   UNL d   1       4.363   1.302   0.668  0.00  0.00    -0.252 N 
ATOM     14  C   UNL d   1       5.355   2.068   1.224  0.00  0.00     0.332 C 
ATOM     15  O   UNL d   1       6.498   1.658   1.394  0.00  0.00    -0.246 OA
ATOM     16  N   UNL d   1       4.972   3.321   1.577  0.00  0.00    -0.351 N 
ATOM     17  H   UNL d   1       3.972   3.456   1.644  0.00  0.00     0.160 HD
ATOM     18  H   UNL d   1       5.601   3.865   2.143  0.00  0.00     0.160 HD
ATOM     19  H   UNL d   1       4.636   0.366   0.404  0.00  0.00     0.191 HD
ENDBRANCH   4  13
TORSDOF 1
