REMARK  1 active torsions:
REMARK  status: ('A' for Active; 'I' for Inactive)
REMARK    1  A    between atoms: N_3  and  C_2 
ROOT
ATOM      1  C   UNL d   1       1.746   1.225  -0.338  0.00  0.00     0.109 A 
ATOM      2  C   UNL d   1       0.456   1.650   0.057  0.00  0.00     0.054 A 
ATOM      3  C   UNL d   1       2.800   2.139  -0.671  0.00  0.00     0.105 C 
ATOM      4  N   UNL d   1       3.654   2.873  -0.952  0.00  0.00    -0.191 NA
ATOM      5  C   UNL d   1       2.070  -0.139  -0.358  0.00  0.00     0.139 A 
ATOM      6  F   UNL d   1       3.299  -0.539  -0.726  0.00  0.00    -0.204 F 
ATOM      7  C   UNL d   1      -0.452   0.634   0.430  0.00  0.00     0.031 A 
ATOM      8  C   UNL d   1      -0.117  -0.724   0.409  0.00  0.00     0.005 A 
ATOM      9  C   UNL d   1       1.151  -1.113   0.010  0.00  0.00     0.044 A 
ENDROOT
BRANCH   2  10
ATOM     10  N   UNL d   1       0.066   2.978   0.094  0.00  0.00    -0.380 N 
ATOM     11  C   UNL d   1      -0.967   3.520   0.974  0.00  0.00     0.123 C 
ATOM     12  C   UNL d   1      -1.731   4.490   0.086  0.00  0.00     0.021 C 
ATOM     13  C   UNL d   1      -0.654   5.050  -0.824  0.00  0.00     0.021 C 
ATOM     14  C   UNL d   1       0.321   3.890  -1.028  0.00  0.00     0.123 C 
ENDBRANCH   2  10
TORSDOF 1
