REMARK  7 active torsions:
REMARK  status: ('A' for Active; 'I' for Inactive)
REMARK    1  A    between atoms: N_5  and  C_1 
REMARK    2  A    between atoms: C_10  and  C_4 
REMARK       I    between atoms: C_6  and  N_5 
REMARK    3  A    between atoms: C_9  and  C_6 
REMARK    4  A    between atoms: C_13  and  C_10 
REMARK    5  A    between atoms: C_12  and  C_11 
REMARK    6  A    between atoms: O_19  and  C_12 
REMARK    7  A    between atoms: O_20  and  C_13 
ROOT
ATOM      1  C   UNL d   1      -1.369   0.497  -0.241  0.00  0.00     0.151 A 
ATOM      2  N   UNL d   1      -1.186  -0.802  -0.185  0.00  0.00    -0.339 N 
ATOM      3  HN  UNL d   1      -1.933  -1.496  -0.165  1.00  0.00     0.168 HD
ATOM      4  C   UNL d   1       0.181  -1.097  -0.155  0.00  0.00     0.033 A 
ATOM      5  S   UNL d   1       0.046   1.439  -0.152  0.00  0.00    -0.057 SA
ATOM      6  C   UNL d   1       1.004   0.021  -0.105  0.00  0.00     0.005 A 
ATOM      7  C   UNL d   1       2.487   0.131  -0.039  0.00  0.00     0.058 C 
ENDROOT
BRANCH   1   8
ATOM      8  N   UNL d   1      -2.619   1.072  -0.260  0.00  0.00    -0.307 N 
ATOM      9  C   UNL d   1      -2.890   2.369  -0.645  0.00  0.00     0.228 C 
ATOM     10  O   UNL d   1      -2.095   3.108  -1.234  0.00  0.00    -0.273 OA
ATOM     11  H   UNL d   1      -3.374   0.431  -0.070  0.00  0.00     0.171 HD
BRANCH   9  12
ATOM     12  C   UNL d   1      -4.332   2.855  -0.321  0.00  0.00     0.092 C 
ATOM     13  C   UNL d   1      -5.173   3.380  -1.529  0.00  0.00     0.096 C 
ATOM     14  C   UNL d   1      -5.540   4.623  -0.692  0.00  0.00     0.017 C 
ATOM     15  C   UNL d   1      -4.431   4.273   0.301  0.00  0.00     0.016 C 
BRANCH  13  16
ATOM     16  C   UNL d   1      -6.355   2.490  -1.992  0.00  0.00     0.144 C 
ATOM     17  O   UNL d   1      -6.899   1.621  -1.318  0.00  0.00    -0.650 OA
BRANCH  16  18
ATOM     18  O   UNL d   1      -6.775   2.744  -3.259  0.00  0.00    -0.776 OA
ATOM     19  H   UNL d   1      -6.279   3.461  -3.698  0.00  0.00     0.167 HD
ENDBRANCH  16  18
ENDBRANCH  13  16
ENDBRANCH   9  12
ENDBRANCH   1   8
BRANCH   4  20
ATOM     20  C   UNL d   1       0.591  -2.535  -0.274  0.00  0.00     0.169 C 
BRANCH  20  21
ATOM     21  C   UNL d   1       1.369  -3.077   0.902  0.00  0.00     0.264 C 
ATOM     22  O   UNL d   1       1.766  -2.449   1.873  0.00  0.00    -0.265 OA
BRANCH  21  23
ATOM     23  O   UNL d   1       1.607  -4.410   0.698  0.00  0.00    -0.326 OA
ATOM     24  C   UNL d   1       2.354  -5.044   1.738  0.00  0.00     0.213 C 
ENDBRANCH  21  23
ENDBRANCH  20  21
ENDBRANCH   4  20
TORSDOF 7
