REMARK  2 active torsions:
REMARK  status: ('A' for Active; 'I' for Inactive)
REMARK    1  A    between atoms: C_8  and  C_1 
REMARK    2  A    between atoms: C_9  and  C_7 
ROOT
ATOM      1  C   UNL d   1      -0.228  -1.059   0.025  0.00  0.00     0.174 A 
ATOM      2  O   UNL d   1      -1.098  -0.002  -0.028  0.00  0.00    -0.273 OA
ATOM      3  N   UNL d   1       1.033  -0.676   0.041  0.00  0.00    -0.277 N 
ATOM      4  HN  UNL d   1       1.854  -1.280   0.080  1.00  0.00     0.189 HD
ATOM      5  N   UNL d   1       1.023   0.704  -0.006  0.00  0.00    -0.277 N 
ATOM      6  HN  UNL d   1       1.836   1.320  -0.011  1.00  0.00     0.189 HD
ATOM      7  C   UNL d   1      -0.243   1.070  -0.044  0.00  0.00     0.174 A 
ENDROOT
BRANCH   1   8
ATOM      8  C   UNL d   1      -0.804  -2.396   0.073  0.00  0.00     0.020 A 
ATOM      9  C   UNL d   1      -2.191  -2.603   0.017  0.00  0.00     0.040 A 
ATOM     10  C   UNL d   1      -2.716  -3.894   0.090  0.00  0.00     0.036 A 
ATOM     11 CL   UNL d   1      -4.421  -4.122   0.030  0.00  0.00    -0.084 Cl
ATOM     12  C   UNL d   1      -1.877  -4.997   0.217  0.00  0.00     0.047 A 
ATOM     13  C   UNL d   1      -0.501  -4.798   0.264  0.00  0.00     0.036 A 
ATOM     14  C   UNL d   1       0.037  -3.512   0.191  0.00  0.00     0.040 A 
ATOM     15 CL   UNL d   1       0.548  -6.153   0.422  0.00  0.00    -0.084 Cl
ENDBRANCH   1   8
BRANCH   7  16
ATOM     16  C   UNL d   1      -0.839   2.397  -0.113  0.00  0.00     0.017 A 
ATOM     17  C   UNL d   1      -2.231   2.584  -0.121  0.00  0.00     0.017 A 
ATOM     18  C   UNL d   1      -2.781   3.867  -0.210  0.00  0.00     0.025 A 
ATOM     19  C   UNL d   1      -1.944   4.976  -0.291  0.00  0.00     0.034 A 
ATOM     20  C   UNL d   1      -0.560   4.814  -0.274  0.00  0.00     0.025 A 
ATOM     21 CL   UNL d   1      -2.620   6.551  -0.416  0.00  0.00    -0.084 Cl
ATOM     22  C   UNL d   1      -0.012   3.530  -0.184  0.00  0.00     0.017 A 
ENDBRANCH   7  16
TORSDOF 2
