REMARK  7 active torsions:
REMARK  status: ('A' for Active; 'I' for Inactive)
REMARK    1  A    between atoms: C_12  and  N_7 
REMARK    2  A    between atoms: N_11  and  C_10 
REMARK    3  A    between atoms: C_17  and  N_11 
REMARK    4  A    between atoms: C_19  and  C_12 
REMARK    5  A    between atoms: C_18  and  C_17 
REMARK    6  A    between atoms: O_20  and  C_19 
REMARK    7  A    between atoms: C_23  and  C_19 
ROOT
ATOM      1  C   UNL d   1      -0.263  -0.792  -0.032  0.00  0.00     0.160 A 
ATOM      2  C   UNL d   1      -0.528   0.542  -0.013  0.00  0.00     0.164 A 
ATOM      3  N   UNL d   1      -1.397  -1.534  -0.054  0.00  0.00    -0.174 N 
ATOM      4  HN  UNL d   1      -1.467  -2.551  -0.079  1.00  0.00     0.186 HD
ATOM      5  N   UNL d   1       1.019  -1.291  -0.017  0.00  0.00    -0.287 N 
ATOM      6  N   UNL d   1       1.799   0.967   0.009  0.00  0.00    -0.269 N 
ATOM      7  N   UNL d   1      -1.907   0.632  -0.015  0.00  0.00    -0.172 N 
ATOM      8  C   UNL d   1       2.100  -0.413   0.007  0.00  0.00     0.332 A 
ATOM      9  C   UNL d   1       0.506   1.521   0.024  0.00  0.00     0.282 A 
ATOM     10  C   UNL d   1      -2.389  -0.670  -0.039  0.00  0.00     0.683 A 
ATOM     11  O   UNL d   1       3.265  -0.824   0.022  0.00  0.00    -0.246 OA
ATOM     12  O   UNL d   1       0.287   2.729   0.062  0.00  0.00    -0.265 OA
ATOM     13  C   UNL d   1       1.287  -2.713  -0.018  0.00  0.00     0.163 C 
ATOM     14  C   UNL d   1       2.909   1.904   0.015  0.00  0.00     0.164 C 
ENDROOT
BRANCH  10  15
ATOM     15  N   UNL d   1      -3.707  -0.995  -0.016  0.00  0.00    -0.222 N 
ATOM     16  H   UNL d   1      -4.410  -0.312   0.231  0.00  0.00     0.178 HD
BRANCH  15  17
ATOM     17  C   UNL d   1      -4.002  -2.338   0.486  0.00  0.00     0.176 C 
BRANCH  17  18
ATOM     18  C   UNL d   1      -5.483  -2.642   0.482  0.00  0.00    -0.040 A 
ATOM     19  C   UNL d   1      -6.188  -2.818  -0.719  0.00  0.00     0.009 A 
ATOM     20  C   UNL d   1      -7.542  -3.171  -0.702  0.00  0.00     0.001 A 
ATOM     21  C   UNL d   1      -8.204  -3.355   0.511  0.00  0.00     0.000 A 
ATOM     22  C   UNL d   1      -7.514  -3.190   1.709  0.00  0.00     0.001 A 
ATOM     23  C   UNL d   1      -6.163  -2.837   1.694  0.00  0.00     0.009 A 
ENDBRANCH  17  18
ENDBRANCH  15  17
ENDBRANCH  10  15
BRANCH   7  24
ATOM     24  C   UNL d   1      -2.685   1.863  -0.014  0.00  0.00     0.179 C 
BRANCH  24  25
ATOM     25  C   UNL d   1      -3.023   2.369   1.400  0.00  0.00     0.136 C 
BRANCH  25  26
ATOM     26  O   UNL d   1      -1.833   2.634   2.146  0.00  0.00    -0.394 OA
ATOM     27  H   UNL d   1      -1.301   3.292   1.657  0.00  0.00     0.210 HD
ENDBRANCH  25  26
BRANCH  25  28
ATOM     28  C   UNL d   1      -3.866   3.656   1.367  0.00  0.00     0.029 C 
ATOM     29  C   UNL d   1      -4.222   4.148   2.769  0.00  0.00     0.007 C 
ENDBRANCH  25  28
ENDBRANCH  24  25
ENDBRANCH   7  24
TORSDOF 7
