REMARK  2 active torsions:
REMARK  status: ('A' for Active; 'I' for Inactive)
REMARK    1  A    between atoms: C_2  and  S_1 
REMARK    2  A    between atoms: N_6  and  S_1 
ROOT
ATOM      1  S   UNL d   1       1.102   0.025  -0.035  0.00  0.00     0.248 S 
ATOM      2  O   UNL d   1       0.457  -1.098   0.607  0.00  0.00    -0.206 OA
ATOM      3  O   UNL d   1       2.545   0.142  -0.079  0.00  0.00    -0.206 OA
ENDROOT
BRANCH   1   4
ATOM      4  C   UNL d   1       0.556   1.365   0.868  0.00  0.00     0.130 A 
ATOM      5  C   UNL d   1      -0.753   1.708   1.116  0.00  0.00     0.097 A 
ATOM      6  O   UNL d   1      -0.777   2.813   1.907  0.00  0.00    -0.241 OA
ATOM      7  C   UNL d   1      -2.071   1.140   0.779  0.00  0.00     0.081 C 
ATOM      8  N   UNL d   1       0.514   3.190   2.216  0.00  0.00    -0.264 N 
ATOM      9  C   UNL d   1       1.315   2.292   1.623  0.00  0.00     0.054 A 
ATOM     10  HN  UNL d   1       0.801   3.989   2.782  1.00  0.00     0.194 HD
ATOM     11  C   UNL d   1       2.777   2.386   1.847  0.00  0.00     0.072 C 
ENDBRANCH   1   4
BRANCH   1  12
ATOM     12  N   UNL d   1       0.532   0.114  -1.664  0.00  0.00    -0.206 NA
ATOM     13  C   UNL d   1       1.152   1.231  -2.443  0.00  0.00     0.107 C 
ATOM     14  C   UNL d   1       0.612   1.274  -3.875  0.00  0.00     0.015 C 
ATOM     15  C   UNL d   1       0.789  -0.064  -4.582  0.00  0.00     0.002 C 
ATOM     16  C   UNL d   1       0.134  -1.167  -3.764  0.00  0.00     0.015 C 
ATOM     17  C   UNL d   1       0.704  -1.207  -2.351  0.00  0.00     0.107 C 
ENDBRANCH   1  12
TORSDOF 2
