REMARK  6 active torsions:
REMARK  status: ('A' for Active; 'I' for Inactive)
REMARK    1  A    between atoms: S_8  and  C_2 
REMARK    2  A    between atoms: N_9  and  C_3 
REMARK    3  A    between atoms: C_10  and  S_8 
REMARK    4  A    between atoms: C_11  and  C_10 
REMARK    5  A    between atoms: C_13  and  C_11 
REMARK    6  A    between atoms: C_12  and  C_13 
ROOT
ATOM      1  S   UNL d   1       0.225  -1.166   0.024  0.00  0.00    -0.027 SA
ATOM      2  C   UNL d   1       1.608  -0.157  -0.026  0.00  0.00     0.130 A 
ATOM      3  C   UNL d   1      -0.732   0.258   0.066  0.00  0.00     0.159 A 
ATOM      4  N   UNL d   1       1.339   1.132  -0.036  0.00  0.00    -0.286 N 
ATOM      5  HN  UNL d   1       2.046   1.866  -0.076  1.00  0.00     0.188 HD
ATOM      6  N   UNL d   1      -0.030   1.367   0.015  0.00  0.00    -0.279 N 
ATOM      7  HN  UNL d   1      -0.445   2.300   0.014  1.00  0.00     0.189 HD
ENDROOT
BRANCH   2   8
ATOM      8  S   UNL d   1       3.227  -0.821  -0.064  0.00  0.00    -0.103 SA
BRANCH   8   9
ATOM      9  C   UNL d   1       4.283   0.660  -0.074  0.00  0.00     0.081 C 
BRANCH   9  10
ATOM     10  C   UNL d   1       5.748   0.208  -0.105  0.00  0.00     0.010 C 
BRANCH  10  11
ATOM     11  C   UNL d   1       6.720   1.392  -0.121  0.00  0.00     0.000 C 
BRANCH  11  12
ATOM     12  C   UNL d   1       8.177   0.916  -0.151  0.00  0.00    -0.005 C 
ATOM     13  C   UNL d   1       9.148   2.086  -0.168  0.00  0.00     0.005 C 
ENDBRANCH  11  12
ENDBRANCH  10  11
ENDBRANCH   9  10
ENDBRANCH   8   9
ENDBRANCH   2   8
BRANCH   3  14
ATOM     14  N   UNL d   1      -2.072   0.195   0.144  0.00  0.00    -0.379 N 
ATOM     15  H   UNL d   1      -2.547  -0.674  -0.068  0.00  0.00     0.158 HD
ATOM     16  H   UNL d   1      -2.600   1.040  -0.047  0.00  0.00     0.158 HD
ENDBRANCH   3  14
TORSDOF 6
