REMARK  9 active torsions:
REMARK  status: ('A' for Active; 'I' for Inactive)
REMARK    1  A    between atoms: C_18  and  C_4 
REMARK    2  A    between atoms: N_9  and  C_11 
REMARK       I    between atoms: C_12  and  N_9 
REMARK    3  A    between atoms: C_24  and  C_12 
REMARK    4  A    between atoms: S_13  and  C_18 
REMARK    5  A    between atoms: C_15  and  S_13 
REMARK    6  A    between atoms: C_14  and  C_25 
REMARK    7  A    between atoms: O_23  and  C_14 
REMARK    8  A    between atoms: O_22  and  C_24 
REMARK    9  A    between atoms: C_25  and  O_22 
ROOT
ATOM      1  C   UNL d   1       3.977   4.768  -0.261  0.00  0.00     0.051 C 
ATOM      2  C   UNL d   1       2.596   4.484  -0.283  0.00  0.00     0.027 C 
ATOM      3  C   UNL d   1       4.410   6.094  -0.159  0.00  0.00     0.031 C 
ATOM      4  C   UNL d   1       1.688   5.521  -0.022  0.00  0.00     0.021 C 
ATOM      5  C   UNL d   1       3.490   7.122   0.047  0.00  0.00     0.002 C 
ATOM      6  C   UNL d   1       2.134   6.830   0.149  0.00  0.00     0.002 C 
ENDROOT
BRANCH   2   7
ATOM      7  S   UNL d   1       1.949   2.903  -0.844  0.00  0.00    -0.120 SA
BRANCH   7   8
ATOM      8  C   UNL d   1       0.908   3.439  -2.259  0.00  0.00     0.158 C 
BRANCH   8   9
ATOM      9  C   UNL d   1       1.623   4.281  -3.257  0.00  0.00     0.113 A 
ATOM     10  N   UNL d   1       2.709   3.844  -3.974  0.00  0.00    -0.322 N 
ATOM     11  C   UNL d   1       3.032   4.899  -4.697  0.00  0.00     0.189 A 
ATOM     12  HN  UNL d   1       3.157   2.928  -3.953  1.00  0.00     0.169 HD
ATOM     13  O   UNL d   1       2.171   5.949  -4.488  0.00  0.00    -0.217 OA
ATOM     14  C   UNL d   1       4.160   4.948  -5.584  0.00  0.00     0.058 A 
ATOM     15  N   UNL d   1       1.233   5.531  -3.545  0.00  0.00    -0.246 N 
ATOM     16  HN  UNL d   1       0.441   6.050  -3.165  1.00  0.00     0.196 HD
ATOM     17  S   UNL d   1       4.568   6.374  -6.444  0.00  0.00    -0.098 SA
ATOM     18  C   UNL d   1       5.049   3.926  -5.859  0.00  0.00     0.024 A 
ATOM     19  C   UNL d   1       5.929   5.633  -7.167  0.00  0.00     0.050 A 
ATOM     20  C   UNL d   1       6.071   4.321  -6.772  0.00  0.00     0.009 A 
ENDBRANCH   8   9
ENDBRANCH   7   8
ENDBRANCH   2   7
BRANCH   1  21
ATOM     21  N   UNL d   1       4.989   3.782  -0.346  0.00  0.00    -0.324 N 
ATOM     22  C   UNL d   1       5.056   2.742   0.577  0.00  0.00     0.245 C 
ATOM     23  O   UNL d   1       4.263   2.531   1.488  0.00  0.00    -0.271 OA
ATOM     24  H   UNL d   1       5.879   4.103  -0.703  0.00  0.00     0.169 HD
BRANCH  22  25
ATOM     25  C   UNL d   1       6.284   1.837   0.362  0.00  0.00     0.271 C 
BRANCH  25  26
ATOM     26  O   UNL d   1       6.053   0.459   0.074  0.00  0.00    -0.372 OA
BRANCH  26  27
ATOM     27  C   UNL d   1       5.142   0.255  -1.013  0.00  0.00     0.277 C 
BRANCH  27  28
ATOM     28  C   UNL d   1       5.792   0.596  -2.347  0.00  0.00     0.164 C 
ATOM     29  O   UNL d   1       5.209   1.003  -3.339  0.00  0.00    -0.648 OA
BRANCH  28  30
ATOM     30  O   UNL d   1       7.134   0.383  -2.317  0.00  0.00    -0.775 OA
ATOM     31  H   UNL d   1       7.388   0.046  -1.429  0.00  0.00     0.167 HD
ENDBRANCH  28  30
ENDBRANCH  27  28
ENDBRANCH  26  27
ENDBRANCH  25  26
ENDBRANCH  22  25
ENDBRANCH   1  21
TORSDOF 9
