REMARK  4 active torsions:
REMARK  status: ('A' for Active; 'I' for Inactive)
REMARK    1  A    between atoms: S_3  and  C_1 
REMARK    2  A    between atoms: N_5  and  C_2 
REMARK    3  A    between atoms: C_10  and  S_3 
REMARK    4  A    between atoms: S_14  and  C_4 
REMARK       I    between atoms: C_9  and  N_5 
REMARK       I    between atoms: N_15  and  C_9 
ROOT
ATOM      1  C   UNL d   1       1.232   0.885   0.096  0.00  0.00     0.144 C 
ATOM      2  C   UNL d   1       1.298  -0.498   0.027  0.00  0.00     0.149 C 
ATOM      3  C   UNL d   1      -0.141   1.165   0.293  0.00  0.00     0.110 C 
ATOM      4  N   UNL d   1      -0.004  -0.920   0.026  0.00  0.00    -0.283 N 
ATOM      5  N   UNL d   1      -0.885   0.054   0.266  0.00  0.00    -0.291 N 
ATOM      6  HN  UNL d   1      -1.893  -0.029   0.398  1.00  0.00     0.187 HD
ATOM      7  H   UNL d   1      -0.355  -1.869  -0.044  0.00  0.00     0.188 HD
ENDROOT
BRANCH   1   8
ATOM      8  S   UNL d   1       2.495   1.998  -0.217  0.00  0.00     0.213 S 
ATOM      9  O   UNL d   1       3.421   1.207  -1.019  0.00  0.00    -0.217 OA
ATOM     10  O   UNL d   1       1.875   3.182  -0.766  0.00  0.00    -0.217 OA
BRANCH   8  11
ATOM     11  C   UNL d   1       3.346   2.456   1.262  0.00  0.00     0.064 A 
ATOM     12  C   UNL d   1       4.702   2.796   1.141  0.00  0.00     0.025 A 
ATOM     13  C   UNL d   1       5.465   3.041   2.284  0.00  0.00     0.025 A 
ATOM     14  C   UNL d   1       4.870   2.944   3.540  0.00  0.00     0.034 A 
ATOM     15  C   UNL d   1       3.513   2.636   3.660  0.00  0.00     0.025 A 
ATOM     16 CL   UNL d   1       5.823   3.183   4.951  0.00  0.00    -0.084 Cl
ATOM     17  C   UNL d   1       2.740   2.398   2.518  0.00  0.00     0.025 A 
ENDBRANCH   8  11
ENDBRANCH   1   8
BRANCH   2  18
ATOM     18  N   UNL d   1       2.377  -1.372  -0.064  0.00  0.00    -0.292 N 
ATOM     19  C   UNL d   1       3.445  -1.312   0.869  0.00  0.00     0.321 C 
ATOM     20  O   UNL d   1       3.446  -0.492   1.765  0.00  0.00    -0.247 OA
ATOM     21  N   UNL d   1       4.317  -2.334   0.668  0.00  0.00    -0.347 N 
ATOM     22  C   UNL d   1       5.407  -2.562   1.587  0.00  0.00     0.151 C 
ATOM     23  H   UNL d   1       4.183  -3.009  -0.067  0.00  0.00     0.163 HD
ATOM     24  H   UNL d   1       2.311  -2.170  -0.676  0.00  0.00     0.172 HD
ENDBRANCH   2  18
BRANCH   3  25
ATOM     25  S   UNL d   1      -0.904   2.712   0.587  0.00  0.00    -0.114 SA
ATOM     26  C   UNL d   1      -2.658   2.277   0.694  0.00  0.00     0.097 C 
ENDBRANCH   3  25
TORSDOF 4
