REMARK  2 active torsions:
REMARK  status: ('A' for Active; 'I' for Inactive)
REMARK    1  A    between atoms: C_8  and  C_3 
REMARK    2  A    between atoms: N_16  and  C_4 
ROOT
ATOM      1  C   UNL d   1       2.215   0.102  -0.172  0.00  0.00     0.080 C 
ATOM      2  C   UNL d   1      -0.236   0.539  -0.115  0.00  0.00     0.031 C 
ATOM      3  C   UNL d   1       1.104   1.073  -0.554  0.00  0.00     0.106 C 
ATOM      4  C   UNL d   1       1.938  -1.191   0.105  0.00  0.00     0.138 C 
ATOM      5  C   UNL d   1      -0.424  -0.775   0.085  0.00  0.00     0.066 C 
ATOM      6  O   UNL d   1       0.632  -1.674   0.024  0.00  0.00    -0.301 OA
ATOM      7  C   UNL d   1      -1.349   1.483   0.168  0.00  0.00     0.159 C 
ATOM      8  C   UNL d   1       3.538   0.616  -0.065  0.00  0.00     0.100 C 
ATOM      9  N   UNL d   1       4.620   1.024   0.031  0.00  0.00    -0.191 NA
ATOM     10  C   UNL d   1      -1.756  -1.406   0.352  0.00  0.00     0.075 C 
ATOM     11  C   UNL d   1      -2.942  -0.484  -0.008  0.00  0.00    -0.035 C 
ATOM     12  C   UNL d   1      -2.690   0.910   0.594  0.00  0.00     0.092 C 
ATOM     13  O   UNL d   1      -1.148   2.696   0.158  0.00  0.00    -0.293 OA
ATOM     14  C   UNL d   1      -4.227  -1.087   0.581  0.00  0.00     0.015 C 
ATOM     15  C   UNL d   1      -3.123  -0.369  -1.538  0.00  0.00     0.015 C 
ENDROOT
BRANCH   3  16
ATOM     16  C   UNL d   1       1.119   1.351  -2.074  0.00  0.00    -0.033 A 
ATOM     17  C   UNL d   1       1.349   2.646  -2.629  0.00  0.00    -0.019 A 
ATOM     18  C   UNL d   1       1.380   2.781  -4.048  0.00  0.00    -0.025 A 
ATOM     19  C   UNL d   1       1.552   3.826  -1.874  0.00  0.00     0.013 A 
ATOM     20  C   UNL d   1       1.608   4.032  -4.639  0.00  0.00     0.012 A 
ATOM     21  C   UNL d   1       1.180   1.667  -4.872  0.00  0.00     0.012 A 
ATOM     22  C   UNL d   1       1.804   5.170  -3.863  0.00  0.00     0.001 A 
ATOM     23  C   UNL d   1       1.775   5.066  -2.480  0.00  0.00     0.001 A 
ATOM     24  C   UNL d   1       0.937   0.415  -4.332  0.00  0.00     0.001 A 
ATOM     25  C   UNL d   1       0.906   0.259  -2.952  0.00  0.00     0.009 A 
ENDBRANCH   3  16
BRANCH   4  26
ATOM     26  N   UNL d   1       2.844  -2.157   0.469  0.00  0.00    -0.282 NA
ATOM     27  H   UNL d   1       3.811  -1.984   0.202  0.00  0.00     0.126 HD
ATOM     28  H   UNL d   1       2.523  -3.096   0.246  0.00  0.00     0.126 HD
ENDBRANCH   4  26
TORSDOF 2
