REMARK  3 active torsions:
REMARK  status: ('A' for Active; 'I' for Inactive)
REMARK    1  A    between atoms: C_9  and  C_3 
REMARK    2  A    between atoms: C_8  and  C_4 
REMARK    3  A    between atoms: C_7  and  C_12 
ROOT
ATOM      1  N   UNL d   1       1.332  -0.584   0.440  0.00  0.00    -0.349 N 
ATOM      2  HN  UNL d   1       2.120  -1.085   0.850  1.00  0.00     0.166 HD
ATOM      3  C   UNL d   1       0.258  -1.160  -0.073  0.00  0.00     0.084 A 
ATOM      4  C   UNL d   1       1.237   0.799   0.343  0.00  0.00     0.050 A 
ATOM      5  S   UNL d   1      -0.928  -0.054  -0.672  0.00  0.00    -0.081 SA
ATOM      6  C   UNL d   1       0.079   1.258  -0.249  0.00  0.00     0.082 A 
ENDROOT
BRANCH   3   7
ATOM      7  C   UNL d   1       0.008  -2.611  -0.107  0.00  0.00    -0.002 A 
ATOM      8  C   UNL d   1       0.531  -3.434   0.899  0.00  0.00     0.015 A 
ATOM      9  C   UNL d   1       0.259  -4.809   0.920  0.00  0.00     0.010 A 
ATOM     10  C   UNL d   1      -0.533  -5.407  -0.075  0.00  0.00    -0.035 A 
ATOM     11  C   UNL d   1      -1.030  -4.587  -1.098  0.00  0.00     0.010 A 
ATOM     12  C   UNL d   1      -0.757  -3.215  -1.118  0.00  0.00     0.015 A 
BRANCH  10  13
ATOM     13  C   UNL d   1      -0.846  -6.887  -0.011  0.00  0.00     0.141 C 
ATOM     14  S   UNL d   1      -0.372  -7.799  -1.508  0.00  0.00    -0.148 SA
ATOM     15  C   UNL d   1      -1.472  -9.194  -1.189  0.00  0.00     0.085 C 
ATOM     16  C   UNL d   1      -2.822  -8.629  -0.786  0.00  0.00     0.085 C 
ATOM     17  S   UNL d   1      -2.606  -7.220   0.344  0.00  0.00    -0.148 SA
ENDBRANCH  10  13
ENDBRANCH   3   7
BRANCH   4  18
ATOM     18  C   UNL d   1       2.308   1.674   0.806  0.00  0.00    -0.006 A 
ATOM     19  C   UNL d   1       3.632   1.221   0.775  0.00  0.00     0.056 A 
ATOM     20  C   UNL d   1       4.662   2.062   1.186  0.00  0.00     0.117 A 
ATOM     21  F   UNL d   1       5.928   1.625   1.139  0.00  0.00    -0.206 F 
ATOM     22  C   UNL d   1       4.403   3.349   1.639  0.00  0.00     0.042 A 
ATOM     23  C   UNL d   1       3.089   3.808   1.689  0.00  0.00     0.004 A 
ATOM     24  C   UNL d   1       2.046   2.972   1.275  0.00  0.00     0.014 A 
ENDBRANCH   4  18
TORSDOF 3
