REMARK  5 active torsions:
REMARK  status: ('A' for Active; 'I' for Inactive)
REMARK    1  A    between atoms: C_7  and  C_1 
REMARK    2  A    between atoms: O_14  and  C_7 
REMARK    3  A    between atoms: N_9  and  N_8 
REMARK    4  A    between atoms: C_13  and  C_11 
REMARK    5  A    between atoms: C_19  and  O_14 
ROOT
ATOM      1  C   UNL d   1      -0.088   1.304  -0.008  0.00  0.00     0.109 A 
ATOM      2  C   UNL d   1      -0.267   2.671   0.048  0.00  0.00     0.153 A 
ATOM      3  N   UNL d   1       1.977   2.304   0.102  0.00  0.00    -0.302 N 
ATOM      4  HN  UNL d   1       2.984   2.468   0.138  1.00  0.00     0.186 HD
ATOM      5  N   UNL d   1       0.986   3.211   0.107  0.00  0.00    -0.283 N 
ATOM      6  C   UNL d   1       1.329   1.133   0.038  0.00  0.00     0.042 A 
ATOM      7  N   UNL d   1      -1.357   3.479   0.054  0.00  0.00    -0.283 N 
ATOM      8  C   UNL d   1       2.095  -0.139   0.017  0.00  0.00     0.071 C 
ATOM      9  H   UNL d   1       1.202   4.199   0.151  0.00  0.00     0.188 HD
ATOM     10  H   UNL d   1      -2.269   3.017   0.075  0.00  0.00     0.188 HD
ENDROOT
BRANCH   1  11
ATOM     11  C   UNL d   1      -1.095   0.271  -0.111  0.00  0.00     0.299 C 
ATOM     12  O   UNL d   1      -0.828  -0.922  -0.187  0.00  0.00    -0.259 OA
BRANCH  11  13
ATOM     13  O   UNL d   1      -2.363   0.779  -0.194  0.00  0.00    -0.318 OA
BRANCH  13  14
ATOM     14  C   UNL d   1      -3.342  -0.128  -0.714  0.00  0.00     0.174 C 
ATOM     15  C   UNL d   1      -3.312  -0.034  -2.229  0.00  0.00     0.034 C 
ENDBRANCH  13  14
ENDBRANCH  11  13
ENDBRANCH   1  11
BRANCH   7  16
ATOM     16  N   UNL d   1      -1.247   4.735   0.552  0.00  0.00    -0.303 N 
ATOM     17  C   UNL d   1      -2.265   5.540   0.584  0.00  0.00     0.032 C 
ATOM     18  C   UNL d   1      -3.634   5.244   0.006  0.00  0.00     0.070 C 
ATOM     19  HN  UNL d   1      -0.346   5.054   0.909  1.00  0.00     0.186 HD
BRANCH  17  20
ATOM     20  C   UNL d   1      -2.058   6.883   1.244  0.00  0.00    -0.013 A 
ATOM     21  C   UNL d   1      -0.805   7.168   1.814  0.00  0.00     0.013 A 
ATOM     22  C   UNL d   1      -0.561   8.400   2.422  0.00  0.00     0.001 A 
ATOM     23  C   UNL d   1      -1.567   9.359   2.472  0.00  0.00     0.000 A 
ATOM     24  C   UNL d   1      -2.820   9.084   1.925  0.00  0.00     0.001 A 
ATOM     25  C   UNL d   1      -3.068   7.849   1.317  0.00  0.00     0.013 A 
ENDBRANCH  17  20
ENDBRANCH   7  16
TORSDOF 5
