REMARK  4 active torsions:
REMARK  status: ('A' for Active; 'I' for Inactive)
REMARK    1  A    between atoms: C_2  and  S_1 
REMARK    2  A    between atoms: C_3  and  S_1 
REMARK    3  A    between atoms: C_7  and  C_2 
REMARK    4  A    between atoms: N_4  and  C_7 
ROOT
ATOM      1  S   UNL d   1       1.534  -0.133   0.059  0.00  0.00     0.177 S 
ATOM      2  O   UNL d   1       1.121  -1.210   0.942  0.00  0.00    -0.223 OA
ATOM      3  O   UNL d   1       2.927   0.248  -0.059  0.00  0.00    -0.223 OA
ENDROOT
BRANCH   1   4
ATOM      4  C   UNL d   1       0.564   1.307   0.431  0.00  0.00     0.176 C 
BRANCH   4   5
ATOM      5  C   UNL d   1       0.822   1.828   1.839  0.00  0.00     0.287 C 
BRANCH   5   6
ATOM      6  N   UNL d   1       0.112   3.102   2.083  0.00  0.00     0.093 N 
ATOM      7  C   UNL d   1       0.459   3.680   3.404  0.00  0.00     0.298 C 
ATOM      8  C   UNL d   1      -0.242   3.011   4.601  0.00  0.00     0.198 C 
ATOM      9  O   UNL d   1      -1.663   2.949   4.427  0.00  0.00    -0.388 OA
ATOM     10  C   UNL d   1      -1.995   2.280   3.205  0.00  0.00     0.198 C 
ATOM     11  C   UNL d   1      -1.362   3.002   2.008  0.00  0.00     0.298 C 
ENDBRANCH   5   6
ENDBRANCH   4   5
ENDBRANCH   1   4
BRANCH   1  12
ATOM     12  C   UNL d   1       0.946  -0.533  -1.577  0.00  0.00     0.059 A 
ATOM     13  C   UNL d   1       1.552   0.058  -2.690  0.00  0.00     0.025 A 
ATOM     14  C   UNL d   1       1.036  -0.189  -3.963  0.00  0.00     0.025 A 
ATOM     15  C   UNL d   1      -0.070  -1.027  -4.114  0.00  0.00     0.034 A 
ATOM     16  C   UNL d   1      -0.659  -1.634  -3.004  0.00  0.00     0.025 A 
ATOM     17 CL   UNL d   1      -0.720  -1.307  -5.683  0.00  0.00    -0.084 Cl
ATOM     18  C   UNL d   1      -0.147  -1.393  -1.726  0.00  0.00     0.025 A 
ENDBRANCH   1  12
TORSDOF 4
