REMARK  0 active torsions:
REMARK  status: ('A' for Active; 'I' for Inactive)
ROOT
ATOM      1  N   UNL d   1      -1.575  -1.135  -0.001  0.00  0.00    -0.350 N 
ATOM      2  HN  UNL d   1      -1.888  -2.106  -0.001  1.00  0.00     0.166 HD
ATOM      3  C   UNL d   1      -0.281  -0.679  -0.001  0.00  0.00     0.063 A 
ATOM      4  C   UNL d   1      -0.248   0.714   0.000  0.00  0.00     0.061 A 
ATOM      5  C   UNL d   1       0.921  -1.397  -0.001  0.00  0.00     0.075 A 
ATOM      6  C   UNL d   1       0.937   1.455   0.001  0.00  0.00     0.058 A 
ATOM      7  C   UNL d   1      -2.325  -0.057  -0.000  0.00  0.00     0.181 A 
ATOM      8  C   UNL d   1       2.117  -0.677   0.000  0.00  0.00     0.140 A 
ATOM      9  C   UNL d   1       2.129   0.720   0.002  0.00  0.00     0.074 A 
ATOM     10  N   UNL d   1      -1.571   1.082  -0.000  0.00  0.00    -0.350 N 
ATOM     11 CL   UNL d   1       3.626   1.576   0.005  0.00  0.00    -0.081 Cl
ATOM     12  F   UNL d   1       3.271  -1.363  -0.000  0.00  0.00    -0.204 F 
ATOM     13  H   UNL d   1      -1.927   2.027  -0.000  0.00  0.00     0.166 HD
ENDROOT
TORSDOF 0
