REMARK  5 active torsions:
REMARK  status: ('A' for Active; 'I' for Inactive)
REMARK    1  A    between atoms: N_7  and  C_1 
REMARK    2  A    between atoms: C_20  and  N_4 
REMARK    3  A    between atoms: N_6  and  C_12 
REMARK    4  A    between atoms: C_18  and  N_7 
REMARK    5  A    between atoms: C_14  and  C_9 
ROOT
ATOM      1  N   UNL d   1      -0.524  -2.636  -0.231  0.00  0.00    -0.357 N 
ATOM      2  HN  UNL d   1      -1.413  -2.904  -0.654  1.00  0.00     0.165 HD
ENDROOT
BRANCH   1   3
ATOM      3  C   UNL d   1      -0.176  -1.318  -0.038  0.00  0.00     0.127 C 
ATOM      4  C   UNL d   1       1.198  -0.725  -0.193  0.00  0.00     0.295 C 
ATOM      5  N   UNL d   1       1.079   0.652   0.045  0.00  0.00    -0.217 N 
ATOM      6  O   UNL d   1       2.187  -1.383  -0.460  0.00  0.00    -0.264 OA
ATOM      7  N   UNL d   1      -0.285   0.954   0.339  0.00  0.00    -0.289 N 
ATOM      8  C   UNL d   1      -0.985  -0.257   0.166  0.00  0.00     0.057 C 
ATOM      9  C   UNL d   1      -0.806   2.258  -0.072  0.00  0.00     0.178 C 
ATOM     10  C   UNL d   1      -2.478  -0.361   0.150  0.00  0.00     0.072 C 
BRANCH   5  11
ATOM     11  C   UNL d   1       2.145   1.584   0.012  0.00  0.00     0.060 A 
ATOM     12  C   UNL d   1       3.268   1.329  -0.793  0.00  0.00     0.031 A 
ATOM     13  C   UNL d   1       4.331   2.231  -0.872  0.00  0.00     0.002 A 
ATOM     14  C   UNL d   1       4.293   3.411  -0.140  0.00  0.00     0.000 A 
ATOM     15  C   UNL d   1       3.200   3.676   0.681  0.00  0.00     0.002 A 
ATOM     16  C   UNL d   1       2.139   2.765   0.763  0.00  0.00     0.031 A 
ENDBRANCH   5  11
ENDBRANCH   1   3
BRANCH   1  17
ATOM     17  C   UNL d   1       0.346  -3.521   0.158  0.00  0.00     0.125 C 
ATOM     18  C   UNL d   1       0.112  -4.931  -0.030  0.00  0.00     0.091 A 
ATOM     19  O   UNL d   1       1.102  -5.821   0.312  0.00  0.00    -0.309 OA
ATOM     20  C   UNL d   1      -0.970  -5.621  -0.533  0.00  0.00     0.041 A 
ATOM     21  C   UNL d   1       0.658  -7.081   0.001  0.00  0.00     0.086 A 
ATOM     22  C   UNL d   1      -0.628  -6.993  -0.499  0.00  0.00     0.041 A 
BRANCH  21  23
ATOM     23  C   UNL d   1       1.588  -8.199   0.199  0.00  0.00     0.000 A 
ATOM     24  C   UNL d   1       2.856  -8.028   0.776  0.00  0.00     0.050 A 
ATOM     25  C   UNL d   1       3.740  -9.119   0.874  0.00  0.00     0.103 A 
ATOM     26  C   UNL d   1       3.373 -10.390   0.412  0.00  0.00     0.036 A 
ATOM     27  C   UNL d   1       2.108 -10.573  -0.136  0.00  0.00     0.003 A 
ATOM     28  C   UNL d   1       1.228  -9.490  -0.237  0.00  0.00     0.014 A 
BRANCH  25  29
ATOM     29  N   UNL d   1       5.078  -8.930   1.452  0.00  0.00    -0.116 N 
ATOM     30  O   UNL d   1       5.377  -7.803   1.863  0.00  0.00    -0.532 OA
ATOM     31  O   UNL d   1       5.832  -9.913   1.495  0.00  0.00    -0.532 OA
ENDBRANCH  25  29
ENDBRANCH  21  23
ENDBRANCH   1  17
TORSDOF 5
