REMARK  6 active torsions:
REMARK  status: ('A' for Active; 'I' for Inactive)
REMARK    1  A    between atoms: O_7  and  C_1 
REMARK    2  A    between atoms: N_4  and  C_2 
REMARK    3  A    between atoms: N_5  and  C_3 
REMARK    4  A    between atoms: C_6  and  O_7 
REMARK    5  A    between atoms: C_8  and  C_6 
REMARK    6  A    between atoms: C_9  and  C_10 
ROOT
ATOM      1  C   UNL d   1       1.201  -0.198   0.206  0.00  0.00     0.145 A 
ATOM      2  C   UNL d   1       0.118  -1.079   0.158  0.00  0.00     0.140 A 
ATOM      3  C   UNL d   1       0.927   1.167   0.076  0.00  0.00     0.140 A 
ATOM      4  C   UNL d   1      -1.486   0.729  -0.011  0.00  0.00     0.052 A 
ATOM      5  C   UNL d   1      -0.405   1.629  -0.037  0.00  0.00     0.055 A 
ATOM      6  C   UNL d   1      -1.212  -0.642   0.075  0.00  0.00     0.055 A 
ENDROOT
BRANCH   1   7
ATOM      7  O   UNL d   1       2.442  -0.741   0.596  0.00  0.00    -0.270 OA
BRANCH   7   8
ATOM      8  C   UNL d   1       3.587  -0.587  -0.170  0.00  0.00     0.303 C 
ATOM      9  O   UNL d   1       3.606  -0.099  -1.285  0.00  0.00    -0.259 OA
BRANCH   8  10
ATOM     10  C   UNL d   1       4.745  -1.134   0.591  0.00  0.00     0.100 A 
ATOM     11  C   UNL d   1       4.767  -1.035   1.990  0.00  0.00     0.134 A 
ATOM     12  F   UNL d   1       3.753  -0.472   2.664  0.00  0.00    -0.205 F 
ATOM     13  C   UNL d   1       5.844  -1.505   2.742  0.00  0.00     0.043 A 
ATOM     14  C   UNL d   1       6.936  -2.079   2.103  0.00  0.00     0.005 A 
ATOM     15  C   UNL d   1       6.933  -2.191   0.713  0.00  0.00     0.025 A 
ATOM     16  C   UNL d   1       5.843  -1.727  -0.045  0.00  0.00     0.053 A 
ATOM     17 CL   UNL d   1       5.930  -1.980  -1.751  0.00  0.00    -0.083 Cl
ENDBRANCH   8  10
ENDBRANCH   7   8
ENDBRANCH   1   7
BRANCH   2  18
ATOM     18  N   UNL d   1       0.366  -2.498   0.083  0.00  0.00    -0.113 N 
ATOM     19  O   UNL d   1       0.399  -2.993  -1.048  0.00  0.00    -0.532 OA
ATOM     20  O   UNL d   1       0.500  -3.107   1.152  0.00  0.00    -0.532 OA
ENDBRANCH   2  18
BRANCH   3  21
ATOM     21  N   UNL d   1       1.981   2.171   0.068  0.00  0.00    -0.113 N 
ATOM     22  O   UNL d   1       2.872   2.074   0.921  0.00  0.00    -0.532 OA
ATOM     23  O   UNL d   1       1.873   3.088  -0.755  0.00  0.00    -0.532 OA
ENDBRANCH   3  21
BRANCH   4  24
ATOM     24  C   UNL d   1      -2.921   1.210  -0.067  0.00  0.00     0.417 C 
ATOM     25  F   UNL d   1      -3.041   2.495  -0.491  0.00  0.00    -0.166 F 
ATOM     26  F   UNL d   1      -3.684   0.459  -0.904  0.00  0.00    -0.166 F 
ATOM     27  F   UNL d   1      -3.525   1.153   1.150  0.00  0.00    -0.166 F 
ENDBRANCH   4  24
TORSDOF 6
