REMARK  9 active torsions:
REMARK  status: ('A' for Active; 'I' for Inactive)
REMARK    1  A    between atoms: C_4  and  C_1 
REMARK    2  A    between atoms: C_2  and  O_6 
REMARK       I    between atoms: C_3  and  N_14 
REMARK    3  A    between atoms: C_5  and  C_3 
REMARK    4  A    between atoms: O_6  and  C_10 
REMARK    5  A    between atoms: N_14  and  C_26 
REMARK    6  A    between atoms: C_25  and  C_18 
REMARK    7  A    between atoms: S_19  and  C_25 
REMARK    8  A    between atoms: C_28  and  S_19 
REMARK    9  A    between atoms: C_26  and  C_28 
ROOT
ATOM      1  C   UNL d   1       4.981  -8.571   0.736  0.00  0.00     0.251 C 
ATOM      2  O   UNL d   1       5.749  -7.957   0.002  0.00  0.00    -0.268 OA
ATOM      3  N   UNL d   1       3.804  -8.032   1.202  0.00  0.00    -0.356 N 
ATOM      4  H   UNL d   1       3.086  -8.667   1.534  0.00  0.00     0.162 HD
ENDROOT
BRANCH   3   5
ATOM      5  C   UNL d   1       3.368  -6.691   0.854  0.00  0.00     0.133 C 
BRANCH   5   6
ATOM      6  C   UNL d   1       2.447  -6.651  -0.369  0.00  0.00     0.093 C 
BRANCH   6   7
ATOM      7  S   UNL d   1       0.954  -7.651  -0.035  0.00  0.00    -0.163 SA
BRANCH   7   8
ATOM      8  C   UNL d   1       0.048  -7.388  -1.593  0.00  0.00     0.112 C 
BRANCH   8   9
ATOM      9  C   UNL d   1      -1.240  -8.176  -1.564  0.00  0.00    -0.048 A 
ATOM     10  C   UNL d   1      -2.406  -7.617  -1.015  0.00  0.00     0.024 A 
ATOM     11  C   UNL d   1      -3.587  -8.368  -0.904  0.00  0.00     0.048 A 
ATOM     12  C   UNL d   1      -3.591  -9.697  -1.355  0.00  0.00     0.016 A 
ATOM     13  C   UNL d   1      -2.439 -10.262  -1.901  0.00  0.00     0.001 A 
ATOM     14  C   UNL d   1      -1.270  -9.507  -2.003  0.00  0.00     0.008 A 
BRANCH  11  15
ATOM     15  C   UNL d   1      -4.836  -7.774  -0.300  0.00  0.00     0.417 C 
ATOM     16  F   UNL d   1      -4.681  -6.487   0.119  0.00  0.00    -0.166 F 
ATOM     17  F   UNL d   1      -5.274  -8.469   0.786  0.00  0.00    -0.166 F 
ATOM     18  F   UNL d   1      -5.879  -7.756  -1.177  0.00  0.00    -0.166 F 
ENDBRANCH  11  15
ENDBRANCH   8   9
ENDBRANCH   7   8
ENDBRANCH   6   7
ENDBRANCH   5   6
ENDBRANCH   3   5
BRANCH   1  19
ATOM     19  C   UNL d   1       5.279  -9.969   1.121  0.00  0.00     0.034 A 
ATOM     20  C   UNL d   1       6.043 -10.767   0.251  0.00  0.00     0.054 A 
ATOM     21  C   UNL d   1       6.310 -12.096   0.574  0.00  0.00     0.079 A 
ATOM     22  C   UNL d   1       5.897 -12.597   1.810  0.00  0.00     0.037 A 
ATOM     23  C   UNL d   1       5.168 -11.803   2.696  0.00  0.00     0.004 A 
ATOM     24  C   UNL d   1       4.846 -10.488   2.347  0.00  0.00     0.017 A 
BRANCH  21  25
ATOM     25  O   UNL d   1       7.019 -12.972  -0.190  0.00  0.00    -0.255 OA
BRANCH  25  26
ATOM     26  C   UNL d   1       6.926 -12.901  -1.608  0.00  0.00     0.530 C 
ATOM     27  F   UNL d   1       6.023 -12.007  -2.063  0.00  0.00    -0.144 F 
ATOM     28  F   UNL d   1       8.138 -12.598  -2.117  0.00  0.00    -0.144 F 
ATOM     29  F   UNL d   1       6.567 -14.119  -2.072  0.00  0.00    -0.144 F 
ENDBRANCH  25  26
ENDBRANCH  21  25
ENDBRANCH   1  19
TORSDOF 9
