REMARK  4 active torsions:
REMARK  status: ('A' for Active; 'I' for Inactive)
REMARK    1  A    between atoms: C_2  and  S_1 
REMARK    2  A    between atoms: C_6  and  S_1 
REMARK    3  A    between atoms: C_3  and  N_8 
REMARK    4  A    between atoms: N_8  and  C_4 
ROOT
ATOM      1  C   UNL d   1       0.420  -0.083   1.695  0.00  0.00     0.155 C 
ATOM      2  C   UNL d   1      -0.297   0.982   2.100  0.00  0.00     0.141 C 
ATOM      3  C   UNL d   1       0.862  -0.250   0.360  0.00  0.00     0.113 C 
ATOM      4  N   UNL d   1       1.232  -0.325  -0.736  0.00  0.00    -0.191 NA
ENDROOT
BRANCH   1   5
ATOM      5  S   UNL d   1       0.743  -1.364   2.828  0.00  0.00     0.194 S 
ATOM      6  O   UNL d   1       0.956  -2.595   2.085  0.00  0.00    -0.221 OA
ATOM      7  O   UNL d   1      -0.282  -1.352   3.860  0.00  0.00    -0.221 OA
BRANCH   5   8
ATOM      8  C   UNL d   1       2.322  -0.945   3.639  0.00  0.00     0.058 C 
ATOM      9  C   UNL d   1       2.206   0.363   4.434  0.00  0.00     0.031 C 
ATOM     10  C   UNL d   1       2.658  -2.084   4.625  0.00  0.00     0.031 C 
ATOM     11  C   UNL d   1       3.459  -0.831   2.614  0.00  0.00     0.031 C 
ENDBRANCH   5   8
ENDBRANCH   1   5
BRANCH   2  12
ATOM     12  N   UNL d   1      -0.778   2.041   1.367  0.00  0.00    -0.200 N 
ATOM     13  H   UNL d   1      -0.918   1.939   0.367  0.00  0.00     0.183 HD
BRANCH  12  14
ATOM     14  C   UNL d   1      -1.529   3.102   1.874  0.00  0.00     0.681 A 
ATOM     15  N   UNL d   1      -1.372   3.472   3.157  0.00  0.00    -0.202 N 
ATOM     16  C   UNL d   1      -2.112   4.510   3.590  0.00  0.00     0.107 A 
ATOM     17  HN  UNL d   1      -0.721   2.988   3.775  1.00  0.00     0.183 HD
ATOM     18  C   UNL d   1      -3.024   5.168   2.806  0.00  0.00     0.035 A 
ATOM     19  C   UNL d   1      -3.119   4.713   1.515  0.00  0.00     0.107 A 
ATOM     20  N   UNL d   1      -2.372   3.704   1.022  0.00  0.00    -0.202 N 
ATOM     21  HN  UNL d   1      -2.444   3.413   0.047  1.00  0.00     0.183 HD
ENDBRANCH  12  14
ENDBRANCH   2  12
TORSDOF 4
