REMARK  4 active torsions:
REMARK  status: ('A' for Active; 'I' for Inactive)
REMARK    1  A    between atoms: C_3  and  C_1 
REMARK    2  A    between atoms: C_12  and  C_2 
REMARK    3  A    between atoms: C_14  and  C_6 
REMARK    4  A    between atoms: C_15  and  C_9 
ROOT
ATOM      1  C   UNL d   1       1.179   0.670  -0.072  0.00  0.00     0.059 A 
ATOM      2  C   UNL d   1      -0.138   1.080  -0.019  0.00  0.00     0.174 A 
ATOM      3  C   UNL d   1      -0.143  -1.143  -0.054  0.00  0.00     0.089 A 
ATOM      4  O   UNL d   1      -0.945  -0.036  -0.008  0.00  0.00    -0.304 OA
ATOM      5  C   UNL d   1       1.173  -0.744  -0.145  0.00  0.00     0.056 A 
ENDROOT
BRANCH   1   6
ATOM      6  C   UNL d   1       2.395   1.516  -0.037  0.00  0.00     0.185 A 
ATOM      7  N   UNL d   1       2.394   2.811   0.164  0.00  0.00    -0.318 N 
ATOM      8  C   UNL d   1       3.734   3.131   0.181  0.00  0.00     0.138 A 
ATOM      9  HN  UNL d   1       1.594   3.432   0.281  1.00  0.00     0.169 HD
ATOM     10  N   UNL d   1       4.543   2.080  -0.030  0.00  0.00    -0.242 N 
ATOM     11  O   UNL d   1       3.662   1.011  -0.165  0.00  0.00    -0.217 OA
ATOM     12  HN  UNL d   1       5.562   2.068  -0.079  1.00  0.00     0.196 HD
BRANCH   8  13
ATOM     13  C   UNL d   1       4.199   4.486   0.446  0.00  0.00     0.010 A 
ATOM     14  C   UNL d   1       3.268   5.508   0.694  0.00  0.00     0.022 A 
ATOM     15  C   UNL d   1       3.687   6.812   0.987  0.00  0.00    -0.061 A 
ATOM     16  C   UNL d   1       2.687   7.893   1.273  0.00  0.00     0.048 C 
ATOM     17  C   UNL d   1       5.057   7.094   1.026  0.00  0.00     0.007 A 
ATOM     18  C   UNL d   1       5.992   6.090   0.773  0.00  0.00     0.002 A 
ATOM     19  C   UNL d   1       5.566   4.792   0.485  0.00  0.00     0.015 A 
ENDBRANCH   8  13
ENDBRANCH   1   6
BRANCH   2  20
ATOM     20  C   UNL d   1      -0.845   2.385   0.028  0.00  0.00     0.440 C 
ATOM     21  F   UNL d   1      -0.055   3.462  -0.195  0.00  0.00    -0.164 F 
ATOM     22  F   UNL d   1      -1.829   2.447  -0.912  0.00  0.00    -0.164 F 
ATOM     23  F   UNL d   1      -1.448   2.587   1.229  0.00  0.00    -0.164 F 
ENDBRANCH   2  20
BRANCH   3  24
ATOM     24  C   UNL d   1      -0.820  -2.438  -0.012  0.00  0.00     0.019 A 
ATOM     25  C   UNL d   1      -0.273  -3.574   0.616  0.00  0.00     0.047 A 
ATOM     26 CL   UNL d   1       1.206  -3.539   1.518  0.00  0.00    -0.083 Cl
ATOM     27  C   UNL d   1      -0.939  -4.807   0.571  0.00  0.00     0.025 A 
ATOM     28  C   UNL d   1      -2.161  -4.924  -0.084  0.00  0.00     0.002 A 
ATOM     29  C   UNL d   1      -2.731  -3.806  -0.685  0.00  0.00     0.001 A 
ATOM     30  C   UNL d   1      -2.067  -2.576  -0.647  0.00  0.00     0.016 A 
ENDBRANCH   3  24
TORSDOF 4
