REMARK  3 active torsions:
REMARK  status: ('A' for Active; 'I' for Inactive)
REMARK    1  A    between atoms: O_7  and  N_2 
REMARK    2  A    between atoms: C_5  and  O_7 
REMARK    3  A    between atoms: C_9  and  C_5 
ROOT
ATOM      1  C   UNL d   1       0.013   0.728   0.108  0.00  0.00     0.008 A 
ATOM      2  N   UNL d   1      -1.227   2.746   0.492  0.00  0.00    -0.261 N 
ATOM      3  HN  UNL d   1      -0.388   3.189   0.867  1.00  0.00     0.194 HD
ATOM      4  C   UNL d   1      -1.269   1.500   0.123  0.00  0.00     0.045 C 
ATOM      5  C   UNL d   1       0.042  -0.670  -0.021  0.00  0.00     0.013 A 
ATOM      6  S   UNL d   1      -1.407  -1.706  -0.130  0.00  0.00    -0.129 SA
ATOM      7  C   UNL d   1       1.217   1.447   0.182  0.00  0.00     0.057 A 
ATOM      8  C   UNL d   1       1.285  -1.323  -0.085  0.00  0.00     0.022 A 
ATOM      9  C   UNL d   1       2.431   0.778   0.115  0.00  0.00     0.117 A 
ATOM     10  C   UNL d   1      -2.528   0.782  -0.323  0.00  0.00     0.070 C 
ATOM     11  C   UNL d   1      -2.672  -0.530   0.419  0.00  0.00     0.085 C 
ATOM     12  C   UNL d   1       2.477  -0.601  -0.019  0.00  0.00     0.043 A 
ATOM     13  F   UNL d   1       3.574   1.474   0.166  0.00  0.00    -0.206 F 
ENDROOT
BRANCH   2  14
ATOM     14  O   UNL d   1      -2.446   3.424   0.326  0.00  0.00    -0.195 OA
BRANCH  14  15
ATOM     15  C   UNL d   1      -2.581   4.332   1.336  0.00  0.00     0.315 C 
ATOM     16  O   UNL d   1      -2.421   4.115   2.528  0.00  0.00    -0.257 OA
BRANCH  15  17
ATOM     17  C   UNL d   1      -2.965   5.665   0.791  0.00  0.00     0.041 A 
ATOM     18  C   UNL d   1      -3.254   6.695   1.701  0.00  0.00     0.019 A 
ATOM     19  C   UNL d   1      -3.548   7.982   1.242  0.00  0.00     0.025 A 
ATOM     20  C   UNL d   1      -3.552   8.245  -0.126  0.00  0.00     0.034 A 
ATOM     21  C   UNL d   1      -3.267   7.231  -1.040  0.00  0.00     0.025 A 
ATOM     22 CL   UNL d   1      -3.897   9.832  -0.692  0.00  0.00    -0.084 Cl
ATOM     23  C   UNL d   1      -2.974   5.943  -0.583  0.00  0.00     0.019 A 
ENDBRANCH  15  17
ENDBRANCH  14  15
ENDBRANCH   2  14
TORSDOF 3
