REMARK  4 active torsions:
REMARK  status: ('A' for Active; 'I' for Inactive)
REMARK    1  A    between atoms: C_11  and  N_3 
REMARK    2  A    between atoms: C_8  and  C_4 
REMARK    3  A    between atoms: O_9  and  C_8 
REMARK    4  A    between atoms: C_10  and  O_9 
ROOT
ATOM      1  N   UNL d   1      -0.081  -1.022  -0.222  0.00  0.00    -0.272 N 
ATOM      2  HN  UNL d   1      -0.288  -1.944  -0.604  1.00  0.00     0.189 HD
ATOM      3  N   UNL d   1       1.123  -0.497   0.092  0.00  0.00    -0.196 N 
ATOM      4  C   UNL d   1      -0.942  -0.034   0.089  0.00  0.00     0.149 A 
ATOM      5  N   UNL d   1       1.110   0.790   0.526  0.00  0.00    -0.281 N 
ATOM      6  HN  UNL d   1       1.898   1.381   0.791  1.00  0.00     0.189 HD
ATOM      7  C   UNL d   1      -0.197   1.089   0.520  0.00  0.00     0.058 A 
ATOM      8  C   UNL d   1      -0.647   2.441   0.924  0.00  0.00     0.072 C 
ENDROOT
BRANCH   4   9
ATOM      9  C   UNL d   1      -2.388  -0.234   0.012  0.00  0.00     0.319 C 
ATOM     10  O   UNL d   1      -3.233   0.575   0.391  0.00  0.00    -0.257 OA
BRANCH   9  11
ATOM     11  O   UNL d   1      -2.676  -1.500  -0.498  0.00  0.00    -0.270 OA
BRANCH  11  12
ATOM     12  C   UNL d   1      -3.817  -2.207  -0.069  0.00  0.00     0.122 A 
ATOM     13  C   UNL d   1      -4.644  -2.759  -1.052  0.00  0.00     0.069 A 
ATOM     14 CL   UNL d   1      -4.453  -2.355  -2.719  0.00  0.00    -0.081 Cl
ATOM     15  C   UNL d   1      -5.623  -3.690  -0.700  0.00  0.00     0.027 A 
ATOM     16  C   UNL d   1      -5.780  -4.069   0.634  0.00  0.00     0.003 A 
ATOM     17  C   UNL d   1      -4.968  -3.503   1.619  0.00  0.00     0.027 A 
ATOM     18  C   UNL d   1      -3.979  -2.579   1.272  0.00  0.00     0.069 A 
ATOM     19 CL   UNL d   1      -2.939  -2.019   2.532  0.00  0.00    -0.081 Cl
ENDBRANCH  11  12
ENDBRANCH   9  11
ENDBRANCH   4   9
BRANCH   3  20
ATOM     20  C   UNL d   1       2.318  -1.251  -0.035  0.00  0.00     0.074 A 
ATOM     21  C   UNL d   1       2.278  -2.543  -0.583  0.00  0.00     0.033 A 
ATOM     22  C   UNL d   1       3.458  -3.274  -0.732  0.00  0.00     0.002 A 
ATOM     23  C   UNL d   1       4.674  -2.726  -0.323  0.00  0.00     0.000 A 
ATOM     24  C   UNL d   1       4.714  -1.450   0.240  0.00  0.00     0.002 A 
ATOM     25  C   UNL d   1       3.540  -0.709   0.384  0.00  0.00     0.033 A 
ENDBRANCH   3  20
TORSDOF 4
