REMARK  10 active torsions:
REMARK  status: ('A' for Active; 'I' for Inactive)
REMARK       I    between atoms: N_4  and  C_1 
REMARK    1  A    between atoms: O_5  and  C_1 
REMARK       I    between atoms: C_2  and  N_3 
REMARK    2  A    between atoms: O_6  and  C_2 
REMARK    3  A    between atoms: N_3  and  C_9 
REMARK    4  A    between atoms: C_10  and  N_4 
REMARK    5  A    between atoms: C_11  and  O_5 
REMARK    6  A    between atoms: C_12  and  O_6 
REMARK    7  A    between atoms: C_15  and  C_13 
REMARK    8  A    between atoms: C_14  and  C_15 
REMARK    9  A    between atoms: O_34  and  C_16 
REMARK   10  A    between atoms: O_35  and  C_17 
ROOT
ATOM      1  C   UNL d   1       3.655   2.940  -4.913  0.00  0.00     0.077 C 
ENDROOT
BRANCH   1   2
ATOM      2  C   UNL d   1       4.809   2.033  -5.278  0.00  0.00    -0.054 A 
ATOM      3  C   UNL d   1       4.741   1.123  -6.342  0.00  0.00     0.010 A 
ATOM      4  C   UNL d   1       5.823   0.275  -6.623  0.00  0.00     0.030 A 
ATOM      5  C   UNL d   1       6.991   0.310  -5.849  0.00  0.00     0.036 A 
ATOM      6  C   UNL d   1       7.054   1.235  -4.807  0.00  0.00     0.030 A 
ATOM      7  C   UNL d   1       5.979   2.077  -4.520  0.00  0.00     0.010 A 
BRANCH   5   8
ATOM      8  N   UNL d   1       8.005  -0.621  -6.156  0.00  0.00    -0.302 N 
ATOM      9  C   UNL d   1       9.198  -0.909  -5.533  0.00  0.00     0.370 C 
ATOM     10  O   UNL d   1       9.862  -1.875  -5.902  0.00  0.00    -0.238 OA
ATOM     11  H   UNL d   1       7.816  -1.273  -6.905  0.00  0.00     0.171 HD
BRANCH   9  12
ATOM     12  O   UNL d   1       9.547  -0.056  -4.489  0.00  0.00    -0.261 OA
BRANCH  12  13
ATOM     13  C   UNL d   1      10.574  -0.218  -3.527  0.00  0.00     0.081 A 
ATOM     14  C   UNL d   1      11.572  -1.181  -3.597  0.00  0.00     0.040 A 
ATOM     15  C   UNL d   1      12.472  -1.318  -2.533  0.00  0.00     0.039 A 
ATOM     16  C   UNL d   1      12.363  -0.504  -1.403  0.00  0.00     0.068 A 
ATOM     17  C   UNL d   1      11.396   0.502  -1.375  0.00  0.00     0.039 A 
ATOM     18  C   UNL d   1      10.500   0.648  -2.434  0.00  0.00     0.040 A 
BRANCH  16  19
ATOM     19  O   UNL d   1      13.127  -0.596  -0.272  0.00  0.00    -0.356 OA
ATOM     20  C   UNL d   1      13.934  -1.760  -0.137  0.00  0.00     0.210 C 
ENDBRANCH  16  19
ENDBRANCH  12  13
ENDBRANCH   9  12
ENDBRANCH   5   8
ENDBRANCH   1   2
BRANCH   1  21
ATOM     21  C   UNL d   1       2.624   2.279  -4.029  0.00  0.00    -0.054 A 
ATOM     22  C   UNL d   1       2.778   2.181  -2.635  0.00  0.00     0.010 A 
ATOM     23  C   UNL d   1       1.866   1.445  -1.860  0.00  0.00     0.030 A 
ATOM     24  C   UNL d   1       0.811   0.777  -2.480  0.00  0.00     0.036 A 
ATOM     25  C   UNL d   1       0.598   0.980  -3.848  0.00  0.00     0.030 A 
ATOM     26  C   UNL d   1       1.500   1.704  -4.618  0.00  0.00     0.010 A 
BRANCH  24  27
ATOM     27  N   UNL d   1       0.005  -0.113  -1.734  0.00  0.00    -0.302 N 
ATOM     28  C   UNL d   1      -0.706  -1.146  -2.312  0.00  0.00     0.370 C 
ATOM     29  O   UNL d   1      -0.625  -1.470  -3.492  0.00  0.00    -0.238 OA
ATOM     30  H   UNL d   1       0.066  -0.119  -0.729  0.00  0.00     0.171 HD
BRANCH  28  31
ATOM     31  O   UNL d   1      -1.511  -1.788  -1.373  0.00  0.00    -0.261 OA
BRANCH  31  32
ATOM     32  C   UNL d   1      -2.564  -2.661  -1.759  0.00  0.00     0.081 A 
ATOM     33  C   UNL d   1      -2.818  -3.089  -3.064  0.00  0.00     0.040 A 
ATOM     34  C   UNL d   1      -3.971  -3.820  -3.359  0.00  0.00     0.039 A 
ATOM     35  C   UNL d   1      -4.872  -4.137  -2.349  0.00  0.00     0.068 A 
ATOM     36  C   UNL d   1      -4.578  -3.783  -1.030  0.00  0.00     0.039 A 
ATOM     37  C   UNL d   1      -3.430  -3.038  -0.733  0.00  0.00     0.040 A 
BRANCH  35  38
ATOM     38  O   UNL d   1      -6.045  -4.814  -2.544  0.00  0.00    -0.356 OA
ATOM     39  C   UNL d   1      -6.669  -4.574  -3.804  0.00  0.00     0.210 C 
ENDBRANCH  35  38
ENDBRANCH  31  32
ENDBRANCH  28  31
ENDBRANCH  24  27
ENDBRANCH   1  21
TORSDOF 10
