REMARK  5 active torsions:
REMARK  status: ('A' for Active; 'I' for Inactive)
REMARK    1  A    between atoms: C_2  and  S_1 
REMARK    2  A    between atoms: N_5  and  S_1 
REMARK    3  A    between atoms: C_8  and  C_3 
REMARK    4  A    between atoms: C_4  and  N_5 
REMARK    5  A    between atoms: O_21  and  C_8 
ROOT
ATOM      1  S   UNL d   1       0.886  -0.069   0.114  0.00  0.00     0.247 S 
ATOM      2  O   UNL d   1       0.623  -0.459   1.485  0.00  0.00    -0.205 OA
ATOM      3  O   UNL d   1       0.162  -0.710  -0.963  0.00  0.00    -0.205 OA
ENDROOT
BRANCH   1   4
ATOM      4  C   UNL d   1       2.628  -0.210  -0.175  0.00  0.00     0.098 A 
ATOM      5  C   UNL d   1       3.450  -0.371   0.955  0.00  0.00     0.052 A 
ATOM      6  C   UNL d   1       4.836  -0.457   0.816  0.00  0.00     0.057 A 
ATOM      7 CL   UNL d   1       5.779  -0.620   2.252  0.00  0.00    -0.083 Cl
ATOM      8  C   UNL d   1       5.407  -0.403  -0.457  0.00  0.00     0.057 A 
ATOM      9  C   UNL d   1       4.587  -0.267  -1.582  0.00  0.00     0.051 A 
ATOM     10 CL   UNL d   1       7.113  -0.486  -0.711  0.00  0.00    -0.082 Cl
ATOM     11  C   UNL d   1       3.195  -0.165  -1.448  0.00  0.00     0.058 A 
ATOM     12 CL   UNL d   1       2.304   0.067  -2.905  0.00  0.00    -0.083 Cl
ENDBRANCH   1   4
BRANCH   1  13
ATOM     13  N   UNL d   1       0.626   1.607  -0.028  0.00  0.00    -0.180 NA
ATOM     14  H   UNL d   1      -0.301   1.741  -0.437  0.00  0.00     0.146 HD
BRANCH  13  15
ATOM     15  C   UNL d   1       0.984   2.453   1.043  0.00  0.00     0.046 A 
ATOM     16  C   UNL d   1       2.105   3.265   1.098  0.00  0.00     0.102 A 
ATOM     17  S   UNL d   1       2.249   4.031   2.630  0.00  0.00    -0.094 SA
ATOM     18  C   UNL d   1       0.765   3.389   3.169  0.00  0.00     0.052 A 
ATOM     19  C   UNL d   1       0.187   2.574   2.224  0.00  0.00     0.033 A 
BRANCH  16  20
ATOM     20  C   UNL d   1       3.116   3.553   0.101  0.00  0.00     0.301 C 
ATOM     21  O   UNL d   1       4.263   3.924   0.320  0.00  0.00    -0.259 OA
BRANCH  20  22
ATOM     22  O   UNL d   1       2.595   3.395  -1.151  0.00  0.00    -0.322 OA
ATOM     23  C   UNL d   1       3.459   3.776  -2.223  0.00  0.00     0.213 C 
ENDBRANCH  20  22
ENDBRANCH  16  20
ENDBRANCH  13  15
ENDBRANCH   1  13
TORSDOF 5
