REMARK  5 active torsions:
REMARK  status: ('A' for Active; 'I' for Inactive)
REMARK    1  A    between atoms: C_3  and  C_1 
REMARK    2  A    between atoms: C_2  and  C_3 
REMARK       I    between atoms: N_5  and  C_2 
REMARK    3  A    between atoms: N_6  and  C_4 
REMARK    4  A    between atoms: C_10  and  N_5 
REMARK       I    between atoms: C_7  and  N_6 
REMARK    5  A    between atoms: O_19  and  C_16 
ROOT
ATOM      1  C   UNL d   1       3.039  -2.558  -0.029  0.00  0.00     0.252 C 
ATOM      2  O   UNL d   1       2.420  -3.488   0.458  0.00  0.00    -0.281 OA
ENDROOT
BRANCH   1   3
ATOM      3  C   UNL d   1       4.437  -2.768  -0.594  0.00  0.00     0.297 C 
ATOM      4  N   UNL d   1       4.570  -3.896  -1.382  0.00  0.00    -0.320 N 
ATOM      5  H   UNL d   1       3.899  -4.641  -1.226  0.00  0.00     0.169 HD
ATOM      6  O   UNL d   1       5.296  -1.938  -0.338  0.00  0.00    -0.264 OA
BRANCH   4   7
ATOM      7  C   UNL d   1       5.704  -4.148  -2.179  0.00  0.00     0.037 A 
ATOM      8  C   UNL d   1       6.470  -3.107  -2.729  0.00  0.00     0.066 A 
ATOM      9  C   UNL d   1       7.592  -3.385  -3.511  0.00  0.00     0.070 A 
ATOM     10  C   UNL d   1       7.969  -4.713  -3.708  0.00  0.00     0.037 A 
ATOM     11  C   UNL d   1       7.203  -5.754  -3.180  0.00  0.00     0.005 A 
ATOM     12  C   UNL d   1       6.052  -5.473  -2.442  0.00  0.00     0.029 A 
BRANCH   9  13
ATOM     13  O   UNL d   1       8.394  -2.460  -4.124  0.00  0.00    -0.356 OA
ATOM     14  C   UNL d   1       7.956  -1.106  -4.094  0.00  0.00     0.210 C 
ENDBRANCH   9  13
ENDBRANCH   4   7
ENDBRANCH   1   3
BRANCH   1  15
ATOM     15  C   UNL d   1       2.503  -1.171  -0.103  0.00  0.00     0.048 A 
ATOM     16  C   UNL d   1       1.725  -0.635   0.933  0.00  0.00     0.049 A 
ATOM     17  C   UNL d   1       1.336   0.711   0.854  0.00  0.00     0.032 A 
ATOM     18  C   UNL d   1       1.729   1.514  -0.221  0.00  0.00     0.021 A 
ATOM     19  C   UNL d   1       2.511   0.976  -1.233  0.00  0.00     0.012 A 
ATOM     20  C   UNL d   1       2.894  -0.361  -1.186  0.00  0.00     0.037 A 
ATOM     21 BR   UNL d   1       3.081   2.062  -2.668  0.00  0.00    -0.051 Br
BRANCH  16  22
ATOM     22  N   UNL d   1       1.322  -1.430   2.034  0.00  0.00    -0.327 N 
ATOM     23  C   UNL d   1       1.138  -0.933   3.313  0.00  0.00     0.218 C 
ATOM     24  O   UNL d   1       1.454   0.191   3.690  0.00  0.00    -0.274 OA
ATOM     25  C   UNL d   1       0.462  -1.896   4.248  0.00  0.00     0.117 C 
ATOM     26  H   UNL d   1       1.400  -2.443   1.925  0.00  0.00     0.169 HD
ENDBRANCH  16  22
ENDBRANCH   1  15
TORSDOF 5
