REMARK  8 active torsions:
REMARK  status: ('A' for Active; 'I' for Inactive)
REMARK    1  A    between atoms: C_12  and  C_1 
REMARK    2  A    between atoms: O_15  and  C_3 
REMARK    3  A    between atoms: C_4  and  N_11 
REMARK    4  A    between atoms: N_13  and  C_4 
REMARK    5  A    between atoms: N_11  and  N_6 
REMARK    6  A    between atoms: C_17  and  N_13 
REMARK    7  A    between atoms: C_18  and  C_17 
REMARK    8  A    between atoms: C_19  and  C_18 
ROOT
ATOM      1  N   UNL d   1       0.849   4.373   0.516  0.00  0.00    -0.309 N 
ATOM      2  HN  UNL d   1       1.663   4.143   1.087  1.00  0.00     0.186 HD
ATOM      3  C   UNL d   1      -0.054   3.487   0.240  0.00  0.00     0.121 C 
ENDROOT
BRANCH   1   4
ATOM      4  N   UNL d   1       0.670   5.622   0.014  0.00  0.00    -0.277 N 
ATOM      5  H   UNL d   1      -0.247   5.903  -0.307  0.00  0.00     0.189 HD
BRANCH   4   6
ATOM      6  C   UNL d   1       1.716   6.514  -0.020  0.00  0.00     0.186 C 
ATOM      7  S   UNL d   1       3.341   6.117  -0.034  0.00  0.00    -0.040 SA
BRANCH   6   8
ATOM      8  N   UNL d   1       1.387   7.842  -0.011  0.00  0.00    -0.366 N 
ATOM      9  H   UNL d   1       2.213   8.431  -0.007  0.00  0.00     0.161 HD
BRANCH   8  10
ATOM     10  C   UNL d   1       0.199   8.422   0.595  0.00  0.00     0.122 C 
BRANCH  10  11
ATOM     11  C   UNL d   1       0.113   8.184   2.107  0.00  0.00     0.019 C 
BRANCH  11  12
ATOM     12  C   UNL d   1       1.285   8.791   2.885  0.00  0.00    -0.003 C 
ATOM     13  C   UNL d   1       1.148   8.542   4.380  0.00  0.00     0.005 C 
ENDBRANCH  11  12
ENDBRANCH  10  11
ENDBRANCH   8  10
ENDBRANCH   6   8
ENDBRANCH   4   6
ENDBRANCH   1   4
BRANCH   3  14
ATOM     14  C   UNL d   1       0.027   2.150   0.862  0.00  0.00     0.017 A 
ATOM     15  C   UNL d   1      -0.770   1.095   0.413  0.00  0.00     0.099 A 
ATOM     16  C   UNL d   1      -0.676  -0.154   1.040  0.00  0.00     0.069 A 
ATOM     17 CL   UNL d   1      -1.642  -1.476   0.494  0.00  0.00    -0.081 Cl
ATOM     18  C   UNL d   1       0.191  -0.349   2.114  0.00  0.00     0.050 A 
ATOM     19  C   UNL d   1       0.976   0.710   2.561  0.00  0.00     0.036 A 
ATOM     20  C   UNL d   1       0.905   1.953   1.940  0.00  0.00     0.039 A 
ATOM     21 CL   UNL d   1       2.033   0.484   3.900  0.00  0.00    -0.084 Cl
BRANCH  15  22
ATOM     22  O   UNL d   1      -1.629   1.289  -0.636  0.00  0.00    -0.358 OA
ATOM     23  H   UNL d   1      -2.061   0.433  -0.827  0.00  0.00     0.217 HD
ENDBRANCH  15  22
ENDBRANCH   3  14
TORSDOF 8
