REMARK  4 active torsions:
REMARK  status: ('A' for Active; 'I' for Inactive)
REMARK    1  A    between atoms: C_2  and  C_1 
REMARK       I    between atoms: N_9  and  C_2 
REMARK    2  A    between atoms: C_8  and  C_3 
REMARK    3  A    between atoms: O_13  and  C_8 
REMARK    4  A    between atoms: C_12  and  N_9 
ROOT
ATOM      1  C   UNL d   1       0.360   1.329  -0.068  0.00  0.00     0.096 C 
ATOM      2  C   UNL d   1       1.495   0.304   0.101  0.00  0.00     0.101 C 
ATOM      3  C   UNL d   1      -1.293  -0.670   0.215  0.00  0.00    -0.081 C 
ATOM      4  C   UNL d   1      -0.299  -1.567   0.065  0.00  0.00    -0.081 C 
ATOM      5  C   UNL d   1      -1.066   0.821   0.196  0.00  0.00     0.049 C 
ATOM      6  C   UNL d   1       1.135  -1.161  -0.143  0.00  0.00     0.050 C 
ATOM      7  C   UNL d   1      -2.736  -1.071   0.408  0.00  0.00     0.043 C 
ATOM      8  C   UNL d   1      -0.503  -3.063   0.049  0.00  0.00     0.043 C 
ENDROOT
BRANCH   1   9
ATOM      9  C   UNL d   1       0.433   1.956  -1.460  0.00  0.00     0.227 C 
ATOM     10  N   UNL d   1       0.010   3.277  -1.478  0.00  0.00    -0.327 N 
ATOM     11  H   UNL d   1      -0.234   3.699  -0.589  0.00  0.00     0.169 HD
ATOM     12  O   UNL d   1       0.825   1.306  -2.424  0.00  0.00    -0.273 OA
BRANCH  10  13
ATOM     13  C   UNL d   1      -0.086   4.128  -2.601  0.00  0.00     0.034 A 
ATOM     14  C   UNL d   1       0.162   3.712  -3.910  0.00  0.00     0.031 A 
ATOM     15  C   UNL d   1       0.000   4.595  -4.983  0.00  0.00     0.020 A 
ATOM     16  C   UNL d   1      -0.406   5.906  -4.751  0.00  0.00     0.006 A 
ATOM     17  C   UNL d   1      -0.636   6.345  -3.449  0.00  0.00     0.020 A 
ATOM     18  I   UNL d   1      -0.689   7.198  -6.352  0.00  0.00    -0.045 I 
ATOM     19  C   UNL d   1      -0.475   5.457  -2.378  0.00  0.00     0.031 A 
ENDBRANCH  10  13
ENDBRANCH   1   9
BRANCH   2  20
ATOM     20  C   UNL d   1       2.156   0.454   1.455  0.00  0.00     0.144 C 
ATOM     21  O   UNL d   1       1.603   0.875   2.462  0.00  0.00    -0.650 OA
BRANCH  20  22
ATOM     22  O   UNL d   1       3.461   0.090   1.452  0.00  0.00    -0.776 OA
ATOM     23  H   UNL d   1       3.796  -0.223   0.588  0.00  0.00     0.167 HD
ENDBRANCH  20  22
ENDBRANCH   2  20
TORSDOF 4
