REMARK  8 active torsions:
REMARK  status: ('A' for Active; 'I' for Inactive)
REMARK    1  A    between atoms: N_4  and  S_1 
REMARK    2  A    between atoms: C_12  and  S_1 
REMARK    3  A    between atoms: C_7  and  C_2 
REMARK    4  A    between atoms: C_3  and  O_8 
REMARK    5  A    between atoms: C_5  and  N_4 
REMARK    6  A    between atoms: C_6  and  C_11 
REMARK    7  A    between atoms: O_26  and  C_7 
REMARK    8  A    between atoms: O_8  and  C_10 
ROOT
ATOM      1  C   UNL d   1       1.000   2.067   1.823  0.00  0.00     0.057 A 
ATOM      2  C   UNL d   1       2.284   2.000   2.389  0.00  0.00     0.098 A 
ATOM      3  C   UNL d   1       0.266   3.492   3.659  0.00  0.00     0.049 A 
ATOM      4  C   UNL d   1      -0.010   2.793   2.468  0.00  0.00     0.043 A 
ATOM      5  C   UNL d   1       2.562   2.709   3.561  0.00  0.00     0.040 A 
ATOM      6  C   UNL d   1       1.560   3.437   4.198  0.00  0.00     0.019 A 
ENDROOT
BRANCH   1   7
ATOM      7  N   UNL d   1       0.748   1.429   0.561  0.00  0.00    -0.179 NA
ATOM      8  H   UNL d   1       0.249   2.050  -0.080  0.00  0.00     0.146 HD
BRANCH   7   9
ATOM      9  S   UNL d   1      -0.110  -0.035   0.553  0.00  0.00     0.245 S 
ATOM     10  O   UNL d   1       0.071  -0.615  -0.761  0.00  0.00    -0.206 OA
ATOM     11  O   UNL d   1      -1.444   0.262   1.042  0.00  0.00    -0.206 OA
BRANCH   9  12
ATOM     12  C   UNL d   1       0.700  -1.073   1.737  0.00  0.00     0.074 A 
ATOM     13  C   UNL d   1       0.140  -1.226   3.008  0.00  0.00     0.025 A 
ATOM     14  C   UNL d   1       0.744  -2.078   3.933  0.00  0.00     0.008 A 
ATOM     15  C   UNL d   1       1.903  -2.788   3.589  0.00  0.00    -0.062 A 
ATOM     16  C   UNL d   1       2.437  -2.652   2.300  0.00  0.00     0.008 A 
ATOM     17  C   UNL d   1       2.555  -3.673   4.610  0.00  0.00     0.048 C 
ATOM     18  C   UNL d   1       1.836  -1.797   1.370  0.00  0.00     0.025 A 
ENDBRANCH   9  12
ENDBRANCH   7   9
ENDBRANCH   1   7
BRANCH   2  19
ATOM     19  O   UNL d   1       3.274   1.318   1.711  0.00  0.00    -0.307 OA
BRANCH  19  20
ATOM     20  C   UNL d   1       4.257   0.648   2.369  0.00  0.00     0.099 A 
ATOM     21  C   UNL d   1       5.527   0.502   1.837  0.00  0.00     0.114 A 
ATOM     22  S   UNL d   1       6.546  -0.365   2.926  0.00  0.00    -0.093 SA
ATOM     23  C   UNL d   1       5.291  -0.592   4.054  0.00  0.00     0.053 A 
ATOM     24  C   UNL d   1       4.119  -0.009   3.633  0.00  0.00     0.046 A 
BRANCH  21  25
ATOM     25  C   UNL d   1       6.113   0.954   0.589  0.00  0.00     0.302 C 
ATOM     26  O   UNL d   1       7.307   0.922   0.305  0.00  0.00    -0.259 OA
BRANCH  25  27
ATOM     27  O   UNL d   1       5.154   1.412  -0.267  0.00  0.00    -0.322 OA
ATOM     28  C   UNL d   1       5.665   1.820  -1.537  0.00  0.00     0.213 C 
ENDBRANCH  25  27
ENDBRANCH  21  25
ENDBRANCH  19  20
ENDBRANCH   2  19
BRANCH   3  29
ATOM     29  C   UNL d   1      -0.775   4.343   4.347  0.00  0.00     0.417 C 
ATOM     30  F   UNL d   1      -1.981   4.349   3.721  0.00  0.00    -0.166 F 
ATOM     31  F   UNL d   1      -1.012   3.939   5.626  0.00  0.00    -0.166 F 
ATOM     32  F   UNL d   1      -0.391   5.647   4.435  0.00  0.00    -0.166 F 
ENDBRANCH   3  29
TORSDOF 8
