REMARK  4 active torsions:
REMARK  status: ('A' for Active; 'I' for Inactive)
REMARK    1  A    between atoms: C_11  and  C_1 
REMARK    2  A    between atoms: N_17  and  C_8 
REMARK    3  A    between atoms: N_16  and  C_9 
REMARK    4  A    between atoms: C_10  and  C_12 
ROOT
ATOM      1  C   UNL d   1       0.038   1.597  -0.043  0.00  0.00     0.120 A 
ATOM      2  N   UNL d   1      -1.037   0.917   0.346  0.00  0.00    -0.318 N 
ATOM      3  HN  UNL d   1      -1.879   1.372   0.699  1.00  0.00     0.170 HD
ATOM      4  N   UNL d   1       1.141   1.050  -0.566  0.00  0.00    -0.318 N 
ATOM      5  HN  UNL d   1       1.929   1.608  -0.894  1.00  0.00     0.170 HD
ATOM      6  N   UNL d   1       0.131  -1.039  -0.235  0.00  0.00    -0.309 N 
ATOM      7  HN  UNL d   1       0.170  -2.057  -0.295  1.00  0.00     0.171 HD
ATOM      8  C   UNL d   1       1.128  -0.268  -0.625  0.00  0.00     0.158 A 
ATOM      9  C   UNL d   1      -0.926  -0.397   0.239  0.00  0.00     0.158 A 
ENDROOT
BRANCH   1  10
ATOM     10  C   UNL d   1       0.022   3.061   0.097  0.00  0.00     0.023 A 
ATOM     11  C   UNL d   1      -0.532   3.744   1.208  0.00  0.00     0.061 A 
ATOM     12  C   UNL d   1      -0.520   5.159   1.229  0.00  0.00     0.017 A 
ATOM     13  C   UNL d   1       0.054   5.898   0.198  0.00  0.00     0.001 A 
ATOM     14  C   UNL d   1       0.623   5.239  -0.882  0.00  0.00     0.001 A 
ATOM     15  C   UNL d   1       0.603   3.844  -0.930  0.00  0.00     0.016 A 
BRANCH  11  16
ATOM     16  C   UNL d   1      -1.151   3.050   2.405  0.00  0.00     0.418 C 
ATOM     17  F   UNL d   1      -0.673   1.808   2.687  0.00  0.00    -0.166 F 
ATOM     18  F   UNL d   1      -0.943   3.756   3.559  0.00  0.00    -0.166 F 
ATOM     19  F   UNL d   1      -2.503   2.936   2.299  0.00  0.00    -0.166 F 
ENDBRANCH  11  16
ENDBRANCH   1  10
BRANCH   9  20
ATOM     20  N   UNL d   1      -1.969  -1.161   0.726  0.00  0.00    -0.274 NA
ATOM     21  H   UNL d   1      -2.475  -0.633   1.426  0.00  0.00     0.127 HD
ATOM     22  H   UNL d   1      -1.616  -2.063   1.016  0.00  0.00     0.127 HD
ENDBRANCH   9  20
BRANCH   8  23
ATOM     23  N   UNL d   1       2.244  -0.888  -1.153  0.00  0.00    -0.274 NA
ATOM     24  H   UNL d   1       2.003  -1.797  -1.517  0.00  0.00     0.127 HD
ATOM     25  H   UNL d   1       2.743  -0.259  -1.771  0.00  0.00     0.127 HD
ENDBRANCH   8  23
TORSDOF 4
