REMARK  5 active torsions:
REMARK  status: ('A' for Active; 'I' for Inactive)
REMARK    1  A    between atoms: C_8  and  N_1 
REMARK    2  A    between atoms: S_6  and  C_4 
REMARK    3  A    between atoms: C_9  and  S_6 
REMARK    4  A    between atoms: C_7  and  C_9 
REMARK    5  A    between atoms: O_13  and  C_7 
ROOT
ATOM      1  N   UNL d   1       0.021   0.926  -0.045  0.00  0.00    -0.251 N 
ATOM      2  C   UNL d   1      -1.136   0.201   0.119  0.00  0.00     0.232 C 
ATOM      3  C   UNL d   1       1.118   0.102  -0.116  0.00  0.00     0.245 C 
ATOM      4  C   UNL d   1       0.667  -1.334  -0.196  0.00  0.00     0.149 C 
ATOM      5  C   UNL d   1      -0.830  -1.264   0.025  0.00  0.00     0.128 C 
ATOM      6  O   UNL d   1      -2.277   0.604   0.309  0.00  0.00    -0.273 OA
ATOM      7  O   UNL d   1       2.312   0.397  -0.060  0.00  0.00    -0.271 OA
ENDROOT
BRANCH   4   8
ATOM      8  S   UNL d   1       1.086  -2.058  -1.826  0.00  0.00    -0.139 SA
BRANCH   8   9
ATOM      9  C   UNL d   1       2.923  -1.908  -1.865  0.00  0.00     0.141 C 
ATOM     10  C   UNL d   1       3.434  -2.521  -3.165  0.00  0.00     0.032 C 
BRANCH   9  11
ATOM     11  C   UNL d   1       3.568  -2.594  -0.667  0.00  0.00     0.153 C 
ATOM     12  O   UNL d   1       3.852  -3.782  -0.611  0.00  0.00    -0.649 OA
BRANCH  11  13
ATOM     13  O   UNL d   1       3.787  -1.763   0.383  0.00  0.00    -0.776 OA
ATOM     14  H   UNL d   1       3.521  -0.824   0.235  0.00  0.00     0.167 HD
ENDBRANCH  11  13
ENDBRANCH   9  11
ENDBRANCH   8   9
ENDBRANCH   4   8
BRANCH   1  15
ATOM     15  C   UNL d   1       0.090   2.350  -0.077  0.00  0.00     0.045 A 
ATOM     16  C   UNL d   1      -0.898   3.152   0.513  0.00  0.00     0.030 A 
ATOM     17  C   UNL d   1      -0.823   4.550   0.465  0.00  0.00     0.002 A 
ATOM     18  C   UNL d   1       0.231   5.173  -0.195  0.00  0.00     0.000 A 
ATOM     19  C   UNL d   1       1.213   4.398  -0.802  0.00  0.00     0.002 A 
ATOM     20  C   UNL d   1       1.147   3.002  -0.736  0.00  0.00     0.030 A 
ENDBRANCH   1  15
TORSDOF 5
