REMARK  7 active torsions:
REMARK  status: ('A' for Active; 'I' for Inactive)
REMARK    1  A    between atoms: N_2  and  S_1 
REMARK    2  A    between atoms: C_9  and  S_1 
REMARK    3  A    between atoms: C_3  and  N_2 
REMARK       I    between atoms: C_7  and  N_11 
REMARK    4  A    between atoms: C_10  and  C_7 
REMARK    5  A    between atoms: N_11  and  C_23 
REMARK    6  A    between atoms: O_26  and  C_16 
REMARK    7  A    between atoms: O_27  and  C_17 
ROOT
ATOM      1  C   UNL d   1       0.624   1.444  -0.697  0.00  0.00     0.075 A 
ATOM      2  C   UNL d   1      -0.436   1.473  -1.606  0.00  0.00     0.027 A 
ATOM      3  C   UNL d   1       1.218   2.626  -0.264  0.00  0.00     0.027 A 
ATOM      4  C   UNL d   1      -0.302   3.901  -1.667  0.00  0.00     0.035 A 
ATOM      5  C   UNL d   1      -0.892   2.701  -2.090  0.00  0.00     0.031 A 
ATOM      6  C   UNL d   1       0.758   3.850  -0.757  0.00  0.00     0.031 A 
ENDROOT
BRANCH   4   7
ATOM      7  N   UNL d   1      -0.854   5.099  -2.164  0.00  0.00    -0.323 N 
ATOM      8  C   UNL d   1      -0.457   6.391  -1.861  0.00  0.00     0.256 C 
ATOM      9  O   UNL d   1       0.500   6.718  -1.169  0.00  0.00    -0.267 OA
ATOM     10  H   UNL d   1      -1.687   4.988  -2.726  0.00  0.00     0.169 HD
BRANCH   8  11
ATOM     11  C   UNL d   1      -1.339   7.471  -2.392  0.00  0.00     0.035 A 
ATOM     12  C   UNL d   1      -1.463   8.646  -1.633  0.00  0.00     0.056 A 
ATOM     13  C   UNL d   1      -2.349   9.668  -2.008  0.00  0.00     0.102 A 
ATOM     14  C   UNL d   1      -3.102   9.509  -3.186  0.00  0.00     0.101 A 
ATOM     15  C   UNL d   1      -2.927   8.356  -3.969  0.00  0.00     0.040 A 
ATOM     16  C   UNL d   1      -2.052   7.341  -3.583  0.00  0.00     0.020 A 
BRANCH  13  17
ATOM     17  O   UNL d   1      -2.514  10.813  -1.278  0.00  0.00    -0.353 OA
ATOM     18  C   UNL d   1      -1.811  10.944  -0.048  0.00  0.00     0.210 C 
ENDBRANCH  13  17
BRANCH  14  19
ATOM     19  O   UNL d   1      -4.034  10.354  -3.729  0.00  0.00    -0.353 OA
ATOM     20  C   UNL d   1      -4.437  11.498  -2.992  0.00  0.00     0.210 C 
ENDBRANCH  14  19
ENDBRANCH   8  11
ENDBRANCH   4   7
BRANCH   1  21
ATOM     21  S   UNL d   1       1.158  -0.112  -0.026  0.00  0.00     0.247 S 
ATOM     22  O   UNL d   1       1.750   0.154   1.272  0.00  0.00    -0.205 OA
ATOM     23  O   UNL d   1       0.060  -1.042  -0.183  0.00  0.00    -0.205 OA
BRANCH  21  24
ATOM     24  N   UNL d   1       2.434  -0.506  -1.060  0.00  0.00    -0.165 NA
ATOM     25  H   UNL d   1       3.264  -0.556  -0.469  0.00  0.00     0.147 HD
BRANCH  24  26
ATOM     26  C   UNL d   1       2.284  -1.663  -1.814  0.00  0.00     0.117 A 
ATOM     27  N   UNL d   1       2.902  -2.794  -1.475  0.00  0.00    -0.249 N 
ATOM     28  O   UNL d   1       2.488  -3.731  -2.409  0.00  0.00    -0.241 OA
ATOM     29  HN  UNL d   1       3.544  -2.939  -0.696  1.00  0.00     0.196 HD
ATOM     30  C   UNL d   1       1.689  -3.126  -3.330  0.00  0.00     0.075 A 
ATOM     31  C   UNL d   1       1.554  -1.797  -3.009  0.00  0.00     0.079 A 
ATOM     32  C   UNL d   1       1.167  -3.983  -4.407  0.00  0.00     0.079 C 
ENDBRANCH  24  26
ENDBRANCH  21  24
ENDBRANCH   1  21
TORSDOF 7
