REMARK  4 active torsions:
REMARK  status: ('A' for Active; 'I' for Inactive)
REMARK    1  A    between atoms: C_9  and  C_3 
REMARK    2  A    between atoms: C_11  and  C_4 
REMARK    3  A    between atoms: C_10  and  O_12 
REMARK    4  A    between atoms: O_12  and  C_15 
ROOT
ATOM      1  N   UNL d   1      -1.036  -2.386  -3.345  0.00  0.00    -0.197 NA
ATOM      2  C   UNL d   1      -0.653  -2.416  -2.247  0.00  0.00     0.065 C 
ATOM      3  C   UNL d   1      -0.185  -2.481  -0.856  0.00  0.00     0.188 C 
ENDROOT
BRANCH   3   4
ATOM      4  C   UNL d   1       0.142  -1.106  -0.363  0.00  0.00     0.064 A 
ATOM      5  N   UNL d   1       1.325  -0.532  -0.469  0.00  0.00    -0.352 N 
ATOM      6  C   UNL d   1       1.280   0.760   0.040  0.00  0.00     0.049 A 
ATOM      7  HN  UNL d   1       2.154  -0.973  -0.867  1.00  0.00     0.166 HD
ATOM      8  C   UNL d   1       0.050   1.136   0.546  0.00  0.00     0.081 A 
ATOM      9  S   UNL d   1      -1.069  -0.153   0.407  0.00  0.00    -0.085 SA
BRANCH   6  10
ATOM     10  C   UNL d   1       2.436   1.651  -0.020  0.00  0.00    -0.009 A 
ATOM     11  C   UNL d   1       3.352   1.537  -1.074  0.00  0.00     0.016 A 
ATOM     12  C   UNL d   1       4.446   2.410  -1.179  0.00  0.00     0.038 A 
ATOM     13  C   UNL d   1       4.646   3.394  -0.211  0.00  0.00     0.074 A 
ATOM     14  C   UNL d   1       3.736   3.517   0.840  0.00  0.00     0.038 A 
ATOM     15  C   UNL d   1       2.645   2.648   0.942  0.00  0.00     0.016 A 
BRANCH  13  16
ATOM     16  O   UNL d   1       5.662   4.307  -0.201  0.00  0.00    -0.290 OA
BRANCH  16  17
ATOM     17  C   UNL d   1       6.863   3.895  -0.831  0.00  0.00     0.505 C 
ATOM     18  F   UNL d   1       6.773   4.155  -2.158  0.00  0.00    -0.184 F 
ATOM     19  F   UNL d   1       7.860   4.677  -0.346  0.00  0.00    -0.184 F 
ENDBRANCH  16  17
ENDBRANCH  13  16
ENDBRANCH   6  10
ENDBRANCH   3   4
TORSDOF 4
