REMARK  1 active torsions:
REMARK  status: ('A' for Active; 'I' for Inactive)
REMARK    1  A    between atoms: C_7  and  C_3 
ROOT
ATOM      1  C   UNL d   1       0.812  -0.819  -0.003  0.00  0.00     0.035 C 
ATOM      2  C   UNL d   1       0.591   0.494   0.262  0.00  0.00     0.022 C 
ATOM      3  C   UNL d   1      -0.228  -1.894  -0.288  0.00  0.00     0.156 C 
ATOM      4  N   UNL d   1      -1.484  -1.691   0.447  0.00  0.00    -0.276 NA
ATOM      5  C   UNL d   1       2.244  -1.245  -0.190  0.00  0.00     0.160 C 
ATOM      6  N   UNL d   1      -0.627   1.148   0.281  0.00  0.00    -0.357 N 
ATOM      7  C   UNL d   1      -2.334  -0.644   0.112  0.00  0.00     0.036 A 
ATOM      8  C   UNL d   1      -1.941   0.698   0.068  0.00  0.00     0.053 A 
ATOM      9  C   UNL d   1       1.744   1.481   0.507  0.00  0.00     0.067 C 
ATOM     10  C   UNL d   1       3.125   1.058  -0.016  0.00  0.00    -0.036 C 
ATOM     11  C   UNL d   1       3.339  -0.393   0.404  0.00  0.00     0.092 C 
ATOM     12  O   UNL d   1       2.542  -2.220  -0.884  0.00  0.00    -0.293 OA
ATOM     13  C   UNL d   1       4.213   1.951   0.604  0.00  0.00     0.015 C 
ATOM     14  C   UNL d   1       3.202   1.210  -1.550  0.00  0.00     0.015 C 
ATOM     15  C   UNL d   1      -3.703  -0.954   0.019  0.00  0.00     0.026 A 
ATOM     16  C   UNL d   1      -2.921   1.680  -0.201  0.00  0.00     0.031 A 
ATOM     17  C   UNL d   1      -4.663   0.027  -0.223  0.00  0.00     0.002 A 
ATOM     18  C   UNL d   1      -4.267   1.349  -0.354  0.00  0.00     0.002 A 
ATOM     19  H   UNL d   1      -1.320  -1.731   1.449  0.00  0.00     0.129 HD
ATOM     20  H   UNL d   1      -0.573   2.154   0.410  0.00  0.00     0.166 HD
ENDROOT
BRANCH   3  21
ATOM     21  C   UNL d   1       0.178  -3.327   0.002  0.00  0.00     0.075 A 
ATOM     22  O   UNL d   1       0.526  -3.631   1.292  0.00  0.00    -0.325 OA
ATOM     23  C   UNL d   1       0.787  -4.963   1.324  0.00  0.00     0.142 A 
ATOM     24  C   UNL d   1       0.605  -5.524   0.081  0.00  0.00     0.027 A 
ATOM     25  C   UNL d   1       0.211  -4.469  -0.774  0.00  0.00     0.036 A 
ENDBRANCH   3  21
TORSDOF 1
