REMARK  3 active torsions:
REMARK  status: ('A' for Active; 'I' for Inactive)
REMARK    1  A    between atoms: C_4  and  C_1 
REMARK    2  A    between atoms: O_13  and  C_4 
REMARK    3  A    between atoms: N_10  and  O_13 
ROOT
ATOM      1  C   UNL d   1       2.853  -5.350   0.041  0.00  0.00     0.008 A 
ATOM      2  N   UNL d   1       2.005  -3.095   0.055  0.00  0.00    -0.261 N 
ATOM      3  HN  UNL d   1       1.056  -3.466   0.107  1.00  0.00     0.194 HD
ATOM      4  C   UNL d   1       3.056  -3.862   0.011  0.00  0.00     0.045 C 
ATOM      5  C   UNL d   1       3.885  -6.251  -0.280  0.00  0.00     0.013 A 
ATOM      6  S   UNL d   1       5.535  -5.772  -0.759  0.00  0.00    -0.129 SA
ATOM      7  C   UNL d   1       1.591  -5.848   0.403  0.00  0.00     0.057 A 
ATOM      8  C   UNL d   1       3.634  -7.635  -0.227  0.00  0.00     0.022 A 
ATOM      9  C   UNL d   1       1.369  -7.221   0.448  0.00  0.00     0.117 A 
ATOM     10  C   UNL d   1       4.483  -3.353  -0.045  0.00  0.00     0.070 C 
ATOM     11  C   UNL d   1       5.245  -4.033  -1.164  0.00  0.00     0.085 C 
ATOM     12  C   UNL d   1       2.378  -8.119   0.134  0.00  0.00     0.043 A 
ATOM     13  F   UNL d   1       0.164  -7.685   0.803  0.00  0.00    -0.206 F 
ENDROOT
BRANCH   2  14
ATOM     14  O   UNL d   1       2.282  -1.710   0.027  0.00  0.00    -0.194 OA
BRANCH  14  15
ATOM     15  C   UNL d   1       1.091  -1.002   0.056  0.00  0.00     0.325 C 
ATOM     16  O   UNL d   1      -0.021  -1.523   0.116  0.00  0.00    -0.257 OA
BRANCH  15  17
ATOM     17  C   UNL d   1       1.299   0.426   0.005  0.00  0.00     0.123 A 
ATOM     18  C   UNL d   1       0.367   1.466   0.016  0.00  0.00     0.047 A 
ATOM     19  N   UNL d   1       0.924   2.741  -0.050  0.00  0.00    -0.298 N 
ATOM     20  C   UNL d   1      -1.117   1.393   0.087  0.00  0.00     0.071 C 
ATOM     21  N   UNL d   1       2.241   2.706  -0.109  0.00  0.00    -0.269 N 
ATOM     22  HN  UNL d   1       0.376   3.602  -0.051  1.00  0.00     0.187 HD
ATOM     23  S   UNL d   1       2.848   1.152  -0.089  0.00  0.00     0.010 SA
ATOM     24  HN  UNL d   1       2.827   3.540  -0.162  1.00  0.00     0.195 HD
ENDBRANCH  15  17
ENDBRANCH  14  15
ENDBRANCH   2  14
TORSDOF 3
