REMARK  3 active torsions:
REMARK  status: ('A' for Active; 'I' for Inactive)
REMARK    1  A    between atoms: N_6  and  C_1 
REMARK    2  A    between atoms: N_3  and  C_2 
REMARK       I    between atoms: C_10  and  N_6 
REMARK    3  A    between atoms: C_8  and  C_10 
ROOT
ATOM      1  N   UNL d   1      -3.330  -1.147   0.170  0.00  0.00    -0.301 N 
ATOM      2  C   UNL d   1      -4.426  -0.328   0.018  0.00  0.00     0.281 C 
ATOM      3  O   UNL d   1      -4.402   0.892  -0.104  0.00  0.00    -0.265 OA
ATOM      4  H   UNL d   1      -3.480  -2.129   0.365  0.00  0.00     0.171 HD
ENDROOT
BRANCH   1   5
ATOM      5  C   UNL d   1      -2.011  -0.767   0.168  0.00  0.00     0.152 A 
ATOM      6  N   UNL d   1      -1.061  -1.609   0.497  0.00  0.00    -0.335 N 
ATOM      7  C   UNL d   1       0.175  -0.987   0.383  0.00  0.00     0.051 A 
ATOM      8  HN  UNL d   1      -1.208  -2.574   0.791  1.00  0.00     0.168 HD
ATOM      9  C   UNL d   1       1.429  -1.563   0.673  0.00  0.00     0.031 A 
ATOM     10  C   UNL d   1       0.137   0.331  -0.075  0.00  0.00     0.035 A 
ATOM     11  C   UNL d   1       2.599  -0.821   0.475  0.00  0.00     0.002 A 
ATOM     12  C   UNL d   1       2.535   0.484  -0.004  0.00  0.00     0.002 A 
ATOM     13  C   UNL d   1       1.304   1.085  -0.281  0.00  0.00     0.021 A 
ATOM     14  S   UNL d   1      -1.503   0.785  -0.310  0.00  0.00    -0.052 SA
ENDBRANCH   1   5
BRANCH   2  15
ATOM     15  C   UNL d   1      -5.691  -1.044   0.049  0.00  0.00     0.146 A 
ATOM     16  O   UNL d   1      -5.711  -2.418   0.066  0.00  0.00    -0.283 OA
ATOM     17  C   UNL d   1      -7.026  -2.777   0.075  0.00  0.00     0.215 A 
ATOM     18  C   UNL d   1      -7.855  -1.682   0.082  0.00  0.00     0.066 A 
ATOM     19  C   UNL d   1      -6.990  -0.560   0.058  0.00  0.00     0.047 A 
BRANCH  17  20
ATOM     20  N   UNL d   1      -7.309  -4.178   0.077  0.00  0.00    -0.090 N 
ATOM     21  O   UNL d   1      -8.504  -4.496   0.148  0.00  0.00    -0.530 OA
ATOM     22  O   UNL d   1      -6.351  -4.958   0.006  0.00  0.00    -0.530 OA
ENDBRANCH  17  20
ENDBRANCH   2  15
TORSDOF 3
