REMARK  6 active torsions:
REMARK  status: ('A' for Active; 'I' for Inactive)
REMARK    1  A    between atoms: C_10  and  N_1 
REMARK    2  A    between atoms: C_11  and  C_4 
REMARK    3  A    between atoms: C_8  and  C_13 
REMARK    4  A    between atoms: C_9  and  C_12 
REMARK    5  A    between atoms: C_14  and  C_10 
REMARK    6  A    between atoms: C_18  and  C_14 
ROOT
ATOM      1  N   UNL d   1      -0.288  -1.045  -0.241  0.00  0.00    -0.209 N 
ATOM      2  N   UNL d   1       0.701  -0.386  -0.882  0.00  0.00    -0.268 N 
ATOM      3  HN  UNL d   1       1.280  -0.683  -1.668  1.00  0.00     0.190 HD
ATOM      4  C   UNL d   1       0.709   0.769  -0.195  0.00  0.00     0.144 A 
ATOM      5  N   UNL d   1      -0.287   0.831   0.747  0.00  0.00    -0.266 N 
ATOM      6  HN  UNL d   1      -0.499   1.621   1.356  1.00  0.00     0.186 HD
ATOM      7  N   UNL d   1      -0.919  -0.333   0.711  0.00  0.00    -0.002 NA
ENDROOT
BRANCH   4   8
ATOM      8  C   UNL d   1       1.781   1.751  -0.295  0.00  0.00     0.012 A 
ATOM      9  C   UNL d   1       2.563   1.828  -1.456  0.00  0.00     0.031 A 
ATOM     10  C   UNL d   1       3.698   2.651  -1.508  0.00  0.00     0.049 A 
ATOM     11  C   UNL d   1       4.040   3.406  -0.378  0.00  0.00     0.032 A 
ATOM     12  C   UNL d   1       3.258   3.365   0.788  0.00  0.00     0.049 A 
ATOM     13  C   UNL d   1       2.121   2.540   0.814  0.00  0.00     0.031 A 
BRANCH  10  14
ATOM     14  C   UNL d   1       4.574   2.685  -2.740  0.00  0.00     0.417 C 
ATOM     15  F   UNL d   1       4.062   1.989  -3.792  0.00  0.00    -0.166 F 
ATOM     16  F   UNL d   1       4.780   3.954  -3.194  0.00  0.00    -0.166 F 
ATOM     17  F   UNL d   1       5.808   2.164  -2.507  0.00  0.00    -0.166 F 
ENDBRANCH  10  14
BRANCH  12  18
ATOM     18  C   UNL d   1       3.678   4.156   2.006  0.00  0.00     0.417 C 
ATOM     19  F   UNL d   1       2.804   4.066   3.045  0.00  0.00    -0.166 F 
ATOM     20  F   UNL d   1       4.882   3.745   2.492  0.00  0.00    -0.166 F 
ATOM     21  F   UNL d   1       3.814   5.483   1.740  0.00  0.00    -0.166 F 
ENDBRANCH  12  18
ENDBRANCH   4   8
BRANCH   1  22
ATOM     22  C   UNL d   1      -0.302  -2.489  -0.226  0.00  0.00     0.246 C 
BRANCH  22  23
ATOM     23  C   UNL d   1      -1.492  -3.044  -0.956  0.00  0.00     0.155 C 
ATOM     24  O   UNL d   1      -2.587  -3.099  -0.389  0.00  0.00    -0.295 OA
BRANCH  23  25
ATOM     25  C   UNL d   1      -1.307  -3.635  -2.372  0.00  0.00     0.011 C 
ATOM     26  C   UNL d   1      -0.701  -5.037  -2.236  0.00  0.00     0.022 C 
ATOM     27  C   UNL d   1      -2.688  -3.745  -3.043  0.00  0.00     0.022 C 
ATOM     28  C   UNL d   1      -0.411  -2.764  -3.262  0.00  0.00     0.022 C 
ENDBRANCH  23  25
ENDBRANCH  22  23
ENDBRANCH   1  22
TORSDOF 6
