REMARK  10 active torsions:
REMARK  status: ('A' for Active; 'I' for Inactive)
REMARK    1  A    between atoms: N_2  and  C_1 
REMARK    2  A    between atoms: C_4  and  C_1 
REMARK    3  A    between atoms: C_5  and  C_1 
REMARK    4  A    between atoms: O_7  and  C_1 
REMARK       I    between atoms: C_3  and  N_2 
REMARK    5  A    between atoms: C_6  and  C_3 
REMARK    6  A    between atoms: C_16  and  O_7 
REMARK    7  A    between atoms: O_20  and  C_9 
REMARK    8  A    between atoms: C_17  and  C_16 
REMARK    9  A    between atoms: O_25  and  C_18 
REMARK   10  A    between atoms: C_27  and  O_20 
ROOT
ATOM      1  C   UNL d   1       0.846   0.571  -0.036  0.00  0.00     0.337 C 
ENDROOT
BRANCH   1   2
ATOM      2  N   UNL d   1       0.594  -0.763  -0.664  0.00  0.00    -0.310 N 
ATOM      3  C   UNL d   1      -0.662  -1.334  -0.731  0.00  0.00     0.257 C 
ATOM      4  O   UNL d   1      -1.624  -0.736  -0.270  0.00  0.00    -0.267 OA
ATOM      5  H   UNL d   1       1.397  -1.163  -1.117  0.00  0.00     0.166 HD
BRANCH   3   6
ATOM      6  C   UNL d   1      -0.801  -2.706  -1.343  0.00  0.00     0.065 A 
ATOM      7  C   UNL d   1      -2.081  -3.260  -1.604  0.00  0.00     0.084 A 
ATOM      8  C   UNL d   1      -2.174  -4.570  -2.099  0.00  0.00     0.038 A 
ATOM      9  C   UNL d   1      -1.030  -5.316  -2.365  0.00  0.00     0.003 A 
ATOM     10  C   UNL d   1       0.226  -4.773  -2.137  0.00  0.00     0.001 A 
ATOM     11  C   UNL d   1       0.342  -3.481  -1.620  0.00  0.00     0.020 A 
BRANCH   7  12
ATOM     12  O   UNL d   1      -3.176  -2.476  -1.363  0.00  0.00    -0.350 OA
BRANCH  12  13
ATOM     13  C   UNL d   1      -4.489  -2.918  -1.696  0.00  0.00     0.171 C 
ATOM     14  C   UNL d   1      -4.778  -2.723  -3.175  0.00  0.00     0.034 C 
ENDBRANCH  12  13
ENDBRANCH   7  12
ENDBRANCH   3   6
ENDBRANCH   1   2
BRANCH   1  15
ATOM     15  C   UNL d   1       0.296   0.707   1.419  0.00  0.00     0.447 C 
ATOM     16  F   UNL d   1      -1.042   0.694   1.552  0.00  0.00    -0.166 F 
ATOM     17  F   UNL d   1       0.793  -0.288   2.202  0.00  0.00    -0.166 F 
ATOM     18  F   UNL d   1       0.700   1.868   2.004  0.00  0.00    -0.166 F 
ENDBRANCH   1  15
BRANCH   1  19
ATOM     19  C   UNL d   1       0.228   1.755  -0.832  0.00  0.00     0.447 C 
ATOM     20  F   UNL d   1      -0.972   1.498  -1.388  0.00  0.00    -0.166 F 
ATOM     21  F   UNL d   1       0.095   2.880  -0.092  0.00  0.00    -0.166 F 
ATOM     22  F   UNL d   1       1.048   2.090  -1.870  0.00  0.00    -0.166 F 
ENDBRANCH   1  19
BRANCH   1  23
ATOM     23  O   UNL d   1       2.319   0.588  -0.094  0.00  0.00    -0.342 OA
BRANCH  23  24
ATOM     24  C   UNL d   1       2.946   1.684   0.577  0.00  0.00     0.210 C 
BRANCH  24  25
ATOM     25  C   UNL d   1       4.451   1.702   0.410  0.00  0.00    -0.034 A 
ATOM     26  C   UNL d   1       5.122   1.058  -0.636  0.00  0.00     0.012 A 
ATOM     27  C   UNL d   1       6.522   1.127  -0.737  0.00  0.00     0.037 A 
ATOM     28  C   UNL d   1       7.263   1.850   0.199  0.00  0.00     0.068 A 
ATOM     29  C   UNL d   1       6.597   2.517   1.224  0.00  0.00     0.037 A 
ATOM     30  C   UNL d   1       5.207   2.443   1.330  0.00  0.00     0.012 A 
BRANCH  28  31
ATOM     31  O   UNL d   1       8.621   2.009   0.208  0.00  0.00    -0.356 OA
ATOM     32  C   UNL d   1       9.377   1.089  -0.567  0.00  0.00     0.210 C 
ENDBRANCH  28  31
ENDBRANCH  24  25
ENDBRANCH  23  24
ENDBRANCH   1  23
TORSDOF 10
