REMARK  4 active torsions:
REMARK  status: ('A' for Active; 'I' for Inactive)
REMARK    1  A    between atoms: C_2  and  S_1 
REMARK    2  A    between atoms: C_4  and  S_1 
REMARK    3  A    between atoms: O_17  and  C_7 
REMARK    4  A    between atoms: O_18  and  C_11 
ROOT
ATOM      1  C   UNL d   1       0.363   1.555  -0.200  0.00  0.00     0.100 A 
ATOM      2  C   UNL d   1      -1.016   1.849  -0.265  0.00  0.00     0.063 A 
ATOM      3  C   UNL d   1       1.299   2.595  -0.255  0.00  0.00     0.090 A 
ATOM      4  C   UNL d   1       0.829   3.910  -0.381  0.00  0.00     0.041 A 
ATOM      5  C   UNL d   1      -1.473   3.156  -0.396  0.00  0.00     0.069 A 
ATOM      6  C   UNL d   1      -0.542   4.188  -0.460  0.00  0.00     0.039 A 
ENDROOT
BRANCH   1   7
ATOM      7  S   UNL d   1       0.768  -0.153   0.102  0.00  0.00     0.209 S 
ATOM      8  O   UNL d   1      -0.368  -0.739   0.792  0.00  0.00    -0.217 OA
ATOM      9  O   UNL d   1       2.086  -0.229   0.700  0.00  0.00    -0.217 OA
BRANCH   7  10
ATOM     10  C   UNL d   1       0.853  -1.017  -1.457  0.00  0.00     0.064 A 
ATOM     11  C   UNL d   1       1.683  -2.141  -1.548  0.00  0.00     0.025 A 
ATOM     12  C   UNL d   1       1.708  -2.894  -2.723  0.00  0.00     0.020 A 
ATOM     13  C   UNL d   1       0.907  -2.519  -3.802  0.00  0.00     0.011 A 
ATOM     14  C   UNL d   1       0.094  -1.388  -3.724  0.00  0.00     0.020 A 
ATOM     15 BR   UNL d   1       0.906  -3.566  -5.377  0.00  0.00    -0.051 Br
ATOM     16  C   UNL d   1       0.066  -0.629  -2.549  0.00  0.00     0.025 A 
ENDBRANCH   7  10
ENDBRANCH   1   7
BRANCH   3  17
ATOM     17  O   UNL d   1       2.642   2.499  -0.040  0.00  0.00    -0.354 OA
ATOM     18  C   UNL d   1       3.380   1.754  -1.005  0.00  0.00     0.210 C 
ENDBRANCH   3  17
BRANCH   5  19
ATOM     19  O   UNL d   1      -2.784   3.540  -0.446  0.00  0.00    -0.356 OA
ATOM     20  C   UNL d   1      -3.762   2.512  -0.322  0.00  0.00     0.210 C 
ENDBRANCH   5  19
TORSDOF 4
