REMARK  6 active torsions:
REMARK  status: ('A' for Active; 'I' for Inactive)
REMARK    1  A    between atoms: C_12  and  N_6 
REMARK    2  A    between atoms: N_8  and  C_11 
REMARK       I    between atoms: C_9  and  N_8 
REMARK    3  A    between atoms: C_13  and  C_9 
REMARK    4  A    between atoms: C_11  and  N_17 
REMARK    5  A    between atoms: C_14  and  C_12 
REMARK       I    between atoms: N_18  and  C_14 
REMARK    6  A    between atoms: N_17  and  N_18 
ROOT
ATOM      1  C   UNL d   1       2.586   0.622  -0.023  0.00  0.00     0.257 C 
ATOM      2  N   UNL d   1       2.794  -0.452  -0.853  0.00  0.00    -0.266 N 
ATOM      3  O   UNL d   1       3.501   0.979   0.726  0.00  0.00    -0.270 OA
ATOM      4  H   UNL d   1       3.642  -0.999  -0.727  0.00  0.00     0.190 HD
ENDROOT
BRANCH   1   5
ATOM      5  C   UNL d   1       1.314   1.430  -0.128  0.00  0.00     0.272 C 
BRANCH   5   6
ATOM      6  N   UNL d   1       0.106   0.653   0.024  0.00  0.00    -0.194 N 
ATOM      7  N   UNL d   1      -0.012  -0.310   0.944  0.00  0.00    -0.115 N 
ATOM      8  C   UNL d   1      -1.315  -0.597   0.849  0.00  0.00     0.709 A 
ATOM      9  HN  UNL d   1       0.698  -0.716   1.553  1.00  0.00     0.207 HD
ATOM     10  N   UNL d   1      -1.952   0.193  -0.080  0.00  0.00    -0.113 N 
ATOM     11  N   UNL d   1      -1.977  -1.528   1.591  0.00  0.00    -0.215 N 
ATOM     12  N   UNL d   1      -1.036   1.004  -0.593  0.00  0.00     0.011 NA
ATOM     13  HN  UNL d   1      -2.941   0.161  -0.326  1.00  0.00     0.203 HD
ATOM     14  C   UNL d   1      -1.175  -2.144   2.659  0.00  0.00     0.141 C 
ATOM     15  C   UNL d   1      -3.366  -1.203   1.943  0.00  0.00     0.141 C 
ATOM     16  C   UNL d   1      -1.881  -3.344   3.275  0.00  0.00     0.020 C 
ATOM     17  C   UNL d   1      -3.281  -2.975   3.739  0.00  0.00     0.003 C 
ATOM     18  C   UNL d   1      -4.077  -2.400   2.574  0.00  0.00     0.020 C 
ENDBRANCH   5   6
ENDBRANCH   1   5
BRANCH   2  19
ATOM     19  N   UNL d   1       1.853  -0.909  -1.765  0.00  0.00    -0.273 N 
ATOM     20  H   UNL d   1       1.548  -0.272  -2.505  0.00  0.00     0.189 HD
BRANCH  19  21
ATOM     21  C   UNL d   1       1.266  -2.150  -1.682  0.00  0.00     0.193 C 
ATOM     22  S   UNL d   1       1.718  -3.388  -0.652  0.00  0.00    -0.039 SA
BRANCH  21  23
ATOM     23  N   UNL d   1       0.219  -2.359  -2.559  0.00  0.00    -0.302 N 
ATOM     24  C   UNL d   1      -0.210  -1.492  -3.550  0.00  0.00     0.228 C 
ATOM     25  O   UNL d   1       0.267  -0.371  -3.716  0.00  0.00    -0.273 OA
ATOM     26  H   UNL d   1      -0.246  -3.252  -2.461  0.00  0.00     0.171 HD
BRANCH  24  27
ATOM     27  C   UNL d   1      -1.259  -1.970  -4.486  0.00  0.00     0.078 A 
ATOM     28  C   UNL d   1      -2.508  -2.681  -4.033  0.00  0.00     0.015 A 
ATOM     29  C   UNL d   1      -1.464  -3.429  -4.815  0.00  0.00     0.015 A 
ENDBRANCH  24  27
ENDBRANCH  21  23
ENDBRANCH  19  21
ENDBRANCH   2  19
TORSDOF 6
