REMARK  4 active torsions:
REMARK  status: ('A' for Active; 'I' for Inactive)
REMARK    1  A    between atoms: C_5  and  C_4 
REMARK    2  A    between atoms: C_11  and  N_6 
REMARK    3  A    between atoms: C_10  and  O_17 
REMARK    4  A    between atoms: O_17  and  C_23 
ROOT
ATOM      1  C   UNL d   1      -3.205   1.173  -1.123  0.00  0.00     0.040 A 
ATOM      2  N   UNL d   1      -2.691   2.111  -2.027  0.00  0.00    -0.322 N 
ATOM      3  C   UNL d   1      -3.573   3.182  -2.040  0.00  0.00     0.097 A 
ATOM      4  C   UNL d   1      -4.441   1.623  -0.690  0.00  0.00     0.031 A 
ATOM      5  C   UNL d   1      -4.666   2.892  -1.255  0.00  0.00     0.020 A 
ENDROOT
BRANCH   1   6
ATOM      6  C   UNL d   1      -2.492   0.015  -0.718  0.00  0.00     0.054 C 
ATOM      7  C   UNL d   1      -1.574   0.000   0.270  0.00  0.00     0.116 C 
ATOM      8  C   UNL d   1      -1.210   1.163   1.097  0.00  0.00     0.302 C 
ATOM      9  C   UNL d   1      -0.896  -1.283   0.501  0.00  0.00     0.302 C 
ATOM     10  O   UNL d   1       0.028   1.118   1.630  0.00  0.00    -0.280 OA
ATOM     11  O   UNL d   1      -1.956   2.100   1.336  0.00  0.00    -0.259 OA
ATOM     12  C   UNL d   1       0.914   0.066   1.260  0.00  0.00     0.175 C 
ATOM     13  O   UNL d   1       0.271  -1.205   1.175  0.00  0.00    -0.280 OA
ATOM     14  C   UNL d   1       1.629   0.397  -0.053  0.00  0.00     0.080 C 
ATOM     15  C   UNL d   1       1.946  -0.037   2.383  0.00  0.00     0.080 C 
ATOM     16  O   UNL d   1      -1.333  -2.358   0.110  0.00  0.00    -0.259 OA
ENDBRANCH   1   6
BRANCH   2  17
ATOM     17  C   UNL d   1      -1.515   2.039  -2.843  0.00  0.00     0.039 A 
ATOM     18  C   UNL d   1      -1.002   0.812  -3.281  0.00  0.00     0.033 A 
ATOM     19  C   UNL d   1       0.116   0.759  -4.128  0.00  0.00     0.039 A 
ATOM     20  C   UNL d   1       0.706   1.936  -4.585  0.00  0.00     0.078 A 
ATOM     21  C   UNL d   1       0.222   3.160  -4.120  0.00  0.00     0.039 A 
ATOM     22  C   UNL d   1      -0.883   3.218  -3.265  0.00  0.00     0.033 A 
BRANCH  20  23
ATOM     23  O   UNL d   1       1.763   2.021  -5.436  0.00  0.00    -0.255 OA
BRANCH  23  24
ATOM     24  C   UNL d   1       1.917   1.033  -6.449  0.00  0.00     0.530 C 
ATOM     25  F   UNL d   1       0.846   0.226  -6.602  0.00  0.00    -0.144 F 
ATOM     26  F   UNL d   1       2.132   1.659  -7.627  0.00  0.00    -0.144 F 
ATOM     27  F   UNL d   1       2.998   0.275  -6.170  0.00  0.00    -0.144 F 
ENDBRANCH  23  24
ENDBRANCH  20  23
ENDBRANCH   2  17
TORSDOF 4
