REMARK  10 active torsions:
REMARK  status: ('A' for Active; 'I' for Inactive)
REMARK    1  A    between atoms: N_2  and  C_1 
REMARK    2  A    between atoms: C_3  and  C_1 
REMARK    3  A    between atoms: C_4  and  C_1 
REMARK    4  A    between atoms: N_5  and  C_1 
REMARK       I    between atoms: C_6  and  N_2 
REMARK    5  A    between atoms: C_14  and  N_5 
REMARK    6  A    between atoms: O_15  and  C_6 
REMARK    7  A    between atoms: C_22  and  O_15 
REMARK    8  A    between atoms: O_21  and  C_16 
REMARK    9  A    between atoms: C_24  and  C_22 
REMARK   10  A    between atoms: C_25  and  C_24 
ROOT
ATOM      1  C   UNL d   1       0.839  -0.099   0.026  0.00  0.00     0.308 C 
ENDROOT
BRANCH   1   2
ATOM      2  N   UNL d   1       0.213   1.014  -0.712  0.00  0.00    -0.295 N 
ATOM      3  C   UNL d   1       0.344   1.246  -2.037  0.00  0.00     0.362 C 
ATOM      4  O   UNL d   1       0.915   0.517  -2.831  0.00  0.00    -0.238 OA
ATOM      5  H   UNL d   1      -0.173   1.786  -0.187  0.00  0.00     0.168 HD
BRANCH   3   6
ATOM      6  O   UNL d   1      -0.206   2.450  -2.310  0.00  0.00    -0.304 OA
BRANCH   6   7
ATOM      7  C   UNL d   1       0.168   3.061  -3.553  0.00  0.00     0.180 C 
BRANCH   7   8
ATOM      8  C   UNL d   1      -0.891   2.857  -4.632  0.00  0.00     0.026 C 
BRANCH   8   9
ATOM      9  C   UNL d   1      -0.534   3.677  -5.875  0.00  0.00    -0.002 C 
ATOM     10  C   UNL d   1      -1.542   3.513  -6.999  0.00  0.00     0.005 C 
ENDBRANCH   8   9
ENDBRANCH   7   8
ENDBRANCH   6   7
ENDBRANCH   3   6
ENDBRANCH   1   2
BRANCH   1  11
ATOM     11  C   UNL d   1       0.517  -1.517  -0.557  0.00  0.00     0.441 C 
ATOM     12  F   UNL d   1      -0.757  -1.607  -1.007  0.00  0.00    -0.166 F 
ATOM     13  F   UNL d   1       1.335  -1.824  -1.596  0.00  0.00    -0.166 F 
ATOM     14  F   UNL d   1       0.692  -2.508   0.350  0.00  0.00    -0.166 F 
ENDBRANCH   1  11
BRANCH   1  15
ATOM     15  C   UNL d   1       0.247  -0.213   1.462  0.00  0.00     0.441 C 
ATOM     16  F   UNL d   1       0.121   1.013   2.040  0.00  0.00    -0.166 F 
ATOM     17  F   UNL d   1      -1.001  -0.739   1.463  0.00  0.00    -0.166 F 
ATOM     18  F   UNL d   1       1.007  -0.961   2.294  0.00  0.00    -0.166 F 
ENDBRANCH   1  15
BRANCH   1  19
ATOM     19  N   UNL d   1       2.315   0.141  -0.004  0.00  0.00    -0.349 N 
ATOM     20  H   UNL d   1       2.786  -0.431  -0.708  0.00  0.00     0.162 HD
BRANCH  19  21
ATOM     21  C   UNL d   1       3.077   1.165   0.502  0.00  0.00     0.030 A 
ATOM     22  C   UNL d   1       2.577   2.312   1.118  0.00  0.00     0.032 A 
ATOM     23  C   UNL d   1       3.425   3.271   1.693  0.00  0.00     0.039 A 
ATOM     24  C   UNL d   1       4.805   3.099   1.671  0.00  0.00     0.068 A 
ATOM     25  C   UNL d   1       5.325   1.960   1.064  0.00  0.00     0.039 A 
ATOM     26  C   UNL d   1       4.473   1.013   0.493  0.00  0.00     0.032 A 
BRANCH  24  27
ATOM     27  O   UNL d   1       5.735   3.948   2.202  0.00  0.00    -0.356 OA
ATOM     28  C   UNL d   1       5.243   5.138   2.804  0.00  0.00     0.210 C 
ENDBRANCH  24  27
ENDBRANCH  19  21
ENDBRANCH   1  19
TORSDOF 10
