REMARK  1 active torsions:
REMARK  status: ('A' for Active; 'I' for Inactive)
REMARK    1  A    between atoms: C_9  and  C_5 
ROOT
ATOM      1  C   UNL d   1       1.262  -0.626  -0.066  0.00  0.00     0.023 A 
ATOM      2  C   UNL d   1      -1.278  -0.629  -0.050  0.00  0.00     0.023 A 
ATOM      3  C   UNL d   1      -1.229   0.707   0.143  0.00  0.00     0.021 A 
ATOM      4  C   UNL d   1       1.216   0.706   0.153  0.00  0.00     0.021 A 
ATOM      5  C   UNL d   1      -0.008  -1.457  -0.256  0.00  0.00     0.097 A 
ATOM      6  N   UNL d   1      -0.006   1.352   0.218  0.00  0.00    -0.362 N 
ATOM      7  C   UNL d   1       2.593  -1.289  -0.156  0.00  0.00     0.159 C 
ATOM      8  C   UNL d   1      -2.610  -1.299  -0.092  0.00  0.00     0.159 C 
ATOM      9  C   UNL d   1      -2.458   1.585   0.276  0.00  0.00     0.067 C 
ATOM     10  C   UNL d   1       2.445   1.574   0.334  0.00  0.00     0.067 C 
ATOM     11  C   UNL d   1       3.777   0.908  -0.077  0.00  0.00    -0.036 C 
ATOM     12  C   UNL d   1      -3.776   0.910  -0.162  0.00  0.00    -0.036 C 
ATOM     13  C   UNL d   1       3.779  -0.545   0.414  0.00  0.00     0.092 C 
ATOM     14  C   UNL d   1      -3.804  -0.513   0.409  0.00  0.00     0.092 C 
ATOM     15  O   UNL d   1       2.725  -2.393  -0.672  0.00  0.00    -0.293 OA
ATOM     16  O   UNL d   1      -2.741  -2.446  -0.511  0.00  0.00    -0.293 OA
ATOM     17  C   UNL d   1       3.961   0.953  -1.609  0.00  0.00     0.015 C 
ATOM     18  C   UNL d   1      -3.895   0.867  -1.701  0.00  0.00     0.015 C 
ATOM     19  C   UNL d   1      -4.970   1.711   0.383  0.00  0.00     0.015 C 
ATOM     20  C   UNL d   1       4.951   1.667   0.566  0.00  0.00     0.015 C 
ATOM     21  H   UNL d   1      -0.006   2.349   0.417  0.00  0.00     0.165 HD
ENDROOT
BRANCH   5  22
ATOM     22  C   UNL d   1       0.009  -2.766   0.539  0.00  0.00    -0.023 A 
ATOM     23  C   UNL d   1      -0.010  -2.856   1.939  0.00  0.00     0.041 A 
ATOM     24 CL   UNL d   1      -0.051  -1.461   2.959  0.00  0.00    -0.084 Cl
ATOM     25  C   UNL d   1       0.009  -4.108   2.570  0.00  0.00     0.024 A 
ATOM     26  C   UNL d   1       0.048  -5.282   1.821  0.00  0.00     0.002 A 
ATOM     27  C   UNL d   1       0.071  -5.215   0.434  0.00  0.00     0.001 A 
ATOM     28  C   UNL d   1       0.050  -3.972  -0.198  0.00  0.00     0.010 A 
ENDBRANCH   5  22
TORSDOF 1
