REMARK  6 active torsions:
REMARK  status: ('A' for Active; 'I' for Inactive)
REMARK    1  A    between atoms: C_7  and  N_1 
REMARK    2  A    between atoms: S_12  and  C_2 
REMARK    3  A    between atoms: C_10  and  C_9 
REMARK    4  A    between atoms: C_22  and  S_12 
REMARK    5  A    between atoms: C_15  and  C_20 
REMARK    6  A    between atoms: C_26  and  C_22 
ROOT
ATOM      1  N   UNL d   1       0.989   0.828  -0.053  0.00  0.00    -0.255 N 
ATOM      2  C   UNL d   1       2.352   0.518  -0.083  0.00  0.00     0.155 A 
ATOM      3  C   UNL d   1       0.053  -0.149   0.307  0.00  0.00     0.267 A 
ATOM      4  N   UNL d   1       2.827  -0.650   0.199  0.00  0.00    -0.335 N 
ATOM      5  HN  UNL d   1       3.828  -0.832   0.123  1.00  0.00     0.168 HD
ATOM      6  C   UNL d   1       0.586  -1.471   0.684  0.00  0.00     0.059 A 
ATOM      7  C   UNL d   1       1.960  -1.659   0.608  0.00  0.00     0.049 A 
ATOM      8  O   UNL d   1      -1.167   0.011   0.327  0.00  0.00    -0.267 OA
ATOM      9  C   UNL d   1      -0.252  -2.494   1.144  0.00  0.00     0.019 A 
ATOM     10  C   UNL d   1       2.504  -2.880   1.013  0.00  0.00     0.030 A 
ATOM     11  C   UNL d   1       0.301  -3.709   1.551  0.00  0.00     0.001 A 
ATOM     12  C   UNL d   1       1.680  -3.901   1.489  0.00  0.00     0.002 A 
ENDROOT
BRANCH   2  13
ATOM     13  S   UNL d   1       3.539   1.792  -0.386  0.00  0.00    -0.089 SA
BRANCH  13  14
ATOM     14  C   UNL d   1       5.076   0.841  -0.230  0.00  0.00     0.121 C 
BRANCH  14  15
ATOM     15  C   UNL d   1       6.388   1.579  -0.395  0.00  0.00    -0.048 A 
ATOM     16  C   UNL d   1       6.513   2.943  -0.677  0.00  0.00     0.009 A 
ATOM     17  C   UNL d   1       7.776   3.520  -0.867  0.00  0.00     0.012 A 
ATOM     18  C   UNL d   1       8.941   2.748  -0.791  0.00  0.00    -0.036 A 
ATOM     19  C   UNL d   1       8.826   1.398  -0.455  0.00  0.00     0.012 A 
ATOM     20  C   UNL d   1       7.567   0.822  -0.266  0.00  0.00     0.009 A 
BRANCH  18  21
ATOM     21  C   UNL d   1      10.235   3.392  -1.052  0.00  0.00     0.012 C 
ATOM     22  C   UNL d   1      11.270   2.776  -1.645  0.00  0.00     0.017 C 
BRANCH  22  23
ATOM     23  C   UNL d   1      12.497   3.513  -1.967  0.00  0.00     0.024 A 
ATOM     24  C   UNL d   1      12.629   4.074  -3.245  0.00  0.00     0.128 A 
ATOM     25  F   UNL d   1      11.668   3.893  -4.164  0.00  0.00    -0.205 F 
ATOM     26  C   UNL d   1      13.743   4.832  -3.598  0.00  0.00     0.043 A 
ATOM     27  C   UNL d   1      14.758   5.042  -2.669  0.00  0.00     0.005 A 
ATOM     28  C   UNL d   1      14.657   4.479  -1.396  0.00  0.00     0.025 A 
ATOM     29  C   UNL d   1      13.536   3.717  -1.046  0.00  0.00     0.047 A 
ATOM     30 CL   UNL d   1      13.492   3.036   0.544  0.00  0.00    -0.083 Cl
ENDBRANCH  22  23
ENDBRANCH  18  21
ENDBRANCH  14  15
ENDBRANCH  13  14
ENDBRANCH   2  13
BRANCH   1  31
ATOM     31  C   UNL d   1       0.482   2.137  -0.331  0.00  0.00     0.083 A 
ATOM     32  C   UNL d   1       0.706   2.772  -1.560  0.00  0.00     0.146 A 
ATOM     33  C   UNL d   1       0.260   4.069  -1.795  0.00  0.00     0.086 A 
ATOM     34  F   UNL d   1       1.326   2.119  -2.555  0.00  0.00    -0.204 F 
ATOM     35  C   UNL d   1      -0.434   4.734  -0.793  0.00  0.00     0.119 A 
ATOM     36  C   UNL d   1      -0.714   4.114   0.420  0.00  0.00     0.045 A 
ATOM     37  F   UNL d   1      -0.847   5.991  -0.998  0.00  0.00    -0.206 F 
ATOM     38  C   UNL d   1      -0.268   2.810   0.647  0.00  0.00     0.036 A 
ENDBRANCH   1  31
TORSDOF 6
