REMARK  6 active torsions:
REMARK  status: ('A' for Active; 'I' for Inactive)
REMARK    1  A    between atoms: N_2  and  C_1 
REMARK    2  A    between atoms: N_3  and  C_1 
REMARK    3  A    between atoms: C_7  and  N_2 
REMARK    4  A    between atoms: C_9  and  N_3 
REMARK    5  A    between atoms: O_12  and  C_5 
REMARK    6  A    between atoms: O_13  and  C_8 
ROOT
ATOM      1  C   UNL d   1       2.066  -0.525   2.674  0.00  0.00     0.069 A 
ATOM      2  C   UNL d   1       2.774  -1.070   3.753  0.00  0.00     0.103 A 
ATOM      3  C   UNL d   1       0.977  -1.209   2.119  0.00  0.00     0.037 A 
ATOM      4  C   UNL d   1       2.429  -2.347   4.233  0.00  0.00     0.101 A 
ATOM      5  C   UNL d   1       1.341  -3.027   3.680  0.00  0.00     0.042 A 
ATOM      6  C   UNL d   1       0.621  -2.459   2.628  0.00  0.00     0.032 A 
ENDROOT
BRANCH   3   7
ATOM      7  N   UNL d   1       0.340  -0.657   0.988  0.00  0.00    -0.333 N 
ATOM      8  H   UNL d   1       0.812   0.109   0.530  0.00  0.00     0.168 HD
BRANCH   7   9
ATOM      9  C   UNL d   1      -0.947  -0.846   0.573  0.00  0.00     0.172 C 
ATOM     10  S   UNL d   1      -2.292  -0.999   1.556  0.00  0.00    -0.041 SA
BRANCH   9  11
ATOM     11  N   UNL d   1      -1.164  -0.867  -0.772  0.00  0.00    -0.359 N 
ATOM     12  H   UNL d   1      -2.152  -0.971  -0.982  0.00  0.00     0.162 HD
BRANCH  11  13
ATOM     13  C   UNL d   1      -0.242  -1.077  -1.910  0.00  0.00     0.021 C 
ATOM     14  C   UNL d   1       0.721  -2.248  -1.655  0.00  0.00     0.037 C 
ATOM     15  C   UNL d   1      -1.107  -1.440  -3.135  0.00  0.00     0.037 C 
ATOM     16  C   UNL d   1       0.541   0.199  -2.242  0.00  0.00     0.037 C 
ENDBRANCH  11  13
ENDBRANCH   9  11
ENDBRANCH   7   9
ENDBRANCH   3   7
BRANCH   2  17
ATOM     17  O   UNL d   1       3.830  -0.457   4.381  0.00  0.00    -0.353 OA
ATOM     18  C   UNL d   1       4.096   0.897   4.049  0.00  0.00     0.210 C 
ENDBRANCH   2  17
BRANCH   4  19
ATOM     19  O   UNL d   1       3.176  -2.850   5.270  0.00  0.00    -0.353 OA
ATOM     20  C   UNL d   1       3.347  -4.263   5.263  0.00  0.00     0.210 C 
ENDBRANCH   4  19
TORSDOF 6
