REMARK  2 active torsions:
REMARK  status: ('A' for Active; 'I' for Inactive)
REMARK    1  A    between atoms: C_9  and  C_4 
REMARK    2  A    between atoms: C_5  and  C_6 
ROOT
ATOM      1  C   UNL d   1       1.219  -1.411   0.061  0.00  0.00     0.189 C 
ATOM      2  C   UNL d   1       2.242  -0.726  -0.768  0.00  0.00    -0.006 C 
ATOM      3  C   UNL d   1      -0.132  -0.793   0.082  0.00  0.00     0.021 A 
ATOM      4  C   UNL d   1       2.566  -1.355  -1.914  0.00  0.00     0.022 C 
ATOM      5  O   UNL d   1       1.430  -2.498   0.582  0.00  0.00    -0.287 OA
ATOM      6  C   UNL d   1      -0.358   0.564   0.372  0.00  0.00    -0.044 A 
ATOM      7  C   UNL d   1       2.818   0.562  -0.252  0.00  0.00     0.043 C 
ATOM      8  C   UNL d   1      -1.204  -1.634  -0.249  0.00  0.00     0.016 A 
ATOM      9  C   UNL d   1       1.819   1.713  -0.216  0.00  0.00     0.009 C 
ATOM     10  C   UNL d   1       0.732   1.497   0.830  0.00  0.00     0.040 C 
ATOM     11  C   UNL d   1      -1.672   1.057   0.283  0.00  0.00     0.008 A 
ATOM     12  C   UNL d   1      -2.500  -1.125  -0.334  0.00  0.00     0.001 A 
ATOM     13  C   UNL d   1      -2.731   0.223  -0.077  0.00  0.00     0.001 A 
ENDROOT
BRANCH   4  14
ATOM     14  C   UNL d   1       3.453  -0.733  -2.896  0.00  0.00    -0.036 A 
ATOM     15  C   UNL d   1       4.836  -0.879  -2.825  0.00  0.00     0.012 A 
ATOM     16  C   UNL d   1       5.663  -0.073  -3.614  0.00  0.00     0.009 A 
ATOM     17  C   UNL d   1       5.129   0.901  -4.483  0.00  0.00    -0.051 A 
ATOM     18  C   UNL d   1       3.732   0.960  -4.605  0.00  0.00     0.009 A 
ATOM     19  C   UNL d   1       2.903   0.156  -3.821  0.00  0.00     0.012 A 
BRANCH  17  20
ATOM     20  C   UNL d   1       6.057   1.899  -5.197  0.00  0.00    -0.024 C 
ATOM     21  C   UNL d   1       5.302   2.949  -6.045  0.00  0.00     0.019 C 
ATOM     22  C   UNL d   1       6.867   2.680  -4.136  0.00  0.00     0.019 C 
ATOM     23  C   UNL d   1       7.027   1.155  -6.134  0.00  0.00     0.019 C 
ENDBRANCH  17  20
ENDBRANCH   4  14
TORSDOF 2
