REMARK  5 active torsions:
REMARK  status: ('A' for Active; 'I' for Inactive)
REMARK    1  A    between atoms: O_11  and  S_1 
REMARK    2  A    between atoms: N_12  and  S_1 
REMARK    3  A    between atoms: C_6  and  C_4 
REMARK    4  A    between atoms: C_5  and  C_17 
REMARK    5  A    between atoms: C_21  and  O_11 
ROOT
ATOM      1  N   UNL d   1       3.237   2.520  -6.534  0.00  0.00    -0.318 N 
ATOM      2  HN  UNL d   1       4.031   2.476  -5.894  1.00  0.00     0.169 HD
ATOM      3  C   UNL d   1       3.180   3.041  -7.739  0.00  0.00     0.183 A 
ATOM      4  C   UNL d   1       1.955   2.048  -6.350  0.00  0.00     0.138 A 
ATOM      5  N   UNL d   1       1.159   2.207  -7.420  0.00  0.00    -0.242 N 
ATOM      6  HN  UNL d   1       0.187   1.920  -7.530  1.00  0.00     0.196 HD
ATOM      7  O   UNL d   1       1.974   2.854  -8.345  0.00  0.00    -0.217 OA
ENDROOT
BRANCH   4   8
ATOM      8  C   UNL d   1       1.519   1.450  -5.093  0.00  0.00     0.010 A 
ATOM      9  C   UNL d   1       2.421   1.282  -4.032  0.00  0.00     0.018 A 
ATOM     10  C   UNL d   1       2.006   0.697  -2.830  0.00  0.00     0.039 A 
ATOM     11  C   UNL d   1       0.688   0.264  -2.679  0.00  0.00     0.090 A 
ATOM     12  C   UNL d   1      -0.228   0.467  -3.711  0.00  0.00     0.039 A 
ATOM     13  C   UNL d   1       0.189   1.044  -4.914  0.00  0.00     0.018 A 
BRANCH  11  14
ATOM     14  O   UNL d   1       0.376  -0.339  -1.488  0.00  0.00    -0.221 OA
BRANCH  14  15
ATOM     15  S   UNL d   1      -0.775  -1.497  -1.408  0.00  0.00     0.344 S 
ATOM     16  O   UNL d   1      -0.623  -2.391  -2.537  0.00  0.00    -0.180 OA
ATOM     17  O   UNL d   1      -2.046  -0.853  -1.140  0.00  0.00    -0.180 OA
BRANCH  15  18
ATOM     18  N   UNL d   1      -0.346  -2.394  -0.022  0.00  0.00    -0.196 NA
ATOM     19  C   UNL d   1       0.979  -3.033  -0.096  0.00  0.00     0.131 C 
ATOM     20  C   UNL d   1      -0.607  -1.736   1.267  0.00  0.00     0.131 C 
ENDBRANCH  15  18
ENDBRANCH  14  15
ENDBRANCH  11  14
ENDBRANCH   4   8
BRANCH   3  21
ATOM     21  C   UNL d   1       4.226   3.716  -8.496  0.00  0.00     0.039 A 
ATOM     22  C   UNL d   1       3.997   4.797  -9.368  0.00  0.00     0.051 A 
ATOM     23  C   UNL d   1       5.065   5.423 -10.020  0.00  0.00     0.067 A 
ATOM     24 CL   UNL d   1       2.427   5.469  -9.649  0.00  0.00    -0.083 Cl
ATOM     25  C   UNL d   1       6.361   4.979  -9.802  0.00  0.00     0.118 A 
ATOM     26  C   UNL d   1       6.618   3.917  -8.947  0.00  0.00     0.043 A 
ATOM     27  F   UNL d   1       7.380   5.593 -10.416  0.00  0.00    -0.206 F 
ATOM     28  C   UNL d   1       5.555   3.290  -8.295  0.00  0.00     0.020 A 
ENDBRANCH   3  21
TORSDOF 5
