REMARK  1 active torsions:
REMARK  status: ('A' for Active; 'I' for Inactive)
REMARK    1  A    between atoms: O_11  and  C_4 
ROOT
ATOM      1  C   UNL d   1       1.534  -0.991  -0.229  0.00  0.00     0.013 A 
ATOM      2  C   UNL d   1       2.462  -0.443  -1.345  0.00  0.00    -0.039 A 
ATOM      3  C   UNL d   1       2.450   0.155   0.044  0.00  0.00     0.005 A 
ATOM      4  C   UNL d   1       0.142   0.940   0.320  0.00  0.00     0.197 C 
ATOM      5  C   UNL d   1       0.183  -0.576   0.274  0.00  0.00     0.102 C 
ATOM      6  C   UNL d   1       1.616   1.376   0.405  0.00  0.00     0.077 C 
ATOM      7  N   UNL d   1      -1.362   0.240  -1.294  0.00  0.00    -0.271 N 
ATOM      8  HN  UNL d   1      -2.114   0.273  -1.982  1.00  0.00     0.193 HD
ATOM      9  O   UNL d   1      -0.532   1.323  -0.884  0.00  0.00    -0.240 OA
ATOM     10  C   UNL d   1      -0.970  -0.798  -0.619  0.00  0.00     0.016 C 
ATOM     11  C   UNL d   1       2.122   0.506  -2.467  0.00  0.00     0.015 C 
ATOM     12  C   UNL d   1       3.620  -1.359  -1.708  0.00  0.00     0.015 C 
ATOM     13  C   UNL d   1      -1.621  -2.139  -0.713  0.00  0.00     0.066 C 
ENDROOT
BRANCH   4  14
ATOM     14  O   UNL d   1      -0.591   1.404   1.442  0.00  0.00    -0.363 OA
ATOM     15  H   UNL d   1      -0.859   2.302   1.184  0.00  0.00     0.213 HD
ENDBRANCH   4  14
TORSDOF 1
