REMARK  2 active torsions:
REMARK  status: ('A' for Active; 'I' for Inactive)
REMARK    1  A    between atoms: N_5  and  C_4 
REMARK    2  A    between atoms: C_11  and  N_5 
ROOT
ATOM      1  C   UNL d   1      -1.276  -0.119   0.080  0.00  0.00     0.071 C 
ATOM      2  C   UNL d   1      -0.649   1.232   0.149  0.00  0.00     0.165 C 
ATOM      3  C   UNL d   1      -0.462  -1.355   0.236  0.00  0.00     0.165 C 
ATOM      4  C   UNL d   1      -2.602  -0.179  -0.131  0.00  0.00     0.107 C 
ATOM      5  C   UNL d   1       1.624   0.082  -0.044  0.00  0.00    -0.034 C 
ATOM      6  C   UNL d   1       1.005  -1.187   0.563  0.00  0.00     0.093 C 
ATOM      7  C   UNL d   1       0.835   1.317   0.418  0.00  0.00     0.093 C 
ATOM      8  O   UNL d   1      -0.963  -2.477   0.160  0.00  0.00    -0.292 OA
ATOM      9  O   UNL d   1      -1.318   2.263   0.049  0.00  0.00    -0.292 OA
ATOM     10  C   UNL d   1       3.074   0.214   0.460  0.00  0.00     0.015 C 
ATOM     11  C   UNL d   1       1.659  -0.003  -1.583  0.00  0.00     0.015 C 
ENDROOT
BRANCH   4  12
ATOM     12  N   UNL d   1      -3.416  -1.279  -0.258  0.00  0.00    -0.362 N 
ATOM     13  H   UNL d   1      -2.945  -2.191  -0.267  0.00  0.00     0.165 HD
BRANCH  12  14
ATOM     14  C   UNL d   1      -4.810  -1.303  -0.440  0.00  0.00     0.071 A 
ATOM     15  C   UNL d   1      -5.418  -2.431  -1.019  0.00  0.00     0.145 A 
ATOM     16  C   UNL d   1      -6.778  -2.468  -1.309  0.00  0.00     0.086 A 
ATOM     17  F   UNL d   1      -4.668  -3.502  -1.325  0.00  0.00    -0.204 F 
ATOM     18  C   UNL d   1      -7.555  -1.358  -1.014  0.00  0.00     0.119 A 
ATOM     19  C   UNL d   1      -6.997  -0.229  -0.429  0.00  0.00     0.044 A 
ATOM     20  F   UNL d   1      -8.863  -1.370  -1.300  0.00  0.00    -0.206 F 
ATOM     21  C   UNL d   1      -5.628  -0.202  -0.147  0.00  0.00     0.036 A 
ENDBRANCH  12  14
ENDBRANCH   4  12
TORSDOF 2
