REMARK  6 active torsions:
REMARK  status: ('A' for Active; 'I' for Inactive)
REMARK    1  A    between atoms: C_7  and  C_1 
REMARK    2  A    between atoms: C_3  and  C_2 
REMARK    3  A    between atoms: N_11  and  C_6 
REMARK    4  A    between atoms: O_23  and  C_7 
REMARK    5  A    between atoms: C_14  and  N_11 
REMARK    6  A    between atoms: C_25  and  O_23 
ROOT
ATOM      1  C   UNL d   1      -0.016  -1.562   0.101  0.00  0.00     0.087 A 
ATOM      2  C   UNL d   1       1.158  -0.832   0.090  0.00  0.00     0.150 A 
ATOM      3  N   UNL d   1       1.135   0.542   0.024  0.00  0.00    -0.185 N 
ATOM      4  HN  UNL d   1       2.005   1.074   0.007  1.00  0.00     0.184 HD
ATOM      5  C   UNL d   1      -0.048   1.172  -0.019  0.00  0.00     0.683 A 
ATOM      6  N   UNL d   1      -1.210   0.517   0.046  0.00  0.00    -0.201 N 
ATOM      7  HN  UNL d   1      -2.097   1.022   0.050  1.00  0.00     0.183 HD
ATOM      8  C   UNL d   1      -1.177  -0.825   0.107  0.00  0.00     0.126 A 
ENDROOT
BRANCH   5   9
ATOM      9  N   UNL d   1      -0.016   2.558  -0.121  0.00  0.00    -0.192 N 
ATOM     10  H   UNL d   1       0.936   2.893  -0.091  0.00  0.00     0.184 HD
BRANCH   9  11
ATOM     11  C   UNL d   1      -0.978   3.457  -0.605  0.00  0.00     0.050 A 
ATOM     12  C   UNL d   1      -2.169   3.052  -1.217  0.00  0.00     0.054 A 
ATOM     13  C   UNL d   1      -3.123   3.977  -1.648  0.00  0.00     0.042 A 
ATOM     14 CL   UNL d   1      -4.550   3.366  -2.413  0.00  0.00    -0.084 Cl
ATOM     15  C   UNL d   1      -2.926   5.350  -1.458  0.00  0.00    -0.040 A 
ATOM     16  C   UNL d   1      -1.748   5.765  -0.821  0.00  0.00     0.011 A 
ATOM     17  C   UNL d   1      -3.939   6.362  -1.902  0.00  0.00     0.050 C 
ATOM     18  C   UNL d   1      -0.793   4.831  -0.399  0.00  0.00     0.030 A 
ENDBRANCH   9  11
ENDBRANCH   5   9
BRANCH   2  19
ATOM     19  C   UNL d   1       2.528  -1.475   0.141  0.00  0.00     0.434 C 
ATOM     20  F   UNL d   1       2.565  -2.713   0.707  0.00  0.00    -0.165 F 
ATOM     21  F   UNL d   1       3.095  -1.600  -1.093  0.00  0.00    -0.165 F 
ATOM     22  F   UNL d   1       3.417  -0.742   0.877  0.00  0.00    -0.165 F 
ENDBRANCH   2  19
BRANCH   1  23
ATOM     23  C   UNL d   1      -0.179  -3.017   0.144  0.00  0.00     0.296 C 
ATOM     24  O   UNL d   1      -1.091  -3.545   0.758  0.00  0.00    -0.259 OA
BRANCH  23  25
ATOM     25  O   UNL d   1       0.719  -3.633  -0.654  0.00  0.00    -0.318 OA
BRANCH  25  26
ATOM     26  C   UNL d   1       0.597  -5.068  -0.697  0.00  0.00     0.174 C 
ATOM     27  C   UNL d   1       1.121  -5.703   0.582  0.00  0.00     0.034 C 
ENDBRANCH  25  26
ENDBRANCH  23  25
ENDBRANCH   1  23
TORSDOF 6
