REMARK  7 active torsions:
REMARK  status: ('A' for Active; 'I' for Inactive)
REMARK    1  A    between atoms: C_5  and  C_1 
REMARK    2  A    between atoms: C_6  and  C_2 
REMARK    3  A    between atoms: C_3  and  C_4 
REMARK    4  A    between atoms: O_11  and  C_3 
REMARK    5  A    between atoms: O_12  and  C_4 
REMARK    6  A    between atoms: C_10  and  C_5 
REMARK    7  A    between atoms: C_9  and  C_6 
ROOT
ATOM      1  C   UNL d   1       0.261  -3.030   2.101  0.00  0.00     0.095 C 
ATOM      2  C   UNL d   1       0.985  -2.073   1.498  0.00  0.00     0.102 C 
ENDROOT
BRANCH   2   3
ATOM      3  C   UNL d   1       2.435  -1.993   1.625  0.00  0.00     0.102 C 
ATOM      4  C   UNL d   1       3.118  -0.843   1.520  0.00  0.00     0.095 C 
BRANCH   4   5
ATOM      5  C   UNL d   1       4.601  -0.754   1.592  0.00  0.00     0.184 C 
ATOM      6  O   UNL d   1       5.334  -1.693   1.297  0.00  0.00    -0.287 OA
BRANCH   5   7
ATOM      7  C   UNL d   1       5.196   0.568   1.941  0.00  0.00     0.014 A 
ATOM      8  C   UNL d   1       4.537   1.501   2.754  0.00  0.00     0.015 A 
ATOM      9  C   UNL d   1       5.144   2.726   3.047  0.00  0.00     0.001 A 
ATOM     10  C   UNL d   1       6.409   3.023   2.540  0.00  0.00     0.000 A 
ATOM     11  C   UNL d   1       7.076   2.093   1.745  0.00  0.00     0.001 A 
ATOM     12  C   UNL d   1       6.475   0.867   1.451  0.00  0.00     0.015 A 
ENDBRANCH   5   7
ENDBRANCH   4   5
BRANCH   3  13
ATOM     13  O   UNL d   1       3.057  -3.194   1.888  0.00  0.00    -0.358 OA
ATOM     14  H   UNL d   1       2.954  -3.734   1.083  0.00  0.00     0.217 HD
ENDBRANCH   3  13
ENDBRANCH   2   3
BRANCH   2  15
ATOM     15  O   UNL d   1       0.425  -1.083   0.711  0.00  0.00    -0.358 OA
ATOM     16  H   UNL d   1      -0.530  -1.296   0.598  0.00  0.00     0.217 HD
ENDBRANCH   2  15
BRANCH   1  17
ATOM     17  C   UNL d   1      -1.218  -3.069   1.993  0.00  0.00     0.184 C 
ATOM     18  O   UNL d   1      -1.795  -2.469   1.090  0.00  0.00    -0.287 OA
BRANCH  17  19
ATOM     19  C   UNL d   1      -1.974  -3.847   3.008  0.00  0.00     0.014 A 
ATOM     20  C   UNL d   1      -1.504  -4.000   4.320  0.00  0.00     0.015 A 
ATOM     21  C   UNL d   1      -2.265  -4.702   5.257  0.00  0.00     0.001 A 
ATOM     22  C   UNL d   1      -3.494  -5.249   4.891  0.00  0.00     0.000 A 
ATOM     23  C   UNL d   1      -3.970  -5.091   3.590  0.00  0.00     0.001 A 
ATOM     24  C   UNL d   1      -3.215  -4.387   2.649  0.00  0.00     0.015 A 
ENDBRANCH  17  19
ENDBRANCH   1  17
TORSDOF 7
