REMARK  3 active torsions:
REMARK  status: ('A' for Active; 'I' for Inactive)
REMARK    1  A    between atoms: C_3  and  C_1 
REMARK    2  A    between atoms: S_15  and  C_6 
REMARK    3  A    between atoms: C_14  and  C_9 
ROOT
ATOM      1  C   UNL d   1      -0.086  -1.172   0.062  0.00  0.00     0.084 A 
ATOM      2  C   UNL d   1       1.148  -0.687   0.560  0.00  0.00     0.108 A 
ATOM      3  N   UNL d   1      -0.835  -0.180  -0.447  0.00  0.00    -0.296 N 
ATOM      4  HN  UNL d   1      -1.746  -0.249  -0.900  1.00  0.00     0.187 HD
ATOM      5  C   UNL d   1       1.119   0.671   0.361  0.00  0.00     0.109 A 
ATOM      6  N   UNL d   1      -0.096   0.936  -0.220  0.00  0.00    -0.288 N 
ATOM      7  C   UNL d   1       2.206  -1.440   1.132  0.00  0.00     0.104 C 
ATOM      8  N   UNL d   1       3.057  -2.083   1.596  0.00  0.00    -0.191 NA
ATOM      9  C   UNL d   1      -0.608   2.232  -0.613  0.00  0.00     0.178 C 
ENDROOT
BRANCH   1  10
ATOM     10  C   UNL d   1      -0.460  -2.592   0.063  0.00  0.00     0.025 A 
ATOM     11  C   UNL d   1      -0.098  -3.516   1.080  0.00  0.00     0.050 A 
ATOM     12  C   UNL d   1      -0.454  -4.773   0.638  0.00  0.00     0.061 A 
ATOM     13  O   UNL d   1      -1.115  -4.657  -0.553  0.00  0.00    -0.318 OA
ATOM     14  C   UNL d   1      -1.125  -3.329  -0.896  0.00  0.00     0.062 A 
ATOM     15  C   UNL d   1      -1.747  -3.007  -2.197  0.00  0.00     0.077 C 
BRANCH  12  16
ATOM     16  C   UNL d   1      -0.218  -6.150   1.220  0.00  0.00    -0.002 C 
ATOM     17  C   UNL d   1      -0.880  -6.240   2.607  0.00  0.00     0.021 C 
ATOM     18  C   UNL d   1      -0.786  -7.263   0.325  0.00  0.00     0.021 C 
ATOM     19  C   UNL d   1       1.298  -6.394   1.385  0.00  0.00     0.021 C 
ENDBRANCH  12  16
ENDBRANCH   1  10
BRANCH   5  20
ATOM     20  S   UNL d   1       2.254   1.930   0.755  0.00  0.00    -0.114 SA
ATOM     21  C   UNL d   1       3.704   1.434  -0.206  0.00  0.00     0.097 C 
ENDBRANCH   5  20
TORSDOF 3
