REMARK  10 active torsions:
REMARK  status: ('A' for Active; 'I' for Inactive)
REMARK    1  A    between atoms: C_8  and  N_1 
REMARK    2  A    between atoms: C_12  and  C_5 
REMARK    3  A    between atoms: C_11  and  C_8 
REMARK    4  A    between atoms: C_9  and  C_14 
REMARK    5  A    between atoms: C_10  and  C_13 
REMARK       I    between atoms: N_16  and  C_11 
REMARK    6  A    between atoms: C_15  and  N_20 
REMARK    7  A    between atoms: N_21  and  C_15 
REMARK    8  A    between atoms: N_20  and  N_16 
REMARK    9  A    between atoms: C_30  and  N_21 
REMARK   10  A    between atoms: C_37  and  C_31 
ROOT
ATOM      1  N   UNL d   1      -0.104  -1.196  -0.080  0.00  0.00    -0.203 N 
ATOM      2  N   UNL d   1       0.917  -0.761  -0.854  0.00  0.00    -0.268 N 
ATOM      3  HN  UNL d   1       1.460  -1.259  -1.560  1.00  0.00     0.190 HD
ATOM      4  N   UNL d   1      -0.659  -0.267   0.712  0.00  0.00    -0.002 NA
ATOM      5  C   UNL d   1       1.016   0.513  -0.430  0.00  0.00     0.144 A 
ATOM      6  N   UNL d   1       0.048   0.833   0.492  0.00  0.00    -0.266 N 
ATOM      7  HN  UNL d   1      -0.099   1.745   0.926  1.00  0.00     0.186 HD
ENDROOT
BRANCH   1   8
ATOM      8  C   UNL d   1      -0.406  -2.608   0.069  0.00  0.00     0.214 C 
ATOM      9  C   UNL d   1       0.846  -3.413   0.418  0.00  0.00     0.046 C 
BRANCH   8  10
ATOM     10  C   UNL d   1      -1.076  -3.205  -1.153  0.00  0.00     0.262 C 
ATOM     11  N   UNL d   1      -0.841  -2.611  -2.374  0.00  0.00    -0.266 N 
ATOM     12  H   UNL d   1      -0.158  -1.861  -2.503  0.00  0.00     0.190 HD
ATOM     13  O   UNL d   1      -1.731  -4.250  -1.072  0.00  0.00    -0.269 OA
BRANCH  11  14
ATOM     14  N   UNL d   1      -1.210  -3.325  -3.528  0.00  0.00    -0.273 N 
ATOM     15  H   UNL d   1      -1.695  -4.201  -3.326  0.00  0.00     0.189 HD
BRANCH  14  16
ATOM     16  C   UNL d   1      -1.611  -2.684  -4.665  0.00  0.00     0.191 C 
ATOM     17  S   UNL d   1      -1.951  -1.044  -4.763  0.00  0.00    -0.039 SA
BRANCH  16  18
ATOM     18  N   UNL d   1      -1.694  -3.411  -5.821  0.00  0.00    -0.332 N 
ATOM     19  H   UNL d   1      -2.041  -2.845  -6.589  0.00  0.00     0.168 HD
BRANCH  18  20
ATOM     20  C   UNL d   1      -1.100  -4.636  -6.207  0.00  0.00     0.034 A 
ATOM     21  C   UNL d   1      -0.466  -5.539  -5.354  0.00  0.00     0.030 A 
ATOM     22  C   UNL d   1       0.204  -6.659  -5.862  0.00  0.00     0.009 A 
ATOM     23  C   UNL d   1       0.269  -6.891  -7.237  0.00  0.00    -0.058 A 
ATOM     24  C   UNL d   1      -0.395  -6.013  -8.096  0.00  0.00     0.009 A 
ATOM     25  C   UNL d   1      -1.084  -4.908  -7.584  0.00  0.00     0.030 A 
BRANCH  23  26
ATOM     26  C   UNL d   1       1.109  -8.021  -7.774  0.00  0.00     0.034 C 
ATOM     27  C   UNL d   1       2.566  -7.602  -7.915  0.00  0.00     0.010 C 
ENDBRANCH  23  26
ENDBRANCH  18  20
ENDBRANCH  16  18
ENDBRANCH  14  16
ENDBRANCH  11  14
ENDBRANCH   8  10
ENDBRANCH   1   8
BRANCH   5  28
ATOM     28  C   UNL d   1       2.075   1.435  -0.826  0.00  0.00     0.012 A 
ATOM     29  C   UNL d   1       3.113   1.008  -1.670  0.00  0.00     0.031 A 
ATOM     30  C   UNL d   1       4.169   1.867  -2.018  0.00  0.00     0.049 A 
ATOM     31  C   UNL d   1       4.172   3.175  -1.514  0.00  0.00     0.032 A 
ATOM     32  C   UNL d   1       3.145   3.631  -0.671  0.00  0.00     0.049 A 
ATOM     33  C   UNL d   1       2.101   2.749  -0.335  0.00  0.00     0.031 A 
BRANCH  30  34
ATOM     34  C   UNL d   1       5.294   1.396  -2.911  0.00  0.00     0.417 C 
ATOM     35  F   UNL d   1       5.161   0.105  -3.321  0.00  0.00    -0.166 F 
ATOM     36  F   UNL d   1       5.401   2.141  -4.044  0.00  0.00    -0.166 F 
ATOM     37  F   UNL d   1       6.505   1.471  -2.296  0.00  0.00    -0.166 F 
ENDBRANCH  30  34
BRANCH  32  38
ATOM     38  C   UNL d   1       3.183   5.043  -0.134  0.00  0.00     0.417 C 
ATOM     39  F   UNL d   1       2.124   5.355   0.662  0.00  0.00    -0.166 F 
ATOM     40  F   UNL d   1       4.296   5.278   0.614  0.00  0.00    -0.166 F 
ATOM     41  F   UNL d   1       3.195   5.972  -1.127  0.00  0.00    -0.166 F 
ENDBRANCH  32  38
ENDBRANCH   5  28
TORSDOF 10
