REMARK  2 active torsions:
REMARK  status: ('A' for Active; 'I' for Inactive)
REMARK    1  A    between atoms: C_9  and  N_1 
REMARK    2  A    between atoms: C_2  and  C_10 
ROOT
ATOM      1  C   UNL d   1       0.285   0.012   1.140  0.00  0.00     0.102 A 
ATOM      2  C   UNL d   1      -1.155   0.070   3.551  0.00  0.00     0.011 A 
ATOM      3  C   UNL d   1       0.702   0.854   2.179  0.00  0.00     0.037 A 
ATOM      4  C   UNL d   1      -0.848  -0.797   1.294  0.00  0.00     0.037 A 
ATOM      5  C   UNL d   1      -0.019   0.879   3.377  0.00  0.00     0.018 A 
ATOM      6  C   UNL d   1      -1.561  -0.765   2.498  0.00  0.00     0.018 A 
ENDROOT
BRANCH   2   7
ATOM      7  C   UNL d   1      -1.899   0.095   4.804  0.00  0.00     0.144 A 
ATOM      8  N   UNL d   1      -2.994  -0.706   5.041  0.00  0.00    -0.266 N 
ATOM      9  N   UNL d   1      -3.418  -0.425   6.265  0.00  0.00    -0.005 NA
ATOM     10  HN  UNL d   1      -3.401  -1.385   4.398  1.00  0.00     0.186 HD
ATOM     11  N   UNL d   1      -2.577   0.516   6.704  0.00  0.00    -0.225 N 
ATOM     12  N   UNL d   1      -1.608   0.886   5.853  0.00  0.00    -0.271 N 
ATOM     13  H   UNL d   1      -2.670   0.926   7.630  0.00  0.00     0.205 HD
ATOM     14  HN  UNL d   1      -0.862   1.572   5.968  1.00  0.00     0.190 HD
ENDBRANCH   2   7
BRANCH   1  15
ATOM     15  N   UNL d   1       1.044  -0.026  -0.116  0.00  0.00    -0.116 N 
ATOM     16  O   UNL d   1       2.046   0.697  -0.206  0.00  0.00    -0.532 OA
ATOM     17  O   UNL d   1       0.637  -0.779  -1.012  0.00  0.00    -0.532 OA
ENDBRANCH   1  15
TORSDOF 2
