REMARK  6 active torsions:
REMARK  status: ('A' for Active; 'I' for Inactive)
REMARK    1  A    between atoms: C_10  and  N_4 
REMARK    2  A    between atoms: C_11  and  C_5 
REMARK    3  A    between atoms: C_12  and  C_6 
REMARK    4  A    between atoms: C_15  and  C_10 
REMARK    5  A    between atoms: O_24  and  C_13 
REMARK    6  A    between atoms: O_25  and  C_14 
ROOT
ATOM      1  C   UNL d   1      -1.264  -0.100   0.047  0.00  0.00     0.021 C 
ATOM      2  C   UNL d   1       1.293  -0.069   0.025  0.00  0.00     0.021 C 
ATOM      3  C   UNL d   1       0.024  -0.864   0.027  0.00  0.00     0.188 C 
ATOM      4  N   UNL d   1      -0.022   1.978  -0.398  0.00  0.00     0.101 N 
ATOM      5  C   UNL d   1      -2.402  -0.798  -0.148  0.00  0.00     0.024 C 
ATOM      6  C   UNL d   1       2.450  -0.748  -0.131  0.00  0.00     0.024 C 
ATOM      7  C   UNL d   1      -1.184   1.382   0.271  0.00  0.00     0.315 C 
ATOM      8  C   UNL d   1       1.195   1.418   0.207  0.00  0.00     0.315 C 
ATOM      9  O   UNL d   1       0.037  -2.096   0.030  0.00  0.00    -0.287 OA
ENDROOT
BRANCH   5  10
ATOM     10  C   UNL d   1      -3.733  -0.190  -0.223  0.00  0.00    -0.035 A 
ATOM     11  C   UNL d   1      -4.221   0.240  -1.461  0.00  0.00     0.014 A 
ATOM     12  C   UNL d   1      -5.461   0.883  -1.556  0.00  0.00     0.037 A 
ATOM     13  C   UNL d   1      -6.226   1.101  -0.411  0.00  0.00     0.068 A 
ATOM     14  C   UNL d   1      -5.748   0.651   0.823  0.00  0.00     0.037 A 
ATOM     15  C   UNL d   1      -4.508   0.010   0.922  0.00  0.00     0.014 A 
BRANCH  13  16
ATOM     16  O   UNL d   1      -7.438   1.735  -0.365  0.00  0.00    -0.356 OA
ATOM     17  C   UNL d   1      -7.949   2.234  -1.596  0.00  0.00     0.210 C 
ENDBRANCH  13  16
ENDBRANCH   5  10
BRANCH   4  18
ATOM     18  C   UNL d   1      -0.065   3.449  -0.252  0.00  0.00     0.311 C 
BRANCH  18  19
ATOM     19  C   UNL d   1       1.054   4.167  -0.980  0.00  0.00    -0.030 A 
ATOM     20  C   UNL d   1       1.237   4.007  -2.361  0.00  0.00     0.009 A 
ATOM     21  C   UNL d   1       2.312   4.618  -3.010  0.00  0.00     0.001 A 
ATOM     22  C   UNL d   1       3.204   5.410  -2.290  0.00  0.00     0.000 A 
ATOM     23  C   UNL d   1       3.014   5.605  -0.924  0.00  0.00     0.001 A 
ATOM     24  C   UNL d   1       1.945   4.989  -0.272  0.00  0.00     0.009 A 
ENDBRANCH  18  19
ENDBRANCH   4  18
BRANCH   6  25
ATOM     25  C   UNL d   1       3.776  -0.127  -0.074  0.00  0.00    -0.035 A 
ATOM     26  C   UNL d   1       4.444  -0.041   1.152  0.00  0.00     0.014 A 
ATOM     27  C   UNL d   1       5.695   0.581   1.240  0.00  0.00     0.037 A 
ATOM     28  C   UNL d   1       6.290   1.125   0.102  0.00  0.00     0.068 A 
ATOM     29  C   UNL d   1       5.624   1.035  -1.124  0.00  0.00     0.037 A 
ATOM     30  C   UNL d   1       4.374   0.413  -1.215  0.00  0.00     0.014 A 
BRANCH  28  31
ATOM     31  O   UNL d   1       7.498   1.765   0.056  0.00  0.00    -0.356 OA
ATOM     32  C   UNL d   1       8.210   1.883   1.283  0.00  0.00     0.210 C 
ENDBRANCH  28  31
ENDBRANCH   6  25
TORSDOF 6
