REMARK  4 active torsions:
REMARK  status: ('A' for Active; 'I' for Inactive)
REMARK    1  A    between atoms: C_4  and  C_1 
REMARK       I    between atoms: C_2  and  N_3 
REMARK    2  A    between atoms: O_8  and  C_2 
REMARK    3  A    between atoms: N_3  and  C_5 
REMARK    4  A    between atoms: C_16  and  O_8 
ROOT
ATOM      1  C   UNL d   1      -1.107  -2.517   0.976  0.00  0.00     0.049 A 
ATOM      2  C   UNL d   1      -0.521  -3.936  -1.413  0.00  0.00     0.058 A 
ATOM      3  C   UNL d   1       0.163  -4.212  -0.211  0.00  0.00     0.061 A 
ATOM      4  C   UNL d   1      -0.122  -3.512   0.966  0.00  0.00     0.042 A 
ATOM      5  C   UNL d   1      -1.763  -2.214  -0.224  0.00  0.00     0.018 A 
ATOM      6  C   UNL d   1      -1.475  -2.915  -1.403  0.00  0.00     0.032 A 
ATOM      7 CL   UNL d   1       1.381  -5.442  -0.141  0.00  0.00    -0.082 Cl
ENDROOT
BRANCH   2   8
ATOM      8  N   UNL d   1      -0.236  -4.742  -2.537  0.00  0.00    -0.301 N 
ATOM      9  C   UNL d   1      -0.633  -4.682  -3.849  0.00  0.00     0.370 C 
ATOM     10  O   UNL d   1      -0.314  -5.575  -4.625  0.00  0.00    -0.238 OA
ATOM     11  H   UNL d   1       0.382  -5.530  -2.370  0.00  0.00     0.171 HD
BRANCH   9  12
ATOM     12  O   UNL d   1      -1.337  -3.533  -4.192  0.00  0.00    -0.261 OA
BRANCH  12  13
ATOM     13  C   UNL d   1      -1.783  -3.172  -5.485  0.00  0.00     0.081 A 
ATOM     14  C   UNL d   1      -1.926  -4.057  -6.548  0.00  0.00     0.037 A 
ATOM     15  C   UNL d   1      -2.381  -3.576  -7.779  0.00  0.00     0.003 A 
ATOM     16  C   UNL d   1      -2.700  -2.226  -7.935  0.00  0.00     0.000 A 
ATOM     17  C   UNL d   1      -2.570  -1.349  -6.859  0.00  0.00     0.003 A 
ATOM     18  C   UNL d   1      -2.113  -1.822  -5.630  0.00  0.00     0.037 A 
ENDBRANCH  12  13
ENDBRANCH   9  12
ENDBRANCH   2   8
BRANCH   1  19
ATOM     19  C   UNL d   1      -1.494  -1.805   2.249  0.00  0.00     0.417 C 
ATOM     20  F   UNL d   1      -0.802  -2.228   3.341  0.00  0.00    -0.166 F 
ATOM     21  F   UNL d   1      -2.811  -1.978   2.552  0.00  0.00    -0.166 F 
ATOM     22  F   UNL d   1      -1.300  -0.461   2.176  0.00  0.00    -0.166 F 
ENDBRANCH   1  19
TORSDOF 4
