REMARK  3 active torsions:
REMARK  status: ('A' for Active; 'I' for Inactive)
REMARK    1  A    between atoms: C_4  and  C_1 
REMARK    2  A    between atoms: C_12  and  C_5 
REMARK    3  A    between atoms: C_7  and  C_10 
ROOT
ATOM      1  C   UNL d   1       0.205  -1.137  -0.010  0.00  0.00     0.088 A 
ATOM      2  N   UNL d   1       1.389  -0.577   0.159  0.00  0.00    -0.349 N 
ATOM      3  HN  UNL d   1       2.251  -1.089   0.341  1.00  0.00     0.166 HD
ATOM      4  C   UNL d   1       1.300   0.801   0.056  0.00  0.00     0.050 A 
ATOM      5  S   UNL d   1      -1.065  -0.014  -0.347  0.00  0.00    -0.081 SA
ATOM      6  C   UNL d   1       0.025   1.289  -0.141  0.00  0.00     0.082 A 
ENDROOT
BRANCH   1   7
ATOM      7  C   UNL d   1      -0.039  -2.593  -0.038  0.00  0.00     0.041 A 
ATOM      8  C   UNL d   1      -1.073  -3.213   0.695  0.00  0.00     0.049 A 
ATOM      9  C   UNL d   1      -1.292  -4.599   0.622  0.00  0.00     0.041 A 
ATOM     10 CL   UNL d   1      -2.118  -2.361   1.787  0.00  0.00    -0.083 Cl
ATOM     11  C   UNL d   1      -0.464  -5.423  -0.147  0.00  0.00     0.051 A 
ATOM     12  C   UNL d   1       0.585  -4.827  -0.852  0.00  0.00     0.041 A 
ATOM     13  C   UNL d   1       0.794  -3.440  -0.805  0.00  0.00     0.049 A 
ATOM     14 CL   UNL d   1       2.104  -2.848  -1.776  0.00  0.00    -0.083 Cl
BRANCH  11  15
ATOM     15  C   UNL d   1      -0.713  -6.910  -0.201  0.00  0.00     0.417 C 
ATOM     16  F   UNL d   1       0.203  -7.588  -0.943  0.00  0.00    -0.166 F 
ATOM     17  F   UNL d   1      -0.695  -7.480   1.034  0.00  0.00    -0.166 F 
ATOM     18  F   UNL d   1      -1.927  -7.208  -0.736  0.00  0.00    -0.166 F 
ENDBRANCH  11  15
ENDBRANCH   1   7
BRANCH   4  19
ATOM     19  C   UNL d   1       2.488   1.641   0.082  0.00  0.00    -0.007 A 
ATOM     20  C   UNL d   1       3.636   1.224  -0.608  0.00  0.00     0.039 A 
ATOM     21  C   UNL d   1       4.777   2.033  -0.645  0.00  0.00     0.056 A 
ATOM     22 CL   UNL d   1       6.139   1.465  -1.546  0.00  0.00    -0.083 Cl
ATOM     23  C   UNL d   1       4.783   3.263   0.022  0.00  0.00     0.055 A 
ATOM     24  C   UNL d   1       3.647   3.676   0.723  0.00  0.00     0.026 A 
ATOM     25 CL   UNL d   1       6.152   4.316   0.019  0.00  0.00    -0.083 Cl
ATOM     26  C   UNL d   1       2.503   2.871   0.751  0.00  0.00     0.015 A 
ENDBRANCH   4  19
TORSDOF 3
