REMARK  3 active torsions:
REMARK  status: ('A' for Active; 'I' for Inactive)
REMARK    1  A    between atoms: C_13  and  C_4 
REMARK    2  A    between atoms: C_7  and  C_10 
REMARK    3  A    between atoms: C_11  and  N_8 
ROOT
ATOM      1  C   UNL d   1       0.220  -1.225  -0.024  0.00  0.00     0.147 A 
ATOM      2  N   UNL d   1       0.901  -0.544   0.878  0.00  0.00    -0.336 N 
ATOM      3  HN  UNL d   1       1.413  -0.971   1.650  1.00  0.00     0.168 HD
ATOM      4  C   UNL d   1       0.835   0.816   0.648  0.00  0.00     0.051 A 
ATOM      5  S   UNL d   1      -0.521  -0.218  -1.225  0.00  0.00    -0.064 SA
ATOM      6  N   UNL d   1       0.164  -2.590  -0.038  0.00  0.00    -0.358 N 
ATOM      7  N   UNL d   1      -0.231  -5.393   0.388  0.00  0.00    -0.378 N 
ATOM      8  C   UNL d   1       0.110   1.176  -0.465  0.00  0.00     0.083 A 
ATOM      9  C   UNL d   1       0.733  -3.262   1.156  0.00  0.00     0.145 C 
ATOM     10  C   UNL d   1      -1.034  -3.270  -0.577  0.00  0.00     0.145 C 
ATOM     11  C   UNL d   1      -0.763  -4.773  -0.834  0.00  0.00     0.143 C 
ATOM     12  C   UNL d   1       1.004  -4.753   0.876  0.00  0.00     0.143 C 
ENDROOT
BRANCH   4  13
ATOM     13  C   UNL d   1       1.542   1.755   1.511  0.00  0.00    -0.009 A 
ATOM     14  C   UNL d   1       2.696   1.333   2.187  0.00  0.00     0.015 A 
ATOM     15  C   UNL d   1       3.421   2.221   2.987  0.00  0.00     0.024 A 
ATOM     16  C   UNL d   1       2.987   3.538   3.121  0.00  0.00     0.034 A 
ATOM     17  C   UNL d   1       1.829   3.967   2.479  0.00  0.00     0.024 A 
ATOM     18 CL   UNL d   1       3.889   4.642   4.084  0.00  0.00    -0.084 Cl
ATOM     19  C   UNL d   1       1.105   3.077   1.677  0.00  0.00     0.015 A 
ENDBRANCH   4  13
BRANCH   7  20
ATOM     20  C   UNL d   1      -0.523  -6.691   0.750  0.00  0.00     0.030 A 
ATOM     21  C   UNL d   1      -0.917  -7.662  -0.176  0.00  0.00     0.045 A 
ATOM     22  C   UNL d   1      -1.293  -8.960   0.220  0.00  0.00     0.050 A 
ATOM     23  C   UNL d   1      -1.267  -9.288   1.581  0.00  0.00     0.016 A 
ATOM     24  C   UNL d   1      -0.870  -8.344   2.520  0.00  0.00     0.003 A 
ATOM     25  C   UNL d   1      -0.500  -7.064   2.103  0.00  0.00     0.029 A 
BRANCH  22  26
ATOM     26  C   UNL d   1      -1.726  -9.983  -0.797  0.00  0.00     0.417 C 
ATOM     27  F   UNL d   1      -1.709  -9.522  -2.080  0.00  0.00    -0.166 F 
ATOM     28  F   UNL d   1      -0.936 -11.093  -0.791  0.00  0.00    -0.166 F 
ATOM     29  F   UNL d   1      -2.995 -10.427  -0.581  0.00  0.00    -0.166 F 
ENDBRANCH  22  26
ENDBRANCH   7  20
TORSDOF 3
