REMARK  2 active torsions:
REMARK  status: ('A' for Active; 'I' for Inactive)
REMARK    1  A    between atoms: O_4  and  C_3 
REMARK    2  A    between atoms: C_11  and  O_4 
ROOT
ATOM      1  C   UNL d   1      -0.944  -0.782  -0.245  0.00  0.00     0.025 A 
ATOM      2  C   UNL d   1      -0.722   0.597  -0.027  0.00  0.00     0.046 A 
ATOM      3  C   UNL d   1      -2.283  -1.234  -0.096  0.00  0.00     0.089 A 
ATOM      4  C   UNL d   1       0.575   1.084  -0.020  0.00  0.00     0.054 A 
ATOM      5  C   UNL d   1       0.173  -1.591  -0.576  0.00  0.00     0.018 A 
ATOM      6  N   UNL d   1      -1.717   1.471   0.191  0.00  0.00    -0.365 N 
ATOM      7  HN  UNL d   1      -1.518   2.461   0.334  1.00  0.00     0.165 HD
ATOM      8  C   UNL d   1       1.666   0.251  -0.243  0.00  0.00     0.036 A 
ATOM      9  C   UNL d   1      -3.315  -0.318   0.098  0.00  0.00     0.055 A 
ATOM     10  C   UNL d   1       1.471  -1.087  -0.543  0.00  0.00     0.025 A 
ATOM     11  C   UNL d   1      -2.984   1.014   0.218  0.00  0.00     0.091 A 
ATOM     12 CL   UNL d   1       3.263   0.882  -0.151  0.00  0.00    -0.084 Cl
ENDROOT
BRANCH   3  13
ATOM     13  O   UNL d   1      -2.720  -2.542  -0.171  0.00  0.00    -0.310 OA
BRANCH  13  14
ATOM     14  C   UNL d   1      -2.027  -3.560   0.444  0.00  0.00     0.076 C 
ATOM     15  C   UNL d   1      -1.162  -3.408   1.532  0.00  0.00     0.045 C 
ATOM     16  C   UNL d   1      -0.328  -4.467   1.932  0.00  0.00    -0.038 C 
ATOM     17  C   UNL d   1       0.757  -4.207   2.940  0.00  0.00     0.050 C 
ATOM     18  C   UNL d   1      -0.478  -5.717   1.312  0.00  0.00     0.040 C 
ATOM     19  C   UNL d   1      -1.431  -5.898   0.306  0.00  0.00     0.027 C 
ATOM     20 CL   UNL d   1       0.521  -7.061   1.729  0.00  0.00    -0.084 Cl
ATOM     21  C   UNL d   1      -2.197  -4.819  -0.133  0.00  0.00     0.039 C 
ENDBRANCH  13  14
ENDBRANCH   3  13
TORSDOF 2
