REMARK  4 active torsions:
REMARK  status: ('A' for Active; 'I' for Inactive)
REMARK    1  A    between atoms: C_2  and  N_1 
REMARK       I    between atoms: C_3  and  N_1 
REMARK    2  A    between atoms: N_4  and  C_2 
REMARK    3  A    between atoms: C_11  and  C_3 
REMARK    4  A    between atoms: C_7  and  N_4 
ROOT
ATOM      1  C   UNL d   1       0.838   1.021   0.906  0.00  0.00     0.179 C 
ATOM      2  S   UNL d   1      -0.802   0.929   1.233  0.00  0.00    -0.040 SA
ENDROOT
BRANCH   1   3
ATOM      3  N   UNL d   1       1.614   0.057   0.296  0.00  0.00    -0.299 N 
ATOM      4  C   UNL d   1       1.144  -1.205  -0.045  0.00  0.00     0.257 C 
ATOM      5  O   UNL d   1       0.644  -1.993   0.751  0.00  0.00    -0.267 OA
ATOM      6  H   UNL d   1       2.252   0.492  -0.354  0.00  0.00     0.171 HD
BRANCH   4   7
ATOM      7  C   UNL d   1       1.332  -1.637  -1.455  0.00  0.00     0.032 A 
ATOM      8  C   UNL d   1       2.492  -1.359  -2.188  0.00  0.00     0.017 A 
ATOM      9  C   UNL d   1       2.589  -1.785  -3.516  0.00  0.00     0.001 A 
ATOM     10  C   UNL d   1       1.536  -2.483  -4.112  0.00  0.00     0.000 A 
ATOM     11  C   UNL d   1       0.386  -2.773  -3.382  0.00  0.00     0.001 A 
ATOM     12  C   UNL d   1       0.285  -2.357  -2.053  0.00  0.00     0.017 A 
ENDBRANCH   4   7
ENDBRANCH   1   3
BRANCH   1  13
ATOM     13  N   UNL d   1       1.446   2.225   1.148  0.00  0.00    -0.333 N 
ATOM     14  H   UNL d   1       0.780   2.976   1.307  0.00  0.00     0.168 HD
BRANCH  13  15
ATOM     15  C   UNL d   1       2.778   2.537   1.492  0.00  0.00     0.034 A 
ATOM     16  C   UNL d   1       3.114   3.899   1.526  0.00  0.00     0.037 A 
ATOM     17  C   UNL d   1       4.382   4.270   1.943  0.00  0.00    -0.050 A 
ATOM     18  C   UNL d   1       4.948   5.651   2.078  0.00  0.00     0.039 C 
ATOM     19  C   UNL d   1       5.306   3.312   2.368  0.00  0.00    -0.052 A 
ATOM     20  C   UNL d   1       6.449   5.340   2.172  0.00  0.00     0.009 C 
ATOM     21  C   UNL d   1       6.559   3.971   2.859  0.00  0.00     0.039 C 
ATOM     22  C   UNL d   1       4.986   1.966   2.361  0.00  0.00     0.010 A 
ATOM     23  C   UNL d   1       3.717   1.577   1.905  0.00  0.00     0.030 A 
ENDBRANCH  13  15
ENDBRANCH   1  13
TORSDOF 4
