REMARK  4 active torsions:
REMARK  status: ('A' for Active; 'I' for Inactive)
REMARK    1  A    between atoms: N_7  and  C_1 
REMARK    2  A    between atoms: C_13  and  N_3 
REMARK    3  A    between atoms: C_9  and  C_6 
REMARK       I    between atoms: C_8  and  N_7 
REMARK    4  A    between atoms: C_12  and  C_8 
ROOT
ATOM      1  C   UNL d   1      -0.118  -1.169   0.553  0.00  0.00     0.149 C 
ATOM      2  C   UNL d   1       0.931  -0.418   1.050  0.00  0.00     0.081 C 
ATOM      3  N   UNL d   1      -1.008  -0.183   0.098  0.00  0.00    -0.238 N 
ATOM      4  N   UNL d   1      -0.321   0.922  -0.291  0.00  0.00    -0.294 N 
ATOM      5  HN  UNL d   1      -0.613   1.654  -0.938  1.00  0.00     0.187 HD
ATOM      6  C   UNL d   1       0.833   0.817   0.381  0.00  0.00     0.051 C 
ATOM      7 BR   UNL d   1       2.262  -0.839   2.305  0.00  0.00    -0.045 Br
ENDROOT
BRANCH   1   8
ATOM      8  N   UNL d   1      -0.327  -2.555   0.496  0.00  0.00    -0.310 N 
ATOM      9  C   UNL d   1       0.725  -3.539   0.562  0.00  0.00     0.231 C 
ATOM     10  O   UNL d   1       1.894  -3.187   0.560  0.00  0.00    -0.272 OA
ATOM     11  H   UNL d   1      -1.225  -2.864   0.156  0.00  0.00     0.170 HD
BRANCH   9  12
ATOM     12  C   UNL d   1       0.306  -5.007   0.453  0.00  0.00     0.030 C 
ATOM     13  C   UNL d   1       0.513  -5.423  -1.008  0.00  0.00     0.025 C 
ATOM     14  C   UNL d   1       1.221  -5.842   1.365  0.00  0.00     0.025 C 
ATOM     15  C   UNL d   1      -1.149  -5.256   0.869  0.00  0.00     0.025 C 
ENDBRANCH   9  12
ENDBRANCH   1   8
BRANCH   3  16
ATOM     16  C   UNL d   1      -2.434  -0.209   0.038  0.00  0.00     0.058 A 
ATOM     17  C   UNL d   1      -3.180  -1.222   0.660  0.00  0.00     0.031 A 
ATOM     18  C   UNL d   1      -4.579  -1.180   0.638  0.00  0.00     0.002 A 
ATOM     19  C   UNL d   1      -5.241  -0.116   0.032  0.00  0.00     0.000 A 
ATOM     20  C   UNL d   1      -4.510   0.910  -0.559  0.00  0.00     0.002 A 
ATOM     21  C   UNL d   1      -3.113   0.864  -0.562  0.00  0.00     0.031 A 
ENDBRANCH   3  16
BRANCH   6  22
ATOM     22  C   UNL d   1       1.906   1.902   0.354  0.00  0.00     0.038 A 
ATOM     23  C   UNL d   1       1.530   3.333   0.033  0.00  0.00     0.011 A 
ATOM     24  C   UNL d   1       2.239   2.518  -0.993  0.00  0.00     0.011 A 
ENDBRANCH   6  22
TORSDOF 4
