REMARK  4 active torsions:
REMARK  status: ('A' for Active; 'I' for Inactive)
REMARK    1  A    between atoms: C_6  and  C_1 
REMARK    2  A    between atoms: N_7  and  C_6 
REMARK    3  A    between atoms: C_8  and  N_7 
REMARK    4  A    between atoms: S_10  and  C_9 
ROOT
ATOM      1  C   UNL d   1       3.204  -1.261   0.088  0.00  0.00     0.135 C 
ATOM      2  C   UNL d   1       3.401  -1.389  -1.315  0.00  0.00     0.111 C 
ATOM      3  C   UNL d   1       4.132  -0.488   0.841  0.00  0.00     0.111 C 
ATOM      4  N   UNL d   1       3.567  -1.459  -2.462  0.00  0.00    -0.191 NA
ATOM      5  N   UNL d   1       4.874   0.144   1.469  0.00  0.00    -0.191 NA
ENDROOT
BRANCH   1   6
ATOM      6  C   UNL d   1       2.133  -1.806   0.702  0.00  0.00     0.096 C 
BRANCH   6   7
ATOM      7  N   UNL d   1       1.111  -2.555   0.143  0.00  0.00    -0.266 NA
ATOM      8  H   UNL d   1       0.211  -2.377   0.601  0.00  0.00     0.133 HD
BRANCH   7   9
ATOM      9  C   UNL d   1       1.177  -3.980   0.010  0.00  0.00     0.029 A 
ATOM     10  C   UNL d   1       0.278  -4.658  -0.848  0.00  0.00     0.021 A 
ATOM     11  C   UNL d   1       0.293  -6.063  -0.893  0.00  0.00     0.020 A 
ATOM     12  C   UNL d   1       1.164  -6.800  -0.090  0.00  0.00     0.001 A 
ATOM     13  C   UNL d   1       2.029  -6.140   0.773  0.00  0.00     0.002 A 
ATOM     14  C   UNL d   1       2.040  -4.744   0.820  0.00  0.00     0.025 A 
BRANCH  10  15
ATOM     15  S   UNL d   1      -0.997  -3.870  -1.845  0.00  0.00    -0.133 SA
ATOM     16  C   UNL d   1      -0.103  -2.492  -2.614  0.00  0.00     0.095 C 
ENDBRANCH  10  15
ENDBRANCH   7   9
ENDBRANCH   6   7
ENDBRANCH   1   6
TORSDOF 4
