REMARK  3 active torsions:
REMARK  status: ('A' for Active; 'I' for Inactive)
REMARK    1  A    between atoms: C_5  and  C_1 
REMARK    2  A    between atoms: S_16  and  C_8 
REMARK    3  A    between atoms: C_11  and  C_13 
ROOT
ATOM      1  C   UNL d   1      -0.702  -2.407   0.032  0.00  0.00     0.039 A 
ATOM      2  N   UNL d   1      -0.753  -4.625   1.024  0.00  0.00    -0.355 N 
ATOM      3  HN  UNL d   1      -0.479  -5.255   1.777  1.00  0.00     0.166 HD
ATOM      4  C   UNL d   1      -0.359  -3.319   1.041  0.00  0.00     0.020 A 
ATOM      5  C   UNL d   1      -1.514  -5.077  -0.009  0.00  0.00     0.117 A 
ATOM      6  C   UNL d   1      -1.495  -2.897  -1.017  0.00  0.00     0.020 A 
ATOM      7  C   UNL d   1      -1.904  -4.232  -1.042  0.00  0.00     0.035 A 
ATOM      8  C   UNL d   1       0.476  -2.939   2.233  0.00  0.00     0.069 C 
ENDROOT
BRANCH   1   9
ATOM      9  C   UNL d   1      -0.261  -1.016   0.052  0.00  0.00     0.177 A 
ATOM     10  O   UNL d   1      -0.681  -0.203  -0.972  0.00  0.00    -0.267 OA
ATOM     11  C   UNL d   1      -0.094   0.993  -0.651  0.00  0.00     0.203 A 
ATOM     12  N   UNL d   1       0.614   0.920   0.458  0.00  0.00    -0.272 N 
ATOM     13  N   UNL d   1       0.506  -0.374   0.910  0.00  0.00    -0.277 N 
ATOM     14  HN  UNL d   1       1.140   1.676   0.895  1.00  0.00     0.189 HD
ATOM     15  HN  UNL d   1       0.937  -0.763   1.749  1.00  0.00     0.189 HD
BRANCH  11  16
ATOM     16  S   UNL d   1      -0.279   2.425  -1.615  0.00  0.00    -0.089 SA
ATOM     17  C   UNL d   1       0.733   3.583  -0.665  0.00  0.00     0.099 C 
ENDBRANCH  11  16
ENDBRANCH   1   9
BRANCH   5  18
ATOM     18  C   UNL d   1      -1.948  -6.538  -0.042  0.00  0.00     0.432 C 
ATOM     19  F   UNL d   1      -1.509  -7.282   1.012  0.00  0.00    -0.165 F 
ATOM     20  F   UNL d   1      -3.306  -6.677  -0.056  0.00  0.00    -0.165 F 
ATOM     21  F   UNL d   1      -1.506  -7.185  -1.161  0.00  0.00    -0.165 F 
ENDBRANCH   5  18
TORSDOF 3
