REMARK  1 active torsions:
REMARK  status: ('A' for Active; 'I' for Inactive)
REMARK    1  A    between atoms: N_8  and  C_2 
REMARK       I    between atoms: C_10  and  N_8 
ROOT
ATOM      1  O   UNL d   1       1.153   1.455  -0.011  0.00  0.00    -0.272 OA
ATOM      2  C   UNL d   1       2.440  -0.655  -0.010  0.00  0.00     0.112 A 
ATOM      3  C   UNL d   1       2.401   0.844  -0.025  0.00  0.00     0.315 A 
ATOM      4  C   UNL d   1      -0.046   0.713  -0.002  0.00  0.00     0.107 A 
ATOM      5  C   UNL d   1       0.007  -0.678   0.000  0.00  0.00     0.003 A 
ATOM      6  C   UNL d   1       1.296  -1.345   0.002  0.00  0.00     0.050 A 
ATOM      7  C   UNL d   1      -1.275   1.377   0.001  0.00  0.00     0.047 A 
ATOM      8  C   UNL d   1      -2.462   0.640   0.002  0.00  0.00     0.041 A 
ATOM      9  C   UNL d   1      -1.180  -1.416   0.002  0.00  0.00     0.033 A 
ATOM     10  C   UNL d   1      -2.406  -0.753   0.001  0.00  0.00     0.013 A 
ATOM     11  O   UNL d   1       3.447   1.489  -0.045  0.00  0.00    -0.257 OA
ATOM     12 BR   UNL d   1      -1.384   3.268   0.004  0.00  0.00    -0.048 Br
ATOM     13 BR   UNL d   1      -4.005  -1.761  -0.002  0.00  0.00    -0.051 Br
ENDROOT
BRANCH   2  14
ATOM     14  N   UNL d   1       3.707  -1.225  -0.013  0.00  0.00    -0.322 N 
ATOM     15  C   UNL d   1       4.030  -2.567   0.007  0.00  0.00     0.218 C 
ATOM     16  O   UNL d   1       3.231  -3.499   0.038  0.00  0.00    -0.274 OA
ATOM     17  C   UNL d   1       5.510  -2.847  -0.011  0.00  0.00     0.117 C 
ATOM     18  H   UNL d   1       4.467  -0.545  -0.029  0.00  0.00     0.169 HD
ENDBRANCH   2  14
TORSDOF 1
