REMARK  5 active torsions:
REMARK  status: ('A' for Active; 'I' for Inactive)
REMARK    1  A    between atoms: C_14  and  C_1 
REMARK    2  A    between atoms: O_21  and  C_3 
REMARK       I    between atoms: C_4  and  N_13 
REMARK    3  A    between atoms: C_9  and  C_4 
REMARK    4  A    between atoms: N_13  and  N_6 
REMARK    5  A    between atoms: C_11  and  C_12 
ROOT
ATOM      1  C   UNL d   1       1.518   6.542   0.096  0.00  0.00     0.270 C 
ATOM      2  N   UNL d   1       1.085   7.008   1.333  0.00  0.00    -0.266 N 
ATOM      3  O   UNL d   1       0.820   6.444  -0.909  0.00  0.00    -0.266 OA
ATOM      4  H   UNL d   1       1.675   6.946   2.154  0.00  0.00     0.190 HD
ENDROOT
BRANCH   2   5
ATOM      5  N   UNL d   1      -0.193   7.459   1.466  0.00  0.00    -0.308 N 
ATOM      6  C   UNL d   1      -0.547   7.860   2.647  0.00  0.00     0.121 C 
ATOM      7  HN  UNL d   1      -0.839   7.480   0.676  1.00  0.00     0.186 HD
BRANCH   6   8
ATOM      8  C   UNL d   1      -1.911   8.378   2.885  0.00  0.00     0.017 A 
ATOM      9  C   UNL d   1      -2.293   8.828   4.153  0.00  0.00     0.099 A 
ATOM     10  C   UNL d   1      -3.590   9.318   4.352  0.00  0.00     0.069 A 
ATOM     11 CL   UNL d   1      -4.079   9.877   5.910  0.00  0.00    -0.081 Cl
ATOM     12  C   UNL d   1      -4.504   9.362   3.299  0.00  0.00     0.050 A 
ATOM     13  C   UNL d   1      -4.115   8.912   2.040  0.00  0.00     0.036 A 
ATOM     14  C   UNL d   1      -2.828   8.422   1.826  0.00  0.00     0.039 A 
ATOM     15 CL   UNL d   1      -5.236   8.965   0.737  0.00  0.00    -0.084 Cl
BRANCH   9  16
ATOM     16  O   UNL d   1      -1.397   8.787   5.190  0.00  0.00    -0.358 OA
ATOM     17  H   UNL d   1      -1.847   9.140   5.983  0.00  0.00     0.217 HD
ENDBRANCH   9  16
ENDBRANCH   6   8
ENDBRANCH   2   5
BRANCH   1  18
ATOM     18  C   UNL d   1       2.942   6.106   0.035  0.00  0.00     0.033 A 
ATOM     19  C   UNL d   1       3.301   5.093  -0.858  0.00  0.00     0.017 A 
ATOM     20  C   UNL d   1       4.627   4.644  -0.920  0.00  0.00     0.009 A 
ATOM     21  C   UNL d   1       5.630   5.195  -0.100  0.00  0.00    -0.051 A 
ATOM     22  C   UNL d   1       5.253   6.247   0.754  0.00  0.00     0.009 A 
ATOM     23  C   UNL d   1       3.929   6.700   0.822  0.00  0.00     0.017 A 
BRANCH  21  24
ATOM     24  C   UNL d   1       7.065   4.635  -0.136  0.00  0.00    -0.024 C 
ATOM     25  C   UNL d   1       8.026   5.345   0.846  0.00  0.00     0.019 C 
ATOM     26  C   UNL d   1       7.042   3.140   0.252  0.00  0.00     0.019 C 
ATOM     27  C   UNL d   1       7.671   4.775  -1.548  0.00  0.00     0.019 C 
ENDBRANCH  21  24
ENDBRANCH   1  18
TORSDOF 5
