REMARK  6 active torsions:
REMARK  status: ('A' for Active; 'I' for Inactive)
REMARK    1  A    between atoms: C_13  and  C_1 
REMARK    2  A    between atoms: C_4  and  N_7 
REMARK    3  A    between atoms: N_12  and  C_4 
REMARK    4  A    between atoms: N_7  and  C_13 
REMARK    5  A    between atoms: C_8  and  C_14 
REMARK    6  A    between atoms: C_14  and  N_12 
ROOT
ATOM      1  N   UNL d   1      -0.107  -4.092   0.102  0.00  0.00    -0.363 N 
ATOM      2  H   UNL d   1      -0.951  -3.708   0.500  0.00  0.00     0.162 HD
ENDROOT
BRANCH   1   3
ATOM      3  C   UNL d   1      -0.135  -5.419  -0.280  0.00  0.00     0.167 C 
ATOM      4  S   UNL d   1       1.221  -6.382  -0.478  0.00  0.00    -0.041 SA
BRANCH   3   5
ATOM      5  N   UNL d   1      -1.432  -5.838  -0.520  0.00  0.00    -0.367 N 
ATOM      6  H   UNL d   1      -2.124  -5.107  -0.599  0.00  0.00     0.161 HD
BRANCH   5   7
ATOM      7  C   UNL d   1      -1.759  -7.081  -1.206  0.00  0.00     0.126 C 
BRANCH   7   8
ATOM      8  C   UNL d   1      -3.212  -7.402  -1.081  0.00  0.00     0.003 A 
ATOM      9  C   UNL d   1      -3.812  -7.806   0.242  0.00  0.00     0.007 A 
ATOM     10  C   UNL d   1      -3.622  -8.835  -0.836  0.00  0.00     0.007 A 
ENDBRANCH   7   8
ENDBRANCH   5   7
ENDBRANCH   3   5
ENDBRANCH   1   3
BRANCH   1  11
ATOM     11  C   UNL d   1       1.055  -3.213   0.090  0.00  0.00     0.162 C 
BRANCH  11  12
ATOM     12  C   UNL d   1       1.613  -3.029   1.468  0.00  0.00    -0.022 A 
ATOM     13  C   UNL d   1       2.516  -3.897   2.050  0.00  0.00     0.060 A 
ATOM     14  S   UNL d   1       3.034  -3.401   3.591  0.00  0.00    -0.101 SA
ATOM     15  C   UNL d   1       2.087  -1.967   3.522  0.00  0.00     0.015 A 
ATOM     16  C   UNL d   1       1.360  -1.889   2.332  0.00  0.00    -0.011 A 
ATOM     17  C   UNL d   1       2.024  -0.962   4.505  0.00  0.00     0.019 A 
ATOM     18  C   UNL d   1       0.538  -0.743   2.145  0.00  0.00     0.013 A 
ATOM     19  C   UNL d   1       0.476   0.259   3.118  0.00  0.00     0.001 A 
ATOM     20  C   UNL d   1       1.214   0.153   4.285  0.00  0.00     0.001 A 
ENDBRANCH  11  12
ENDBRANCH   1  11
TORSDOF 6
