REMARK  5 active torsions:
REMARK  status: ('A' for Active; 'I' for Inactive)
REMARK    1  A    between atoms: C_3  and  C_1 
REMARK    2  A    between atoms: C_4  and  C_1 
REMARK    3  A    between atoms: C_8  and  C_2 
REMARK    4  A    between atoms: C_13  and  C_3 
REMARK    5  A    between atoms: N_5  and  C_4 
ROOT
ATOM      1  C   UNL d   1       0.955  -0.049   0.075  0.00  0.00     0.078 C 
ATOM      2  C   UNL d   1       0.244  -0.122   1.215  0.00  0.00     0.044 C 
ENDROOT
BRANCH   1   3
ATOM      3  C   UNL d   1       0.211   0.043  -1.211  0.00  0.00     0.201 C 
ATOM      4  O   UNL d   1      -0.916  -0.434  -1.331  0.00  0.00    -0.286 OA
BRANCH   3   5
ATOM      5  C   UNL d   1       0.846   0.713  -2.377  0.00  0.00     0.015 A 
ATOM      6  C   UNL d   1       0.593   0.194  -3.653  0.00  0.00     0.015 A 
ATOM      7  C   UNL d   1       1.163   0.792  -4.778  0.00  0.00     0.001 A 
ATOM      8  C   UNL d   1       1.977   1.914  -4.633  0.00  0.00     0.000 A 
ATOM      9  C   UNL d   1       2.209   2.452  -3.368  0.00  0.00     0.001 A 
ATOM     10  C   UNL d   1       1.635   1.862  -2.239  0.00  0.00     0.015 A 
ENDBRANCH   3   5
ENDBRANCH   1   3
BRANCH   1  11
ATOM     11  C   UNL d   1       2.475  -0.049   0.075  0.00  0.00    -0.033 C 
BRANCH  11  12
ATOM     12  N   UNL d   1       3.736  -0.049   0.075  0.00  0.00    -0.365 N 
ATOM     13  HN2 UNL d   1       2.716  -0.049   0.075  1.00  0.00     0.165 HD
ATOM     14  HN1 UNL d   1       4.756  -0.049   0.075  1.00  0.00     0.165 HD
ENDBRANCH  11  12
ENDBRANCH   1  11
BRANCH   2  15
ATOM     15  C   UNL d   1       0.877  -0.164   2.486  0.00  0.00     0.006 A 
ATOM     16  S   UNL d   1       0.950   1.260   3.448  0.00  0.00    -0.102 SA
ATOM     17  C   UNL d   1       1.859   0.478   4.664  0.00  0.00     0.050 A 
ATOM     18  C   UNL d   1       2.073  -0.850   4.375  0.00  0.00     0.008 A 
ATOM     19  C   UNL d   1       1.499  -1.222   3.124  0.00  0.00     0.019 A 
ENDBRANCH   2  15
TORSDOF 5
