REMARK  3 active torsions:
REMARK  status: ('A' for Active; 'I' for Inactive)
REMARK    1  A    between atoms: C_2  and  C_1 
REMARK    2  A    between atoms: O_3  and  C_1 
REMARK    3  A    between atoms: C_6  and  O_3 
ROOT
ATOM      1  C   UNL d   1       1.030   0.025   0.073  0.00  0.00     0.300 C 
ATOM      2  O   UNL d   1       2.249   0.011   0.093  0.00  0.00    -0.259 OA
ENDROOT
BRANCH   1   3
ATOM      3  C   UNL d   1       0.238  -0.187  -1.160  0.00  0.00     0.061 A 
ATOM      4  C   UNL d   1      -0.946  -0.936  -1.207  0.00  0.00     0.050 A 
ATOM      5 CL   UNL d   1      -1.629  -1.747   0.160  0.00  0.00    -0.083 Cl
ATOM      6  C   UNL d   1      -1.607  -1.117  -2.429  0.00  0.00     0.025 A 
ATOM      7  C   UNL d   1      -1.083  -0.578  -3.604  0.00  0.00     0.002 A 
ATOM      8  C   UNL d   1       0.107   0.144  -3.566  0.00  0.00     0.001 A 
ATOM      9  C   UNL d   1       0.768   0.340  -2.351  0.00  0.00     0.019 A 
ENDBRANCH   1   3
BRANCH   1  10
ATOM     10  O   UNL d   1       0.180   0.312   1.126  0.00  0.00    -0.275 OA
BRANCH  10  11
ATOM     11  C   UNL d   1       0.600   0.105   2.456  0.00  0.00     0.079 A 
ATOM     12  C   UNL d   1      -0.047   0.871   3.429  0.00  0.00     0.040 A 
ATOM     13  C   UNL d   1       0.201   0.619   4.778  0.00  0.00     0.045 A 
ATOM     14  C   UNL d   1       1.084  -0.397   5.135  0.00  0.00     0.116 A 
ATOM     15  C   UNL d   1       1.729  -1.162   4.168  0.00  0.00     0.045 A 
ATOM     16  F   UNL d   1       1.301  -0.655   6.431  0.00  0.00    -0.206 F 
ATOM     17  C   UNL d   1       1.482  -0.916   2.817  0.00  0.00     0.040 A 
ENDBRANCH  10  11
ENDBRANCH   1  10
TORSDOF 3
