REMARK  5 active torsions:
REMARK  status: ('A' for Active; 'I' for Inactive)
REMARK    1  A    between atoms: C_3  and  C_1 
REMARK       I    between atoms: N_7  and  C_3 
REMARK    2  A    between atoms: C_9  and  C_5 
REMARK    3  A    between atoms: C_11  and  N_7 
REMARK    4  A    between atoms: C_12  and  N_8 
REMARK    5  A    between atoms: C_24  and  C_12 
ROOT
ATOM      1  C   UNL d   1       0.030  -2.674   0.553  0.00  0.00     0.254 C 
ATOM      2  N   UNL d   1      -0.769  -3.481  -0.234  0.00  0.00    -0.352 N 
ATOM      3  O   UNL d   1      -0.417  -1.910   1.393  0.00  0.00    -0.268 OA
ATOM      4  H   UNL d   1      -0.298  -4.197  -0.762  0.00  0.00     0.163 HD
ENDROOT
BRANCH   1   5
ATOM      5  C   UNL d   1       1.470  -2.823   0.282  0.00  0.00     0.064 A 
ATOM      6  C   UNL d   1       2.127  -3.663  -0.676  0.00  0.00     0.057 A 
ATOM      7  C   UNL d   1       3.486  -3.445  -0.581  0.00  0.00     0.087 A 
ATOM      8  O   UNL d   1       3.718  -2.529   0.399  0.00  0.00    -0.314 OA
ATOM      9  C   UNL d   1       2.508  -2.138   0.905  0.00  0.00     0.065 A 
ATOM     10  C   UNL d   1       2.595  -1.094   1.952  0.00  0.00     0.077 C 
BRANCH   7  11
ATOM     11  C   UNL d   1       4.641  -3.941  -1.327  0.00  0.00    -0.002 A 
ATOM     12  C   UNL d   1       4.455  -4.505  -2.601  0.00  0.00     0.016 A 
ATOM     13  C   UNL d   1       5.539  -4.953  -3.362  0.00  0.00     0.024 A 
ATOM     14  C   UNL d   1       6.828  -4.849  -2.853  0.00  0.00     0.034 A 
ATOM     15  C   UNL d   1       7.038  -4.315  -1.584  0.00  0.00     0.024 A 
ATOM     16 CL   UNL d   1       8.163  -5.377  -3.802  0.00  0.00    -0.084 Cl
ATOM     17  C   UNL d   1       5.949  -3.861  -0.825  0.00  0.00     0.016 A 
ENDBRANCH   7  11
ENDBRANCH   1   5
BRANCH   2  18
ATOM     18  C   UNL d   1      -2.228  -3.632  -0.131  0.00  0.00     0.088 C 
ATOM     19  C   UNL d   1      -2.713  -4.624  -1.194  0.00  0.00     0.055 C 
ATOM     20  C   UNL d   1      -2.545  -4.044  -2.604  0.00  0.00     0.275 C 
ATOM     21  N   UNL d   1      -3.179  -2.727  -2.800  0.00  0.00     0.092 N 
ATOM     22  C   UNL d   1      -2.831  -1.772  -1.731  0.00  0.00     0.275 C 
ATOM     23  C   UNL d   1      -3.034  -2.347  -0.329  0.00  0.00     0.055 C 
BRANCH  21  24
ATOM     24  C   UNL d   1      -2.764  -2.207  -4.126  0.00  0.00     0.311 C 
BRANCH  24  25
ATOM     25  C   UNL d   1      -3.375  -0.887  -4.545  0.00  0.00    -0.030 A 
ATOM     26  C   UNL d   1      -2.558   0.239  -4.744  0.00  0.00     0.009 A 
ATOM     27  C   UNL d   1      -3.103   1.446  -5.186  0.00  0.00     0.001 A 
ATOM     28  C   UNL d   1      -4.469   1.543  -5.435  0.00  0.00     0.000 A 
ATOM     29  C   UNL d   1      -5.292   0.435  -5.238  0.00  0.00     0.001 A 
ATOM     30  C   UNL d   1      -4.750  -0.774  -4.793  0.00  0.00     0.009 A 
ENDBRANCH  24  25
ENDBRANCH  21  24
ENDBRANCH   2  18
TORSDOF 5
