REMARK  9 active torsions:
REMARK  status: ('A' for Active; 'I' for Inactive)
REMARK       I    between atoms: N_3  and  C_1 
REMARK    1  A    between atoms: C_18  and  C_1 
REMARK    2  A    between atoms: C_2  and  C_17 
REMARK       I    between atoms: N_4  and  C_2 
REMARK    3  A    between atoms: C_5  and  N_3 
REMARK    4  A    between atoms: C_6  and  N_4 
REMARK    5  A    between atoms: S_13  and  C_18 
REMARK    6  A    between atoms: C_25  and  S_13 
REMARK    7  A    between atoms: S_14  and  C_26 
REMARK    8  A    between atoms: C_17  and  S_14 
REMARK    9  A    between atoms: C_26  and  C_25 
ROOT
ATOM      1  C   UNL d   1       4.938  -1.369   1.088  0.00  0.00     0.084 C 
ENDROOT
BRANCH   1   2
ATOM      2  S   UNL d   1       4.655  -2.262  -0.492  0.00  0.00    -0.159 SA
BRANCH   2   3
ATOM      3  C   UNL d   1       3.246  -3.276   0.030  0.00  0.00     0.177 C 
BRANCH   3   4
ATOM      4  C   UNL d   1       2.663  -4.206  -1.016  0.00  0.00     0.231 C 
ATOM      5  N   UNL d   1       3.268  -4.228  -2.255  0.00  0.00    -0.326 N 
ATOM      6  H   UNL d   1       4.129  -3.691  -2.337  0.00  0.00     0.169 HD
ATOM      7  O   UNL d   1       1.708  -4.911  -0.682  0.00  0.00    -0.272 OA
BRANCH   5   8
ATOM      8  C   UNL d   1       2.909  -5.061  -3.338  0.00  0.00     0.036 A 
ATOM      9  C   UNL d   1       1.690  -5.748  -3.400  0.00  0.00     0.053 A 
ATOM     10  C   UNL d   1       1.429  -6.632  -4.446  0.00  0.00     0.036 A 
ATOM     11 CL   UNL d   1      -0.064  -7.489  -4.485  0.00  0.00    -0.084 Cl
ATOM     12  C   UNL d   1       2.368  -6.834  -5.452  0.00  0.00     0.024 A 
ATOM     13  C   UNL d   1       3.563  -6.117  -5.429  0.00  0.00     0.004 A 
ATOM     14  C   UNL d   1       3.826  -5.223  -4.384  0.00  0.00     0.029 A 
ENDBRANCH   5   8
ENDBRANCH   3   4
ENDBRANCH   2   3
ENDBRANCH   1   2
BRANCH   1  15
ATOM     15  C   UNL d   1       5.422  -2.231   2.264  0.00  0.00     0.084 C 
BRANCH  15  16
ATOM     16  S   UNL d   1       6.962  -3.185   1.972  0.00  0.00    -0.159 SA
BRANCH  16  17
ATOM     17  C   UNL d   1       8.117  -1.791   1.841  0.00  0.00     0.177 C 
BRANCH  17  18
ATOM     18  C   UNL d   1       9.574  -2.157   1.612  0.00  0.00     0.231 C 
ATOM     19  N   UNL d   1       9.866  -3.497   1.467  0.00  0.00    -0.326 N 
ATOM     20  H   UNL d   1       9.065  -4.121   1.419  0.00  0.00     0.169 HD
ATOM     21  O   UNL d   1      10.393  -1.238   1.533  0.00  0.00    -0.272 OA
BRANCH  19  22
ATOM     22  C   UNL d   1      11.143  -4.049   1.222  0.00  0.00     0.036 A 
ATOM     23  C   UNL d   1      12.333  -3.335   1.397  0.00  0.00     0.053 A 
ATOM     24  C   UNL d   1      13.560  -3.912   1.066  0.00  0.00     0.036 A 
ATOM     25 CL   UNL d   1      15.012  -3.009   1.272  0.00  0.00    -0.084 Cl
ATOM     26  C   UNL d   1      13.619  -5.208   0.565  0.00  0.00     0.024 A 
ATOM     27  C   UNL d   1      12.443  -5.943   0.427  0.00  0.00     0.004 A 
ATOM     28  C   UNL d   1      11.213  -5.372   0.768  0.00  0.00     0.029 A 
ENDBRANCH  19  22
ENDBRANCH  17  18
ENDBRANCH  16  17
ENDBRANCH  15  16
ENDBRANCH   1  15
TORSDOF 9
