REMARK  3 active torsions:
REMARK  status: ('A' for Active; 'I' for Inactive)
REMARK    1  A    between atoms: C_6  and  C_1 
REMARK    2  A    between atoms: C_5  and  C_2 
REMARK       I    between atoms: N_9  and  C_5 
REMARK    3  A    between atoms: C_15  and  N_9 
ROOT
ATOM      1  C   UNL d   1      -1.401  -0.429   0.417  0.00  0.00     0.086 A 
ATOM      2  C   UNL d   1      -0.131  -1.062   0.201  0.00  0.00     0.093 A 
ATOM      3  N   UNL d   1      -1.224   0.894   0.589  0.00  0.00    -0.259 N 
ATOM      4  HN  UNL d   1      -1.942   1.575   0.836  1.00  0.00     0.195 HD
ATOM      5  O   UNL d   1       0.102   1.154   0.370  0.00  0.00    -0.241 OA
ATOM      6  C   UNL d   1       0.758  -0.003   0.121  0.00  0.00     0.090 A 
ATOM      7  C   UNL d   1       2.198   0.155  -0.172  0.00  0.00     0.080 C 
ENDROOT
BRANCH   2   8
ATOM      8  C   UNL d   1       0.196  -2.475   0.064  0.00  0.00     0.261 C 
ATOM      9  N   UNL d   1       1.374  -2.808   0.712  0.00  0.00    -0.323 N 
ATOM     10  H   UNL d   1       1.824  -2.063   1.228  0.00  0.00     0.169 HD
ATOM     11  O   UNL d   1      -0.541  -3.243  -0.542  0.00  0.00    -0.267 OA
BRANCH   9  12
ATOM     12  C   UNL d   1       2.010  -4.060   0.807  0.00  0.00     0.037 A 
ATOM     13  C   UNL d   1       1.485  -5.247   0.311  0.00  0.00     0.046 A 
ATOM     14  C   UNL d   1       2.220  -6.411   0.485  0.00  0.00     0.090 A 
ATOM     15  N   UNL d   1       3.422  -6.465   1.095  0.00  0.00    -0.375 N 
ATOM     16  C   UNL d   1       3.915  -5.302   1.563  0.00  0.00     0.090 A 
ATOM     17  HN  UNL d   1       3.932  -7.343   1.196  1.00  0.00     0.164 HD
ATOM     18  C   UNL d   1       3.251  -4.093   1.450  0.00  0.00     0.046 A 
ENDBRANCH   9  12
ENDBRANCH   2   8
BRANCH   1  19
ATOM     19  C   UNL d   1      -2.758  -0.976   0.530  0.00  0.00     0.037 A 
ATOM     20  C   UNL d   1      -3.083  -1.992   1.449  0.00  0.00     0.048 A 
ATOM     21 CL   UNL d   1      -1.925  -2.707   2.524  0.00  0.00    -0.083 Cl
ATOM     22  C   UNL d   1      -4.407  -2.435   1.597  0.00  0.00     0.025 A 
ATOM     23  C   UNL d   1      -5.438  -1.849   0.870  0.00  0.00     0.003 A 
ATOM     24  C   UNL d   1      -5.144  -0.837  -0.036  0.00  0.00     0.025 A 
ATOM     25  C   UNL d   1      -3.818  -0.417  -0.222  0.00  0.00     0.048 A 
ATOM     26 CL   UNL d   1      -3.585   0.802  -1.437  0.00  0.00    -0.083 Cl
ENDBRANCH   1  19
TORSDOF 3
