REMARK  2 active torsions:
REMARK  status: ('A' for Active; 'I' for Inactive)
REMARK    1  A    between atoms: N_2  and  C_1 
REMARK    2  A    between atoms: C_8  and  C_4 
ROOT
ATOM      1  C   UNL d   1       0.120   1.233  -0.009  0.00  0.00     0.144 A 
ATOM      2  S   UNL d   1      -1.019  -0.023  -0.019  0.00  0.00    -0.063 SA
ATOM      3  C   UNL d   1       0.207  -1.236  -0.010  0.00  0.00     0.052 A 
ATOM      4  C   UNL d   1       1.417   0.772   0.003  0.00  0.00     0.045 A 
ATOM      5  C   UNL d   1       1.466  -0.656   0.002  0.00  0.00     0.026 A 
ENDROOT
BRANCH   1   6
ATOM      6  N   UNL d   1      -0.299   2.611  -0.013  0.00  0.00    -0.108 N 
ATOM      7  O   UNL d   1       0.606   3.457  -0.007  0.00  0.00    -0.531 OA
ATOM      8  O   UNL d   1      -1.511   2.859  -0.021  0.00  0.00    -0.531 OA
ENDBRANCH   1   6
BRANCH   3   9
ATOM      9  C   UNL d   1      -0.197  -2.641  -0.017  0.00  0.00     0.162 C 
ATOM     10  O   UNL d   1      -1.375  -3.008  -0.027  0.00  0.00    -0.292 OA
ATOM     11  C   UNL d   1       0.879  -3.702  -0.011  0.00  0.00     0.097 C 
ENDBRANCH   3   9
TORSDOF 2
