REMARK  0 active torsions:
REMARK  status: ('A' for Active; 'I' for Inactive)
ROOT
ATOM      1  C   UNL d   1       0.142  -1.617  -0.131  0.00  0.00     0.138 C 
ATOM      2  N   UNL d   1      -0.016  -0.211  -0.038  0.00  0.00    -0.293 N 
ATOM      3  C   UNL d   1      -0.875  -2.482   0.029  0.00  0.00     0.140 C 
ATOM      4  N   UNL d   1       1.485  -1.942  -0.355  0.00  0.00    -0.339 N 
ATOM      5  C   UNL d   1      -2.227  -1.928   0.291  0.00  0.00     0.208 C 
ATOM      6  C   UNL d   1      -1.300   0.372  -0.016  0.00  0.00     0.055 A 
ATOM      7  C   UNL d   1      -2.419  -0.459   0.184  0.00  0.00     0.043 A 
ATOM      8  C   UNL d   1       1.305   0.325   0.005  0.00  0.00     0.068 A 
ATOM      9  C   UNL d   1       2.215  -0.754  -0.169  0.00  0.00     0.061 A 
ATOM     10  C   UNL d   1      -0.689  -3.888  -0.018  0.00  0.00     0.107 C 
ATOM     11  N   UNL d   1      -0.464  -5.026  -0.056  0.00  0.00    -0.191 NA
ATOM     12  O   UNL d   1      -3.177  -2.657   0.560  0.00  0.00    -0.286 OA
ATOM     13  C   UNL d   1      -1.538   1.735  -0.234  0.00  0.00     0.031 A 
ATOM     14  C   UNL d   1      -3.717   0.069   0.246  0.00  0.00     0.018 A 
ATOM     15  C   UNL d   1       1.783   1.596   0.247  0.00  0.00     0.032 A 
ATOM     16  C   UNL d   1       3.578  -0.567  -0.222  0.00  0.00     0.032 A 
ATOM     17  C   UNL d   1      -2.834   2.262  -0.198  0.00  0.00     0.002 A 
ATOM     18  C   UNL d   1      -3.922   1.433   0.060  0.00  0.00     0.001 A 
ATOM     19  C   UNL d   1       3.171   1.793   0.234  0.00  0.00     0.002 A 
ATOM     20  C   UNL d   1       4.057   0.728  -0.015  0.00  0.00     0.002 A 
ATOM     21  H   UNL d   1       1.862  -2.828  -0.048  0.00  0.00     0.167 HD
ENDROOT
TORSDOF 0
