REMARK  2 active torsions:
REMARK  status: ('A' for Active; 'I' for Inactive)
REMARK    1  A    between atoms: C_10  and  C_2 
REMARK    2  A    between atoms: C_8  and  N_4 
ROOT
ATOM      1  C   UNL d   1       0.725  -0.810   0.021  0.00  0.00     0.192 A 
ATOM      2  C   UNL d   1      -0.562   1.034   0.197  0.00  0.00     0.070 A 
ATOM      3  O   UNL d   1       0.747   0.564  -0.087  0.00  0.00    -0.291 OA
ATOM      4  N   UNL d   1       1.773  -1.471  -0.354  0.00  0.00    -0.328 N 
ATOM      5  HN  UNL d   1       2.591  -0.952  -0.674  1.00  0.00     0.168 HD
ATOM      6  S   UNL d   1      -0.796  -1.460   0.630  0.00  0.00    -0.056 SA
ATOM      7  C   UNL d   1      -1.470   0.119   0.557  0.00  0.00     0.087 A 
ENDROOT
BRANCH   4   8
ATOM      8  C   UNL d   1       1.829  -2.876  -0.339  0.00  0.00     0.073 A 
ATOM      9  C   UNL d   1       2.861  -3.535   0.351  0.00  0.00     0.145 A 
ATOM     10  C   UNL d   1       2.986  -4.923   0.328  0.00  0.00     0.086 A 
ATOM     11  F   UNL d   1       3.770  -2.827   1.038  0.00  0.00    -0.204 F 
ATOM     12  C   UNL d   1       2.059  -5.669  -0.390  0.00  0.00     0.119 A 
ATOM     13  C   UNL d   1       1.038  -5.047  -1.099  0.00  0.00     0.044 A 
ATOM     14  F   UNL d   1       2.159  -7.002  -0.412  0.00  0.00    -0.206 F 
ATOM     15  C   UNL d   1       0.941  -3.655  -1.095  0.00  0.00     0.036 A 
ENDBRANCH   4   8
BRANCH   2  16
ATOM     16  C   UNL d   1      -0.767   2.537   0.044  0.00  0.00    -0.001 C 
ATOM     17  C   UNL d   1      -0.175   3.021  -1.294  0.00  0.00     0.021 C 
ATOM     18  C   UNL d   1      -2.256   2.942   0.072  0.00  0.00     0.021 C 
ATOM     19  C   UNL d   1      -0.049   3.250   1.203  0.00  0.00     0.021 C 
ENDBRANCH   2  16
TORSDOF 2
