REMARK  9 active torsions:
REMARK  status: ('A' for Active; 'I' for Inactive)
REMARK    1  A    between atoms: O_4  and  C_1 
REMARK       I    between atoms: N_6  and  C_1 
REMARK    2  A    between atoms: C_2  and  C_3 
REMARK    3  A    between atoms: C_3  and  O_4 
REMARK    4  A    between atoms: C_5  and  C_14 
REMARK    5  A    between atoms: O_15  and  C_5 
REMARK    6  A    between atoms: C_14  and  N_6 
REMARK    7  A    between atoms: O_17  and  C_10 
REMARK    8  A    between atoms: O_16  and  C_11 
REMARK    9  A    between atoms: C_25  and  N_24 
ROOT
ATOM      1  C   UNL d   2      -0.604  -0.436   0.427  0.00  0.00     0.218 C 
ATOM      2  C   UNL d   2       0.241  -1.665   0.768  0.00  0.00     0.035 C 
ATOM      3  C   UNL d   2      -0.043   0.841   1.059  0.00  0.00     0.035 C 
ATOM      4  C   UNL d   2       1.432   1.054   0.726  0.00  0.00     0.002 C 
ATOM      5  C   UNL d   2       1.722  -1.458   0.461  0.00  0.00     0.002 C 
ATOM      6  C   UNL d   2       2.285  -0.167   1.049  0.00  0.00     0.000 C 
ENDROOT
BRANCH   1   7
ATOM      7  N   UNL d   2      -1.987  -0.636   0.863  0.00  0.00     0.082 N 
ATOM      8  H   UNL d   2      -2.367  -1.478   0.433  0.00  0.00     0.313 HD
ATOM      9  H   UNL d   2      -2.564   0.143   0.549  0.00  0.00     0.313 HD
ENDBRANCH   1   7
TORSDOF 9
