REMARK  1 active torsions:
REMARK  status: ('A' for Active; 'I' for Inactive)
REMARK    1  A    between atoms: C_8  and  C_4 
ROOT
ATOM      1  C   UNL d   1       1.871   0.500   0.069  0.00  0.00    -0.002 A 
ATOM      2  C   UNL d   1       0.819   1.556   0.217  0.00  0.00     0.189 A 
ATOM      3  C   UNL d   1      -0.439   0.856   0.516  0.00  0.00     0.021 A 
ATOM      4  C   UNL d   1       3.166   0.789  -0.103  0.00  0.00     0.023 C 
ATOM      5  C   UNL d   1      -0.207  -0.520   0.527  0.00  0.00    -0.040 A 
ATOM      6  C   UNL d   1       1.216  -0.851   0.206  0.00  0.00     0.082 A 
ATOM      7  O   UNL d   1       0.968   2.756   0.124  0.00  0.00    -0.287 OA
ATOM      8  C   UNL d   1      -1.683   1.399   0.779  0.00  0.00     0.016 A 
ATOM      9  C   UNL d   1      -1.237  -1.401   0.812  0.00  0.00     0.008 A 
ATOM     10  C   UNL d   1      -2.725   0.514   1.069  0.00  0.00     0.001 A 
ATOM     11  C   UNL d   1      -2.502  -0.875   1.086  0.00  0.00     0.001 A 
ENDROOT
BRANCH   4  12
ATOM     12  C   UNL d   1       4.196  -0.246  -0.197  0.00  0.00    -0.035 A 
ATOM     13  C   UNL d   1       4.514  -0.817  -1.435  0.00  0.00     0.014 A 
ATOM     14  C   UNL d   1       5.525  -1.776  -1.525  0.00  0.00     0.043 A 
ATOM     15  C   UNL d   1       6.209  -2.162  -0.378  0.00  0.00     0.116 A 
ATOM     16  C   UNL d   1       5.885  -1.625   0.863  0.00  0.00     0.043 A 
ATOM     17  F   UNL d   1       7.197  -3.062  -0.470  0.00  0.00    -0.206 F 
ATOM     18  C   UNL d   1       4.871  -0.670   0.956  0.00  0.00     0.014 A 
ENDBRANCH   4  12
TORSDOF 1
