REMARK  8 active torsions:
REMARK  status: ('A' for Active; 'I' for Inactive)
REMARK    1  A    between atoms: N_2  and  C_1 
REMARK    2  A    between atoms: C_3  and  C_1 
REMARK    3  A    between atoms: C_4  and  C_1 
REMARK    4  A    between atoms: N_5  and  C_1 
REMARK       I    between atoms: C_6  and  N_2 
REMARK    5  A    between atoms: C_17  and  N_5 
REMARK    6  A    between atoms: O_20  and  C_6 
REMARK    7  A    between atoms: C_7  and  C_8 
REMARK    8  A    between atoms: C_24  and  O_20 
ROOT
ATOM      1  C   UNL d   1       0.918   0.155  -0.105  0.00  0.00     0.308 C 
ENDROOT
BRANCH   1   2
ATOM      2  N   UNL d   1       0.435  -0.535  -1.294  0.00  0.00    -0.295 N 
ATOM      3  C   UNL d   1      -0.881  -0.757  -1.513  0.00  0.00     0.362 C 
ATOM      4  O   UNL d   1      -1.756  -0.331  -0.782  0.00  0.00    -0.238 OA
ATOM      5  H   UNL d   1       1.116  -0.919  -1.937  0.00  0.00     0.168 HD
BRANCH   3   6
ATOM      6  O   UNL d   1      -1.021  -1.531  -2.595  0.00  0.00    -0.304 OA
BRANCH   6   7
ATOM      7  C   UNL d   1      -2.331  -2.118  -2.761  0.00  0.00     0.176 C 
ATOM      8  C   UNL d   1      -2.385  -3.400  -1.950  0.00  0.00     0.034 C 
ENDBRANCH   6   7
ENDBRANCH   3   6
ENDBRANCH   1   2
BRANCH   1   9
ATOM      9  C   UNL d   1       0.375  -0.372   1.283  0.00  0.00     0.441 C 
ATOM     10  F   UNL d   1      -0.043  -1.663   1.197  0.00  0.00    -0.166 F 
ATOM     11  F   UNL d   1       1.354  -0.354   2.226  0.00  0.00    -0.166 F 
ATOM     12  F   UNL d   1      -0.662   0.309   1.807  0.00  0.00    -0.166 F 
ENDBRANCH   1   9
BRANCH   1  13
ATOM     13  C   UNL d   1       0.613   1.701  -0.143  0.00  0.00     0.441 C 
ATOM     14  F   UNL d   1       0.188   2.086  -1.377  0.00  0.00    -0.166 F 
ATOM     15  F   UNL d   1      -0.281   2.172   0.738  0.00  0.00    -0.166 F 
ATOM     16  F   UNL d   1       1.768   2.399   0.077  0.00  0.00    -0.166 F 
ENDBRANCH   1  13
BRANCH   1  17
ATOM     17  N   UNL d   1       2.421  -0.060  -0.278  0.00  0.00    -0.349 N 
ATOM     18  H   UNL d   1       2.940   0.733   0.109  0.00  0.00     0.162 HD
BRANCH  17  19
ATOM     19  C   UNL d   1       3.095  -1.261  -0.069  0.00  0.00     0.030 A 
ATOM     20  C   UNL d   1       2.480  -2.515  -0.030  0.00  0.00     0.030 A 
ATOM     21  C   UNL d   1       3.221  -3.692   0.113  0.00  0.00     0.017 A 
ATOM     22  C   UNL d   1       4.615  -3.653   0.155  0.00  0.00     0.009 A 
ATOM     23  C   UNL d   1       5.258  -2.418   0.071  0.00  0.00     0.017 A 
ATOM     24  C   UNL d   1       4.502  -1.242  -0.050  0.00  0.00     0.030 A 
BRANCH  22  25
ATOM     25  C   UNL d   1       5.334  -4.946   0.286  0.00  0.00     0.155 C 
ATOM     26  O   UNL d   1       4.783  -5.890   0.842  0.00  0.00    -0.293 OA
ATOM     27  C   UNL d   1       6.708  -5.109  -0.308  0.00  0.00     0.096 C 
ENDBRANCH  22  25
ENDBRANCH  17  19
ENDBRANCH   1  17
TORSDOF 8
