REMARK  5 active torsions:
REMARK  status: ('A' for Active; 'I' for Inactive)
REMARK    1  A    between atoms: C_2  and  C_1 
REMARK    2  A    between atoms: S_4  and  C_1 
REMARK    3  A    between atoms: O_5  and  C_3 
REMARK    4  A    between atoms: C_9  and  S_4 
REMARK    5  A    between atoms: C_10  and  O_5 
ROOT
ATOM      1  C   UNL d   1       0.011   1.016   0.258  0.00  0.00     0.073 A 
ATOM      2  C   UNL d   1      -0.836   0.982   1.358  0.00  0.00     0.162 A 
ATOM      3  N   UNL d   1      -1.500   2.083   1.804  0.00  0.00    -0.346 N 
ATOM      4  HN  UNL d   1      -2.177   2.017   2.564  1.00  0.00     0.167 HD
ATOM      5  C   UNL d   1       0.288   2.265  -0.318  0.00  0.00     0.022 A 
ATOM      6  C   UNL d   1      -1.236   3.264   1.209  0.00  0.00     0.090 A 
ATOM      7  C   UNL d   1      -0.338   3.407   0.170  0.00  0.00     0.018 A 
ENDROOT
BRANCH   1   8
ATOM      8  C   UNL d   1       0.681  -0.163  -0.316  0.00  0.00     0.228 C 
ATOM      9  O   UNL d   1       1.865  -0.104  -0.631  0.00  0.00    -0.279 OA
BRANCH   8  10
ATOM     10  S   UNL d   1      -0.292  -1.574  -0.685  0.00  0.00    -0.048 SA
BRANCH  10  11
ATOM     11  C   UNL d   1      -0.985  -1.192  -2.290  0.00  0.00     0.008 A 
ATOM     12  C   UNL d   1      -0.376  -0.348  -3.222  0.00  0.00     0.019 A 
ATOM     13  C   UNL d   1      -0.978  -0.104  -4.466  0.00  0.00     0.008 A 
ATOM     14  C   UNL d   1      -2.188  -0.720  -4.806  0.00  0.00    -0.062 A 
ATOM     15  C   UNL d   1      -2.785  -1.583  -3.886  0.00  0.00     0.008 A 
ATOM     16  C   UNL d   1      -2.818  -0.461  -6.143  0.00  0.00     0.048 C 
ATOM     17  C   UNL d   1      -2.190  -1.816  -2.640  0.00  0.00     0.019 A 
ENDBRANCH  10  11
ENDBRANCH   8  10
ENDBRANCH   1   8
BRANCH   2  18
ATOM     18  O   UNL d   1      -0.971  -0.200   2.076  0.00  0.00    -0.293 OA
BRANCH  18  19
ATOM     19  C   UNL d   1      -1.317  -0.094   3.408  0.00  0.00     0.077 A 
ATOM     20  C   UNL d   1      -2.295  -0.966   3.886  0.00  0.00     0.037 A 
ATOM     21  C   UNL d   1      -2.714  -0.880   5.216  0.00  0.00     0.003 A 
ATOM     22  C   UNL d   1      -2.146   0.066   6.070  0.00  0.00     0.000 A 
ATOM     23  C   UNL d   1      -1.133   0.903   5.608  0.00  0.00     0.003 A 
ATOM     24  C   UNL d   1      -0.702   0.809   4.284  0.00  0.00     0.037 A 
ENDBRANCH  18  19
ENDBRANCH   2  18
TORSDOF 5
