REMARK  9 active torsions:
REMARK  status: ('A' for Active; 'I' for Inactive)
REMARK    1  A    between atoms: N_4  and  S_1 
REMARK    2  A    between atoms: C_12  and  S_1 
REMARK    3  A    between atoms: C_7  and  C_2 
REMARK    4  A    between atoms: C_3  and  O_8 
REMARK    5  A    between atoms: C_5  and  N_4 
REMARK    6  A    between atoms: C_6  and  C_11 
REMARK    7  A    between atoms: O_30  and  C_7 
REMARK    8  A    between atoms: O_8  and  C_10 
REMARK       I    between atoms: C_18  and  N_19 
REMARK    9  A    between atoms: N_19  and  C_29 
ROOT
ATOM      1  C   UNL d   1       0.869  -1.337  -2.327  0.00  0.00     0.057 A 
ATOM      2  C   UNL d   1       2.132  -0.979  -2.824  0.00  0.00     0.098 A 
ATOM      3  C   UNL d   1       0.171  -1.981  -4.571  0.00  0.00     0.049 A 
ATOM      4  C   UNL d   1      -0.113  -1.816  -3.201  0.00  0.00     0.043 A 
ATOM      5  C   UNL d   1       2.381  -1.058  -4.199  0.00  0.00     0.040 A 
ATOM      6  C   UNL d   1       1.423  -1.583  -5.059  0.00  0.00     0.019 A 
ENDROOT
BRANCH   1   7
ATOM      7  N   UNL d   1       0.582  -1.136  -0.934  0.00  0.00    -0.179 NA
ATOM      8  H   UNL d   1      -0.223  -0.508  -0.848  0.00  0.00     0.146 HD
BRANCH   7   9
ATOM      9  S   UNL d   1       0.198  -2.462   0.047  0.00  0.00     0.245 S 
ATOM     10  O   UNL d   1      -1.249  -2.478   0.092  0.00  0.00    -0.206 OA
ATOM     11  O   UNL d   1       0.974  -2.347   1.262  0.00  0.00    -0.206 OA
BRANCH   9  12
ATOM     12  C   UNL d   1       0.726  -3.933  -0.795  0.00  0.00     0.075 A 
ATOM     13  C   UNL d   1       2.074  -4.291  -0.798  0.00  0.00     0.027 A 
ATOM     14  C   UNL d   1       2.466  -5.497  -1.391  0.00  0.00     0.031 A 
ATOM     15  C   UNL d   1       1.519  -6.356  -1.972  0.00  0.00     0.034 A 
ATOM     16  C   UNL d   1       0.172  -5.987  -1.948  0.00  0.00     0.031 A 
ATOM     17  C   UNL d   1      -0.227  -4.785  -1.355  0.00  0.00     0.027 A 
BRANCH  15  18
ATOM     18  N   UNL d   1       1.989  -7.563  -2.535  0.00  0.00    -0.328 N 
ATOM     19  C   UNL d   1       1.239  -8.536  -3.173  0.00  0.00     0.218 C 
ATOM     20  O   UNL d   1       0.030  -8.514  -3.378  0.00  0.00    -0.274 OA
ATOM     21  C   UNL d   1       2.060  -9.711  -3.646  0.00  0.00     0.117 C 
ATOM     22  H   UNL d   1       2.984  -7.730  -2.456  0.00  0.00     0.169 HD
ENDBRANCH  15  18
ENDBRANCH   9  12
ENDBRANCH   7   9
ENDBRANCH   1   7
BRANCH   2  23
ATOM     23  O   UNL d   1       3.101  -0.517  -1.953  0.00  0.00    -0.307 OA
BRANCH  23  24
ATOM     24  C   UNL d   1       4.406  -0.867  -2.136  0.00  0.00     0.099 A 
ATOM     25  C   UNL d   1       5.458  -0.025  -1.815  0.00  0.00     0.114 A 
ATOM     26  S   UNL d   1       6.963  -0.741  -2.271  0.00  0.00    -0.093 SA
ATOM     27  C   UNL d   1       6.214  -2.158  -2.844  0.00  0.00     0.053 A 
ATOM     28  C   UNL d   1       4.854  -2.126  -2.656  0.00  0.00     0.046 A 
BRANCH  25  29
ATOM     29  C   UNL d   1       5.511   1.305  -1.234  0.00  0.00     0.302 C 
ATOM     30  O   UNL d   1       6.534   1.904  -0.915  0.00  0.00    -0.259 OA
BRANCH  29  31
ATOM     31  O   UNL d   1       4.263   1.842  -1.108  0.00  0.00    -0.322 OA
ATOM     32  C   UNL d   1       4.268   3.175  -0.591  0.00  0.00     0.213 C 
ENDBRANCH  29  31
ENDBRANCH  25  29
ENDBRANCH  23  24
ENDBRANCH   2  23
BRANCH   3  33
ATOM     33  C   UNL d   1      -0.828  -2.591  -5.526  0.00  0.00     0.417 C 
ATOM     34  F   UNL d   1      -2.040  -2.834  -4.962  0.00  0.00    -0.166 F 
ATOM     35  F   UNL d   1      -1.064  -1.797  -6.604  0.00  0.00    -0.166 F 
ATOM     36  F   UNL d   1      -0.395  -3.782  -6.025  0.00  0.00    -0.166 F 
ENDBRANCH   3  33
TORSDOF 9
