REMARK  3 active torsions:
REMARK  status: ('A' for Active; 'I' for Inactive)
REMARK    1  A    between atoms: S_3  and  C_7 
REMARK    2  A    between atoms: C_5  and  S_3 
REMARK    3  A    between atoms: C_7  and  C_8 
ROOT
ATOM      1  N   UNL d   1      -3.038  -0.164  -0.430  0.00  0.00    -0.191 NA
ATOM      2  C   UNL d   1      -1.883  -0.107  -0.327  0.00  0.00     0.099 C 
ATOM      3  C   UNL d   1      -0.456  -0.044  -0.200  0.00  0.00     0.044 A 
ATOM      4  C   UNL d   1       2.350   0.050   0.050  0.00  0.00    -0.049 A 
ATOM      5  C   UNL d   1       0.137  -0.012   1.065  0.00  0.00     0.023 A 
ATOM      6  C   UNL d   1       0.352  -0.013  -1.340  0.00  0.00     0.023 A 
ATOM      7  C   UNL d   1       1.745   0.037  -1.216  0.00  0.00     0.009 A 
ATOM      8  C   UNL d   1       1.530   0.038   1.189  0.00  0.00     0.009 A 
ENDROOT
BRANCH   4   9
ATOM      9  C   UNL d   1       3.857   0.096   0.187  0.00  0.00     0.117 C 
BRANCH   9  10
ATOM     10  S   UNL d   1       4.464   1.815   0.265  0.00  0.00    -0.125 SA
BRANCH  10  11
ATOM     11  C   UNL d   1       6.242   1.619   0.278  0.00  0.00     0.001 A 
ATOM     12  C   UNL d   1       7.003   2.642  -0.308  0.00  0.00     0.020 A 
ATOM     13  C   UNL d   1       8.401   2.603  -0.287  0.00  0.00     0.025 A 
ATOM     14  C   UNL d   1       9.051   1.540   0.331  0.00  0.00     0.034 A 
ATOM     15  C   UNL d   1       8.313   0.517   0.921  0.00  0.00     0.025 A 
ATOM     16 CL   UNL d   1      10.770   1.497   0.380  0.00  0.00    -0.084 Cl
ATOM     17  C   UNL d   1       6.912   0.558   0.898  0.00  0.00     0.020 A 
ENDBRANCH  10  11
ENDBRANCH   9  10
ENDBRANCH   4   9
TORSDOF 3
