REMARK  6 active torsions:
REMARK  status: ('A' for Active; 'I' for Inactive)
REMARK    1  A    between atoms: N_7  and  S_1 
REMARK    2  A    between atoms: C_11  and  S_1 
REMARK    3  A    between atoms: C_2  and  N_7 
REMARK    4  A    between atoms: C_8  and  C_3 
REMARK    5  A    between atoms: C_12  and  C_6 
REMARK    6  A    between atoms: C_13  and  C_14 
ROOT
ATOM      1  C   UNL d   1       0.933  -0.416  -2.796  0.00  0.00     0.045 C 
ATOM      2  C   UNL d   1       2.075   0.096  -3.386  0.00  0.00     0.073 C 
ATOM      3  S   UNL d   1       1.730   0.828  -4.881  0.00  0.00    -0.084 SA
ATOM      4  C   UNL d   1      -0.163  -0.423  -3.734  0.00  0.00     0.045 C 
ATOM      5  C   UNL d   1       0.171   0.117  -4.965  0.00  0.00     0.017 C 
ENDROOT
BRANCH   1   6
ATOM      6  N   UNL d   1       0.787  -0.831  -1.449  0.00  0.00    -0.180 NA
ATOM      7  H   UNL d   1       1.456  -0.396  -0.808  0.00  0.00     0.146 HD
BRANCH   6   8
ATOM      8  S   UNL d   1       0.791  -2.491  -1.048  0.00  0.00     0.245 S 
ATOM      9  O   UNL d   1       1.969  -2.676  -0.230  0.00  0.00    -0.206 OA
ATOM     10  O   UNL d   1       0.549  -3.288  -2.230  0.00  0.00    -0.206 OA
BRANCH   8  11
ATOM     11  C   UNL d   1      -0.631  -2.614  -0.001  0.00  0.00     0.074 A 
ATOM     12  C   UNL d   1      -1.899  -2.424  -0.556  0.00  0.00     0.025 A 
ATOM     13  C   UNL d   1      -3.019  -2.434   0.274  0.00  0.00     0.002 A 
ATOM     14  C   UNL d   1      -2.871  -2.651   1.645  0.00  0.00     0.000 A 
ATOM     15  C   UNL d   1      -1.608  -2.893   2.188  0.00  0.00     0.002 A 
ATOM     16  C   UNL d   1      -0.481  -2.880   1.365  0.00  0.00     0.025 A 
ENDBRANCH   8  11
ENDBRANCH   6   8
ENDBRANCH   1   6
BRANCH   2  17
ATOM     17  C   UNL d   1       3.471   0.097  -2.980  0.00  0.00     0.164 C 
ATOM     18  O   UNL d   1       4.268   0.994  -3.270  0.00  0.00    -0.292 OA
ATOM     19  C   UNL d   1       3.961  -1.100  -2.217  0.00  0.00     0.097 C 
ENDBRANCH   2  17
BRANCH   5  20
ATOM     20  C   UNL d   1      -0.573   0.217  -6.233  0.00  0.00    -0.019 A 
ATOM     21  C   UNL d   1      -1.964   0.341  -6.272  0.00  0.00     0.013 A 
ATOM     22  C   UNL d   1      -2.632   0.478  -7.502  0.00  0.00     0.009 A 
ATOM     23  C   UNL d   1      -1.939   0.484  -8.730  0.00  0.00    -0.051 A 
ATOM     24  C   UNL d   1      -0.550   0.341  -8.677  0.00  0.00     0.009 A 
ATOM     25  C   UNL d   1       0.111   0.197  -7.457  0.00  0.00     0.013 A 
BRANCH  23  26
ATOM     26  C   UNL d   1      -2.690   0.614 -10.065  0.00  0.00    -0.024 C 
ATOM     27  C   UNL d   1      -1.764   0.580 -11.304  0.00  0.00     0.019 C 
ATOM     28  C   UNL d   1      -3.678  -0.562 -10.201  0.00  0.00     0.019 C 
ATOM     29  C   UNL d   1      -3.463   1.948 -10.113  0.00  0.00     0.019 C 
ENDBRANCH  23  26
ENDBRANCH   5  20
TORSDOF 6
