REMARK  8 active torsions:
REMARK  status: ('A' for Active; 'I' for Inactive)
REMARK    1  A    between atoms: N_8  and  C_17 
REMARK    2  A    between atoms: C_16  and  N_8 
REMARK    3  A    between atoms: O_9  and  C_12 
REMARK    4  A    between atoms: C_14  and  O_9 
REMARK    5  A    between atoms: C_17  and  C_10 
REMARK    6  A    between atoms: C_11  and  C_16 
REMARK    7  A    between atoms: C_12  and  C_11 
REMARK    8  A    between atoms: O_15  and  C_11 
ROOT
ATOM      1  N   UNL d   1       4.593  -0.570  -0.145  0.00  0.00     0.090 N 
ATOM      2  H   UNL d   1       3.868  -1.288  -0.166  0.00  0.00     0.316 HD
ENDROOT
BRANCH   1   3
ATOM      3  C   UNL d   1       4.433   0.271  -1.332  0.00  0.00     0.308 C 
BRANCH   3   4
ATOM      4  C   UNL d   1       3.061   0.897  -1.353  0.00  0.00    -0.028 A 
ATOM      5  C   UNL d   1       2.000   0.252  -2.009  0.00  0.00     0.048 A 
ATOM      6  C   UNL d   1       0.765   0.860  -1.990  0.00  0.00     0.105 A 
ATOM      7  C   UNL d   1       0.553   2.059  -1.352  0.00  0.00     0.105 A 
ATOM      8  O   UNL d   1      -0.364   0.376  -2.576  0.00  0.00    -0.323 OA
ATOM      9  O   UNL d   1      -0.735   2.483  -1.458  0.00  0.00    -0.323 OA
ATOM     10  C   UNL d   1       1.565   2.717  -0.688  0.00  0.00     0.040 A 
ATOM     11  C   UNL d   1      -1.311   1.406  -2.225  0.00  0.00     0.352 A 
ATOM     12  C   UNL d   1       2.830   2.123  -0.684  0.00  0.00     0.012 A 
ENDBRANCH   3   4
ENDBRANCH   1   3
BRANCH   1  13
ATOM     13  C   UNL d   1       5.905  -1.220  -0.105  0.00  0.00     0.303 C 
BRANCH  13  14
ATOM     14  C   UNL d   1       7.118  -0.275   0.014  0.00  0.00     0.170 C 
BRANCH  14  15
ATOM     15  C   UNL d   1       7.026   0.636   1.252  0.00  0.00     0.209 C 
BRANCH  15  16
ATOM     16  O   UNL d   1       8.124   1.553   1.215  0.00  0.00    -0.349 OA
BRANCH  16  17
ATOM     17  C   UNL d   1       8.247   2.429   2.257  0.00  0.00     0.068 A 
ATOM     18  C   UNL d   1       7.357   2.579   3.320  0.00  0.00     0.037 A 
ATOM     19  C   UNL d   1       7.618   3.515   4.327  0.00  0.00     0.003 A 
ATOM     20  C   UNL d   1       8.769   4.302   4.273  0.00  0.00     0.000 A 
ATOM     21  C   UNL d   1       9.656   4.161   3.210  0.00  0.00     0.003 A 
ATOM     22  C   UNL d   1       9.393   3.228   2.206  0.00  0.00     0.037 A 
ENDBRANCH  16  17
ENDBRANCH  15  16
ENDBRANCH  14  15
BRANCH  14  23
ATOM     23  O   UNL d   1       8.306  -1.083   0.049  0.00  0.00    -0.392 OA
ATOM     24  H   UNL d   1       8.400  -1.442   0.947  0.00  0.00     0.210 HD
ENDBRANCH  14  23
ENDBRANCH  13  14
ENDBRANCH   1  13
TORSDOF 8
