REMARK  4 active torsions:
REMARK  status: ('A' for Active; 'I' for Inactive)
REMARK    1  A    between atoms: C_8  and  C_1 
REMARK    2  A    between atoms: N_6  and  C_2 
REMARK    3  A    between atoms: C_10  and  C_4 
REMARK       I    between atoms: C_7  and  N_6 
REMARK    4  A    between atoms: C_9  and  C_7 
REMARK       I    between atoms: N_15  and  C_8 
ROOT
ATOM      1  C   UNL d   1       0.033   1.109  -0.304  0.00  0.00     0.100 C 
ATOM      2  C   UNL d   1       1.351   0.787  -0.004  0.00  0.00     0.059 C 
ATOM      3  S   UNL d   1      -1.003  -0.251  -0.109  0.00  0.00    -0.082 SA
ATOM      4  C   UNL d   1       0.301  -1.332   0.093  0.00  0.00     0.018 C 
ATOM      5  C   UNL d   1       1.494  -0.637   0.152  0.00  0.00     0.051 C 
ENDROOT
BRANCH   2   6
ATOM      6  N   UNL d   1       2.474   1.620   0.096  0.00  0.00    -0.321 N 
ATOM      7  C   UNL d   1       2.455   2.978   0.361  0.00  0.00     0.256 C 
ATOM      8  O   UNL d   1       1.456   3.630   0.636  0.00  0.00    -0.267 OA
ATOM      9  H   UNL d   1       3.354   1.137   0.222  0.00  0.00     0.169 HD
BRANCH   7  10
ATOM     10  C   UNL d   1       3.773   3.688   0.306  0.00  0.00     0.032 A 
ATOM     11  C   UNL d   1       4.875   3.185  -0.401  0.00  0.00     0.018 A 
ATOM     12  C   UNL d   1       6.037   3.956  -0.535  0.00  0.00     0.025 A 
ATOM     13  C   UNL d   1       6.102   5.229   0.030  0.00  0.00     0.034 A 
ATOM     14  C   UNL d   1       5.027   5.728   0.760  0.00  0.00     0.025 A 
ATOM     15 CL   UNL d   1       7.502   6.199  -0.208  0.00  0.00    -0.084 Cl
ATOM     16  C   UNL d   1       3.867   4.960   0.898  0.00  0.00     0.018 A 
ENDBRANCH   7  10
ENDBRANCH   2   6
BRANCH   1  17
ATOM     17  C   UNL d   1      -0.610   2.305  -0.816  0.00  0.00     0.258 C 
ATOM     18  O   UNL d   1      -1.736   2.699  -0.512  0.00  0.00    -0.267 OA
ATOM     19  N   UNL d   1       0.065   2.951  -1.817  0.00  0.00    -0.365 N 
ATOM     20  H   UNL d   1       1.046   2.787  -1.958  0.00  0.00     0.159 HD
ATOM     21  H   UNL d   1      -0.326   3.838  -2.104  0.00  0.00     0.159 HD
ENDBRANCH   1  17
BRANCH   4  22
ATOM     22  C   UNL d   1       0.061  -2.782   0.144  0.00  0.00    -0.019 A 
ATOM     23  C   UNL d   1       0.901  -3.656  -0.563  0.00  0.00     0.013 A 
ATOM     24  C   UNL d   1       0.672  -5.035  -0.554  0.00  0.00     0.001 A 
ATOM     25  C   UNL d   1      -0.399  -5.561   0.164  0.00  0.00     0.000 A 
ATOM     26  C   UNL d   1      -1.241  -4.709   0.874  0.00  0.00     0.001 A 
ATOM     27  C   UNL d   1      -1.012  -3.330   0.866  0.00  0.00     0.013 A 
ENDBRANCH   4  22
TORSDOF 4
