REMARK  8 active torsions:
REMARK  status: ('A' for Active; 'I' for Inactive)
REMARK    1  A    between atoms: N_2  and  C_1 
REMARK    2  A    between atoms: C_3  and  C_1 
REMARK    3  A    between atoms: C_5  and  C_1 
REMARK    4  A    between atoms: N_6  and  C_1 
REMARK       I    between atoms: C_4  and  N_2 
REMARK    5  A    between atoms: C_7  and  C_4 
REMARK    6  A    between atoms: O_20  and  C_5 
REMARK    7  A    between atoms: C_10  and  N_6 
REMARK    8  A    between atoms: C_27  and  O_20 
ROOT
ATOM      1  C   UNL d   1       0.827   0.118  -0.004  0.00  0.00     0.297 C 
ENDROOT
BRANCH   1   2
ATOM      2  N   UNL d   1       0.446   1.363   0.705  0.00  0.00    -0.315 N 
ATOM      3  C   UNL d   1       0.847   1.658   1.990  0.00  0.00     0.254 C 
ATOM      4  O   UNL d   1       1.514   0.883   2.664  0.00  0.00    -0.268 OA
ATOM      5  H   UNL d   1      -0.269   1.921   0.262  0.00  0.00     0.166 HD
BRANCH   3   6
ATOM      6  C   UNL d   1       0.378   2.961   2.572  0.00  0.00     0.032 A 
ATOM      7  C   UNL d   1       0.379   3.111   3.970  0.00  0.00     0.023 A 
ATOM      8  C   UNL d   1      -0.031   4.313   4.572  0.00  0.00    -0.061 A 
ATOM      9  C   UNL d   1      -0.022   4.479   6.065  0.00  0.00     0.048 C 
ATOM     10  C   UNL d   1      -0.415   5.384   3.758  0.00  0.00     0.007 A 
ATOM     11  C   UNL d   1      -0.415   5.248   2.369  0.00  0.00     0.002 A 
ATOM     12  C   UNL d   1      -0.023   4.043   1.776  0.00  0.00     0.017 A 
ENDBRANCH   3   6
ENDBRANCH   1   2
BRANCH   1  13
ATOM     13  C   UNL d   1      -0.028  -0.127  -1.307  0.00  0.00     0.442 C 
ATOM     14  F   UNL d   1      -0.941   0.877  -1.456  0.00  0.00    -0.166 F 
ATOM     15  F   UNL d   1       0.718  -0.119  -2.441  0.00  0.00    -0.166 F 
ATOM     16  F   UNL d   1      -0.720  -1.289  -1.323  0.00  0.00    -0.166 F 
ENDBRANCH   1  13
BRANCH   1  17
ATOM     17  C   UNL d   1       0.442  -1.091   0.881  0.00  0.00     0.318 C 
ATOM     18  O   UNL d   1      -0.667  -1.258   1.376  0.00  0.00    -0.260 OA
BRANCH  17  19
ATOM     19  O   UNL d   1       1.475  -1.973   1.018  0.00  0.00    -0.318 OA
BRANCH  19  20
ATOM     20  C   UNL d   1       1.219  -3.128   1.831  0.00  0.00     0.174 C 
ATOM     21  C   UNL d   1       1.268  -2.792   3.311  0.00  0.00     0.034 C 
ENDBRANCH  19  20
ENDBRANCH  17  19
ENDBRANCH   1  17
BRANCH   1  22
ATOM     22  N   UNL d   1       2.288   0.151  -0.280  0.00  0.00    -0.348 N 
ATOM     23  H   UNL d   1       2.805  -0.538   0.263  0.00  0.00     0.163 HD
BRANCH  22  24
ATOM     24  C   UNL d   1       3.022   1.077  -0.988  0.00  0.00     0.032 A 
ATOM     25  C   UNL d   1       4.359   0.779  -1.299  0.00  0.00     0.056 A 
ATOM     26  C   UNL d   1       5.172   1.694  -1.978  0.00  0.00     0.074 A 
ATOM     27 CL   UNL d   1       6.813   1.292  -2.313  0.00  0.00    -0.081 Cl
ATOM     28  C   UNL d   1       4.649   2.919  -2.370  0.00  0.00     0.138 A 
ATOM     29  C   UNL d   1       3.312   3.208  -2.143  0.00  0.00     0.046 A 
ATOM     30  F   UNL d   1       5.417   3.837  -2.975  0.00  0.00    -0.204 F 
ATOM     31  C   UNL d   1       2.501   2.279  -1.482  0.00  0.00     0.032 A 
ENDBRANCH  22  24
ENDBRANCH   1  22
TORSDOF 8
