REMARK  4 active torsions:
REMARK  status: ('A' for Active; 'I' for Inactive)
REMARK    1  A    between atoms: S_8  and  C_1 
REMARK    2  A    between atoms: C_14  and  C_5 
REMARK    3  A    between atoms: N_7  and  C_10 
REMARK    4  A    between atoms: C_17  and  S_8 
ROOT
ATOM      1  C   UNL d   1      -1.474   1.289   0.042  0.00  0.00     0.110 A 
ATOM      2  N   UNL d   1      -0.193   0.759   0.070  0.00  0.00    -0.300 N 
ATOM      3  N   UNL d   1      -1.599  -0.976  -0.113  0.00  0.00    -0.339 N 
ATOM      4  HN  UNL d   1      -1.968  -1.922  -0.210  1.00  0.00     0.167 HD
ATOM      5  C   UNL d   1      -2.326   0.197  -0.039  0.00  0.00     0.079 A 
ATOM      6  C   UNL d   1      -0.337  -0.624  -0.032  0.00  0.00     0.113 A 
ATOM      7  C   UNL d   1       1.062   1.377   0.157  0.00  0.00     0.099 A 
ATOM      8  C   UNL d   1       0.848  -1.413  -0.038  0.00  0.00     0.049 A 
ATOM      9  C   UNL d   1       2.176   0.626   0.143  0.00  0.00     0.018 A 
ATOM     10  C   UNL d   1       2.053  -0.818   0.044  0.00  0.00     0.005 A 
ENDROOT
BRANCH   1  11
ATOM     11  S   UNL d   1      -1.730   3.007   0.155  0.00  0.00    -0.070 SA
BRANCH  11  12
ATOM     12  C   UNL d   1      -2.079   3.445  -1.541  0.00  0.00     0.007 A 
ATOM     13  C   UNL d   1      -3.069   4.413  -1.774  0.00  0.00     0.021 A 
ATOM     14  C   UNL d   1      -3.300   4.911  -3.061  0.00  0.00     0.037 A 
ATOM     15  C   UNL d   1      -2.529   4.439  -4.129  0.00  0.00     0.102 A 
ATOM     16  C   UNL d   1      -1.556   3.458  -3.918  0.00  0.00     0.037 A 
ATOM     17  C   UNL d   1      -1.331   2.968  -2.625  0.00  0.00     0.021 A 
BRANCH  15  18
ATOM     18  N   UNL d   1      -2.719   5.005  -5.471  0.00  0.00    -0.116 N 
ATOM     19  O   UNL d   1      -1.993   4.584  -6.382  0.00  0.00    -0.532 OA
ATOM     20  O   UNL d   1      -3.584   5.882  -5.610  0.00  0.00    -0.532 OA
ENDBRANCH  15  18
ENDBRANCH  11  12
ENDBRANCH   1  11
BRANCH   5  21
ATOM     21  C   UNL d   1      -3.783   0.170  -0.083  0.00  0.00    -0.007 A 
ATOM     22  C   UNL d   1      -4.586   1.116   0.567  0.00  0.00     0.014 A 
ATOM     23  C   UNL d   1      -5.981   1.045   0.487  0.00  0.00     0.001 A 
ATOM     24  C   UNL d   1      -6.591   0.014  -0.223  0.00  0.00     0.000 A 
ATOM     25  C   UNL d   1      -5.809  -0.954  -0.845  0.00  0.00     0.001 A 
ATOM     26  C   UNL d   1      -4.416  -0.877  -0.772  0.00  0.00     0.014 A 
ENDBRANCH   5  21
TORSDOF 4
