REMARK  3 active torsions:
REMARK  status: ('A' for Active; 'I' for Inactive)
REMARK    1  A    between atoms: C_4  and  C_1 
REMARK    2  A    between atoms: C_16  and  C_5 
REMARK    3  A    between atoms: C_7  and  C_10 
ROOT
ATOM      1  N   UNL d   1       6.832   4.897   0.185  0.00  0.00    -0.191 NA
ATOM      2  C   UNL d   1       5.906   4.194   0.123  0.00  0.00     0.099 C 
ATOM      3  C   UNL d   1       2.488   1.679  -0.076  0.00  0.00    -0.009 A 
ATOM      4  C   UNL d   1       2.444   2.987  -0.579  0.00  0.00     0.015 A 
ATOM      5  C   UNL d   1       3.689   1.207   0.476  0.00  0.00     0.015 A 
ATOM      6  C   UNL d   1       4.760   3.339   0.048  0.00  0.00     0.044 A 
ATOM      7  C   UNL d   1       3.571   3.814  -0.518  0.00  0.00     0.023 A 
ATOM      8  C   UNL d   1       4.816   2.033   0.541  0.00  0.00     0.023 A 
ENDROOT
BRANCH   3   9
ATOM      9  C   UNL d   1       1.307   0.824  -0.068  0.00  0.00     0.050 A 
ATOM     10  N   UNL d   1       1.399  -0.552  -0.196  0.00  0.00    -0.349 N 
ATOM     11  C   UNL d   1       0.221  -1.129  -0.037  0.00  0.00     0.088 A 
ATOM     12  HN  UNL d   1       2.266  -1.055  -0.387  1.00  0.00     0.166 HD
ATOM     13  S   UNL d   1      -1.047  -0.014   0.336  0.00  0.00    -0.081 SA
ATOM     14  C   UNL d   1       0.026   1.298   0.122  0.00  0.00     0.082 A 
BRANCH  11  15
ATOM     15  C   UNL d   1      -0.009  -2.594  -0.063  0.00  0.00     0.041 A 
ATOM     16  C   UNL d   1       0.941  -3.474   0.509  0.00  0.00     0.049 A 
ATOM     17  C   UNL d   1       0.768  -4.871   0.482  0.00  0.00     0.041 A 
ATOM     18 CL   UNL d   1       2.379  -2.935   1.321  0.00  0.00    -0.083 Cl
ATOM     19  C   UNL d   1      -0.367  -5.444  -0.093  0.00  0.00     0.051 A 
ATOM     20  C   UNL d   1      -1.319  -4.592  -0.657  0.00  0.00     0.041 A 
ATOM     21  C   UNL d   1      -1.137  -3.197  -0.666  0.00  0.00     0.049 A 
ATOM     22 CL   UNL d   1      -2.364  -2.330  -1.535  0.00  0.00    -0.083 Cl
BRANCH  19  23
ATOM     23  C   UNL d   1      -0.577  -6.937  -0.126  0.00  0.00     0.417 C 
ATOM     24  F   UNL d   1       0.449  -7.643   0.423  0.00  0.00    -0.166 F 
ATOM     25  F   UNL d   1      -1.697  -7.314   0.547  0.00  0.00    -0.166 F 
ATOM     26  F   UNL d   1      -0.722  -7.408  -1.394  0.00  0.00    -0.166 F 
ENDBRANCH  19  23
ENDBRANCH  11  15
ENDBRANCH   3   9
TORSDOF 3
