REMARK  4 active torsions:
REMARK  status: ('A' for Active; 'I' for Inactive)
REMARK    1  A    between atoms: C_3  and  C_1 
REMARK       I    between atoms: N_7  and  C_3 
REMARK    2  A    between atoms: C_9  and  C_4 
REMARK    3  A    between atoms: C_8  and  N_7 
REMARK    4  A    between atoms: O_17  and  C_11 
ROOT
ATOM      1  C   UNL d   1      -2.722  -1.345   0.066  0.00  0.00     0.258 C 
ATOM      2  N   UNL d   1      -3.889  -0.598  -0.004  0.00  0.00    -0.320 N 
ATOM      3  O   UNL d   1      -2.690  -2.574  -0.016  0.00  0.00    -0.267 OA
ATOM      4  H   UNL d   1      -3.784   0.379  -0.199  0.00  0.00     0.169 HD
ENDROOT
BRANCH   1   5
ATOM      5  C   UNL d   1      -1.460  -0.613   0.137  0.00  0.00     0.064 A 
ATOM      6  C   UNL d   1      -0.185  -1.208  -0.160  0.00  0.00     0.053 A 
ATOM      7  C   UNL d   1       0.781  -0.250   0.040  0.00  0.00     0.062 A 
ATOM      8  O   UNL d   1       0.179   0.907   0.429  0.00  0.00    -0.318 OA
ATOM      9  C   UNL d   1      -1.165   0.688   0.510  0.00  0.00     0.065 A 
ATOM     10  C   UNL d   1      -1.915   1.867   0.994  0.00  0.00     0.077 C 
BRANCH   7  11
ATOM     11  C   UNL d   1       2.284  -0.217  -0.065  0.00  0.00    -0.002 C 
ATOM     12  C   UNL d   1       2.855  -1.604  -0.417  0.00  0.00     0.021 C 
ATOM     13  C   UNL d   1       2.699   0.778  -1.163  0.00  0.00     0.021 C 
ATOM     14  C   UNL d   1       2.885   0.227   1.282  0.00  0.00     0.021 C 
ENDBRANCH   7  11
ENDBRANCH   1   5
BRANCH   2  15
ATOM     15  C   UNL d   1      -5.162  -1.189  -0.224  0.00  0.00     0.069 A 
ATOM     16  C   UNL d   1      -6.146  -0.635  -1.064  0.00  0.00     0.095 A 
ATOM     17  C   UNL d   1      -7.351  -1.337  -1.251  0.00  0.00     0.039 A 
ATOM     18  C   UNL d   1      -7.608  -2.551  -0.614  0.00  0.00     0.009 A 
ATOM     19  C   UNL d   1      -6.666  -3.084   0.261  0.00  0.00    -0.060 A 
ATOM     20  C   UNL d   1      -5.464  -2.392   0.453  0.00  0.00     0.039 A 
ATOM     21  C   UNL d   1      -6.929  -4.387   0.954  0.00  0.00     0.048 C 
BRANCH  16  22
ATOM     22  O   UNL d   1      -6.134   0.513  -1.806  0.00  0.00    -0.354 OA
ATOM     23  C   UNL d   1      -4.926   1.190  -2.091  0.00  0.00     0.210 C 
ENDBRANCH  16  22
ENDBRANCH   2  15
TORSDOF 4
