REMARK  4 active torsions:
REMARK  status: ('A' for Active; 'I' for Inactive)
REMARK       I    between atoms: C_3  and  N_1 
REMARK    1  A    between atoms: C_6  and  C_3 
REMARK    2  A    between atoms: C_12  and  C_4 
REMARK    3  A    between atoms: C_7  and  O_16 
REMARK    4  A    between atoms: O_16  and  C_25 
ROOT
ATOM      1  N   UNL d   1      -2.564   0.362  -0.338  0.00  0.00    -0.333 N 
ATOM      2  C   UNL d   1      -0.194   0.815   0.021  0.00  0.00    -0.017 A 
ATOM      3  C   UNL d   1      -3.515   0.599  -1.343  0.00  0.00     0.278 C 
ATOM      4  C   UNL d   1      -1.602   1.359   0.167  0.00  0.00     0.155 C 
ATOM      5  C   UNL d   1       0.073  -0.531  -0.160  0.00  0.00    -0.007 A 
ATOM      6  C   UNL d   1      -2.355  -1.028   0.114  0.00  0.00     0.132 C 
ATOM      7  S   UNL d   1       1.737  -0.872  -0.238  0.00  0.00    -0.106 SA
ATOM      8  C   UNL d   1      -0.977  -1.590  -0.286  0.00  0.00     0.067 C 
ATOM      9  C   UNL d   1       1.019   1.579   0.040  0.00  0.00     0.018 A 
ATOM     10  C   UNL d   1       2.138   0.784  -0.071  0.00  0.00     0.051 A 
ATOM     11  O   UNL d   1      -4.136  -0.349  -1.832  0.00  0.00    -0.265 OA
ENDROOT
BRANCH   4  12
ATOM     12  C   UNL d   1      -1.814   1.700   1.645  0.00  0.00    -0.031 A 
ATOM     13  C   UNL d   1      -2.692   2.742   1.992  0.00  0.00     0.012 A 
ATOM     14  C   UNL d   1      -2.901   3.117   3.327  0.00  0.00     0.037 A 
ATOM     15  C   UNL d   1      -2.212   2.473   4.347  0.00  0.00     0.078 A 
ATOM     16  C   UNL d   1      -1.395   1.391   4.032  0.00  0.00     0.037 A 
ATOM     17  C   UNL d   1      -1.203   1.005   2.703  0.00  0.00     0.012 A 
BRANCH  15  18
ATOM     18  O   UNL d   1      -2.290   2.760   5.674  0.00  0.00    -0.255 OA
BRANCH  18  19
ATOM     19  C   UNL d   1      -2.494   4.107   6.074  0.00  0.00     0.530 C 
ATOM     20  F   UNL d   1      -2.352   5.011   5.080  0.00  0.00    -0.144 F 
ATOM     21  F   UNL d   1      -3.726   4.234   6.608  0.00  0.00    -0.144 F 
ATOM     22  F   UNL d   1      -1.587   4.408   7.033  0.00  0.00    -0.144 F 
ENDBRANCH  18  19
ENDBRANCH  15  18
ENDBRANCH   4  12
BRANCH   3  23
ATOM     23  C   UNL d   1      -3.763   1.948  -1.839  0.00  0.00     0.142 A 
ATOM     24  O   UNL d   1      -3.500   3.052  -1.079  0.00  0.00    -0.317 OA
ATOM     25  C   UNL d   1      -3.819   4.153  -1.805  0.00  0.00     0.143 A 
ATOM     26  C   UNL d   1      -4.333   3.781  -3.024  0.00  0.00     0.027 A 
ATOM     27  C   UNL d   1      -4.325   2.366  -3.033  0.00  0.00     0.045 A 
ENDBRANCH   3  23
TORSDOF 4
