REMARK  6 active torsions:
REMARK  status: ('A' for Active; 'I' for Inactive)
REMARK    1  A    between atoms: C_5  and  C_1 
REMARK       I    between atoms: C_2  and  N_3 
REMARK    2  A    between atoms: C_6  and  C_2 
REMARK    3  A    between atoms: N_3  and  C_4 
REMARK    4  A    between atoms: O_11  and  C_7 
REMARK    5  A    between atoms: C_21  and  O_11 
REMARK    6  A    between atoms: O_27  and  C_22 
ROOT
ATOM      1  C   UNL d   1       0.102  -1.853   3.091  0.00  0.00     0.070 A 
ATOM      2  C   UNL d   1       0.895  -1.176   0.874  0.00  0.00     0.050 A 
ATOM      3  C   UNL d   1       0.086  -3.196   2.656  0.00  0.00     0.102 A 
ATOM      4  C   UNL d   1       0.529  -0.866   2.195  0.00  0.00     0.048 A 
ATOM      5  C   UNL d   1       0.791  -2.498   0.436  0.00  0.00     0.019 A 
ATOM      6  C   UNL d   1       0.366  -3.494   1.311  0.00  0.00     0.040 A 
ENDROOT
BRANCH   1   7
ATOM      7  N   UNL d   1      -0.373  -1.540   4.396  0.00  0.00    -0.320 N 
ATOM      8  C   UNL d   1      -0.485  -0.273   4.959  0.00  0.00     0.256 C 
ATOM      9  O   UNL d   1      -0.045   0.774   4.494  0.00  0.00    -0.267 OA
ATOM     10  H   UNL d   1      -0.784  -2.325   4.886  0.00  0.00     0.169 HD
BRANCH   8  11
ATOM     11  C   UNL d   1      -1.275  -0.185   6.221  0.00  0.00     0.032 A 
ATOM     12  C   UNL d   1      -1.296  -1.216   7.164  0.00  0.00     0.024 A 
ATOM     13  C   UNL d   1      -2.126  -1.133   8.296  0.00  0.00    -0.055 A 
ATOM     14  C   UNL d   1      -2.146  -2.279   9.270  0.00  0.00     0.049 C 
ATOM     15  C   UNL d   1      -2.919   0.017   8.499  0.00  0.00    -0.056 A 
ATOM     16  C   UNL d   1      -2.849   1.069   7.575  0.00  0.00     0.008 A 
ATOM     17  C   UNL d   1      -3.873   0.120   9.658  0.00  0.00     0.049 C 
ATOM     18  C   UNL d   1      -2.033   0.971   6.448  0.00  0.00     0.017 A 
ENDBRANCH   8  11
ENDBRANCH   1   7
BRANCH   3  19
ATOM     19  O   UNL d   1      -0.232  -4.193   3.571  0.00  0.00    -0.309 OA
BRANCH  19  20
ATOM     20  C   UNL d   1       0.314  -5.450   3.373  0.00  0.00     0.076 A 
ATOM     21  C   UNL d   1       1.655  -5.653   3.023  0.00  0.00     0.040 A 
ATOM     22  C   UNL d   1       2.123  -6.937   2.718  0.00  0.00     0.039 A 
ATOM     23  C   UNL d   1       1.269  -8.034   2.818  0.00  0.00     0.068 A 
ATOM     24  C   UNL d   1      -0.041  -7.842   3.268  0.00  0.00     0.039 A 
ATOM     25  C   UNL d   1      -0.522  -6.554   3.539  0.00  0.00     0.040 A 
BRANCH  23  26
ATOM     26  O   UNL d   1       1.622  -9.328   2.550  0.00  0.00    -0.356 OA
ATOM     27  C   UNL d   1       2.609  -9.503   1.536  0.00  0.00     0.210 C 
ENDBRANCH  23  26
ENDBRANCH  19  20
ENDBRANCH   3  19
BRANCH   2  28
ATOM     28  C   UNL d   1       1.377  -0.106  -0.074  0.00  0.00     0.417 C 
ATOM     29  F   UNL d   1       1.374   1.148   0.452  0.00  0.00    -0.166 F 
ATOM     30  F   UNL d   1       0.619  -0.040  -1.204  0.00  0.00    -0.166 F 
ATOM     31  F   UNL d   1       2.652  -0.332  -0.496  0.00  0.00    -0.166 F 
ENDBRANCH   2  28
TORSDOF 6
