REMARK  2 active torsions:
REMARK  status: ('A' for Active; 'I' for Inactive)
REMARK    1  A    between atoms: C_3  and  C_1 
REMARK       I    between atoms: N_6  and  C_3 
REMARK    2  A    between atoms: C_9  and  N_6 
ROOT
ATOM      1  C   UNL d   1      -1.806  -1.245   0.018  0.00  0.00     0.108 A 
ATOM      2  C   UNL d   1      -2.105   0.194  -0.143  0.00  0.00     0.304 A 
ATOM      3  C   UNL d   1      -0.539  -1.663   0.187  0.00  0.00     0.037 A 
ATOM      4  O   UNL d   1      -1.036   1.083  -0.114  0.00  0.00    -0.274 OA
ATOM      5  C   UNL d   1       0.567  -0.720   0.159  0.00  0.00    -0.001 A 
ATOM      6  C   UNL d   1       0.290   0.633   0.002  0.00  0.00     0.089 A 
ATOM      7  O   UNL d   1      -3.255   0.602  -0.296  0.00  0.00    -0.259 OA
ATOM      8  C   UNL d   1       1.899  -1.131   0.245  0.00  0.00     0.014 A 
ATOM      9  C   UNL d   1       1.305   1.585  -0.071  0.00  0.00     0.038 A 
ATOM     10  C   UNL d   1       2.632   1.168   0.004  0.00  0.00     0.003 A 
ATOM     11  C   UNL d   1       2.929  -0.188   0.162  0.00  0.00     0.001 A 
ENDROOT
BRANCH   1  12
ATOM     12  C   UNL d   1      -2.864  -2.309  -0.024  0.00  0.00     0.258 C 
ATOM     13  N   UNL d   1      -4.151  -1.875  -0.248  0.00  0.00    -0.352 N 
ATOM     14  H   UNL d   1      -4.323  -0.874  -0.355  0.00  0.00     0.163 HD
ATOM     15  O   UNL d   1      -2.576  -3.496   0.118  0.00  0.00    -0.267 OA
BRANCH  13  16
ATOM     16  C   UNL d   1      -5.259  -2.768  -0.399  0.00  0.00     0.084 A 
ATOM     17  C   UNL d   1      -6.050  -2.784  -1.679  0.00  0.00     0.027 A 
ATOM     18  C   UNL d   1      -6.670  -2.250  -0.422  0.00  0.00     0.027 A 
ENDBRANCH  13  16
ENDBRANCH   1  12
TORSDOF 2
