REMARK  4 active torsions:
REMARK  status: ('A' for Active; 'I' for Inactive)
REMARK    1  A    between atoms: N_8  and  C_2 
REMARK    2  A    between atoms: C_14  and  N_8 
REMARK    3  A    between atoms: O_17  and  C_9 
REMARK    4  A    between atoms: O_18  and  C_10 
ROOT
ATOM      1  C   UNL d   1       0.204   0.731   0.156  0.00  0.00     0.038 A 
ATOM      2  C   UNL d   1      -1.068   1.331   0.190  0.00  0.00     0.119 A 
ATOM      3  C   UNL d   1       0.233  -0.654  -0.013  0.00  0.00     0.050 A 
ATOM      4  C   UNL d   1       1.422   1.442   0.267  0.00  0.00     0.057 A 
ATOM      5  N   UNL d   1      -2.196   0.606   0.141  0.00  0.00    -0.338 N 
ATOM      6  HN  UNL d   1      -3.116   1.042   0.206  1.00  0.00     0.168 HD
ATOM      7  C   UNL d   1       1.474  -1.274  -0.149  0.00  0.00     0.070 A 
ATOM      8  C   UNL d   1       2.665   0.817   0.132  0.00  0.00     0.102 A 
ATOM      9  C   UNL d   1       2.684  -0.558  -0.092  0.00  0.00     0.103 A 
ATOM     10  N   UNL d   1      -0.892  -1.382  -0.089  0.00  0.00    -0.351 N 
ATOM     11  HN  UNL d   1      -0.865  -2.394  -0.211  1.00  0.00     0.166 HD
ATOM     12  C   UNL d   1      -2.054  -0.714   0.005  0.00  0.00     0.182 A 
ENDROOT
BRANCH   2  13
ATOM     13  N   UNL d   1      -1.152   2.754   0.194  0.00  0.00    -0.342 N 
ATOM     14  H   UNL d   1      -0.642   3.098  -0.616  0.00  0.00     0.167 HD
BRANCH  13  15
ATOM     15  C   UNL d   1      -2.312   3.517   0.441  0.00  0.00     0.035 A 
ATOM     16  C   UNL d   1      -3.164   3.223   1.511  0.00  0.00     0.053 A 
ATOM     17  C   UNL d   1      -4.288   4.010   1.755  0.00  0.00     0.036 A 
ATOM     18 CL   UNL d   1      -5.312   3.643   3.088  0.00  0.00    -0.084 Cl
ATOM     19  C   UNL d   1      -4.583   5.100   0.939  0.00  0.00     0.024 A 
ATOM     20  C   UNL d   1      -3.736   5.413  -0.123  0.00  0.00     0.004 A 
ATOM     21  C   UNL d   1      -2.600   4.635  -0.361  0.00  0.00     0.029 A 
ENDBRANCH  13  15
ENDBRANCH   2  13
BRANCH   8  22
ATOM     22  O   UNL d   1       3.687   1.717   0.201  0.00  0.00    -0.353 OA
ATOM     23  C   UNL d   1       5.028   1.275   0.131  0.00  0.00     0.210 C 
ENDBRANCH   8  22
BRANCH   9  24
ATOM     24  O   UNL d   1       3.820  -1.237  -0.445  0.00  0.00    -0.353 OA
ATOM     25  C   UNL d   1       4.506  -1.804   0.670  0.00  0.00     0.210 C 
ENDBRANCH   9  24
TORSDOF 4
