REMARK  2 active torsions:
REMARK  status: ('A' for Active; 'I' for Inactive)
REMARK    1  A    between atoms: C_4  and  C_1 
REMARK    2  A    between atoms: C_14  and  C_5 
ROOT
ATOM      1  C   UNL d   1       0.534  -1.000  -0.051  0.00  0.00     0.186 A 
ATOM      2  N   UNL d   1       1.205   0.102   0.196  0.00  0.00    -0.317 N 
ATOM      3  HN  UNL d   1       2.178   0.198   0.485  1.00  0.00     0.169 HD
ATOM      4  C   UNL d   1       0.275   1.100  -0.029  0.00  0.00     0.154 A 
ATOM      5  N   UNL d   1      -0.942   0.631  -0.358  0.00  0.00    -0.241 N 
ATOM      6  HN  UNL d   1      -1.792   1.163  -0.547  1.00  0.00     0.196 HD
ATOM      7  O   UNL d   1      -0.770  -0.748  -0.382  0.00  0.00    -0.217 OA
ENDROOT
BRANCH   1   8
ATOM      8  C   UNL d   1       1.119  -2.355   0.001  0.00  0.00     0.073 A 
ATOM      9  C   UNL d   1       0.484  -3.526  -0.337  0.00  0.00     0.089 A 
ATOM     10  O   UNL d   1       1.354  -4.559  -0.172  0.00  0.00    -0.242 OA
ATOM     11  C   UNL d   1      -0.862  -3.874  -0.829  0.00  0.00     0.080 C 
ATOM     12  N   UNL d   1       2.570  -4.077   0.279  0.00  0.00    -0.265 N 
ATOM     13  C   UNL d   1       2.422  -2.748   0.379  0.00  0.00     0.045 A 
ATOM     14  HN  UNL d   1       3.407  -4.620   0.490  1.00  0.00     0.194 HD
ATOM     15  C   UNL d   1       3.548  -1.906   0.849  0.00  0.00     0.071 C 
ENDBRANCH   1   8
BRANCH   4  16
ATOM     16  C   UNL d   1       0.604   2.528   0.047  0.00  0.00     0.078 A 
ATOM     17  N   UNL d   1       1.903   2.847   0.289  0.00  0.00    -0.363 N 
ATOM     18  C   UNL d   1       2.228   4.157   0.317  0.00  0.00     0.088 A 
ATOM     19  HN  UNL d   1       2.605   2.123   0.444  1.00  0.00     0.165 HD
ATOM     20  C   UNL d   1       1.319   5.182   0.116  0.00  0.00     0.017 A 
ATOM     21  C   UNL d   1      -0.007   4.845  -0.123  0.00  0.00     0.004 A 
ATOM     22  C   UNL d   1      -0.374   3.501  -0.158  0.00  0.00     0.033 A 
ENDBRANCH   4  16
TORSDOF 2
