REMARK  5 active torsions:
REMARK  status: ('A' for Active; 'I' for Inactive)
REMARK    1  A    between atoms: N_3  and  C_1 
REMARK    2  A    between atoms: N_7  and  C_1 
REMARK    3  A    between atoms: C_2  and  N_3 
REMARK    4  A    between atoms: C_5  and  C_16 
REMARK    5  A    between atoms: C_16  and  N_7 
ROOT
ATOM      1  C   UNL d   1       1.108   0.013  -0.081  0.00  0.00     0.172 C 
ATOM      2  S   UNL d   1       0.421   0.121  -1.600  0.00  0.00    -0.041 SA
ENDROOT
BRANCH   1   3
ATOM      3  N   UNL d   1       0.459  -0.099   1.126  0.00  0.00    -0.333 N 
ATOM      4  H   UNL d   1       0.827   0.523   1.836  0.00  0.00     0.168 HD
BRANCH   3   5
ATOM      5  C   UNL d   1      -0.841  -0.603   1.357  0.00  0.00     0.037 A 
ATOM      6  C   UNL d   1      -1.356  -1.684   0.637  0.00  0.00     0.053 A 
ATOM      7  C   UNL d   1      -2.637  -2.164   0.912  0.00  0.00     0.037 A 
ATOM      8 CL   UNL d   1      -3.253  -3.505   0.027  0.00  0.00    -0.084 Cl
ATOM      9  C   UNL d   1      -3.416  -1.578   1.905  0.00  0.00     0.048 A 
ATOM     10  C   UNL d   1      -2.889  -0.518   2.639  0.00  0.00     0.037 A 
ATOM     11  C   UNL d   1      -1.601  -0.042   2.388  0.00  0.00     0.053 A 
ATOM     12 CL   UNL d   1      -3.843   0.217   3.870  0.00  0.00    -0.084 Cl
ENDBRANCH   3   5
ENDBRANCH   1   3
BRANCH   1  13
ATOM     13  N   UNL d   1       2.470   0.105  -0.004  0.00  0.00    -0.362 N 
ATOM     14  H   UNL d   1       2.909   0.134  -0.918  0.00  0.00     0.162 HD
BRANCH  13  15
ATOM     15  C   UNL d   1       3.285  -0.432   1.070  0.00  0.00     0.168 C 
BRANCH  15  16
ATOM     16  C   UNL d   1       4.722  -0.209   0.731  0.00  0.00     0.000 A 
ATOM     17  S   UNL d   1       5.720  -1.531   0.287  0.00  0.00    -0.105 SA
ATOM     18  C   UNL d   1       7.078  -0.516   0.066  0.00  0.00     0.050 A 
ATOM     19  C   UNL d   1       6.784   0.803   0.322  0.00  0.00     0.008 A 
ATOM     20  C   UNL d   1       5.423   0.981   0.705  0.00  0.00     0.017 A 
ENDBRANCH  15  16
ENDBRANCH  13  15
ENDBRANCH   1  13
TORSDOF 5
