REMARK  4 active torsions:
REMARK  status: ('A' for Active; 'I' for Inactive)
REMARK    1  A    between atoms: O_13  and  C_3 
REMARK    2  A    between atoms: O_14  and  C_4 
REMARK    3  A    between atoms: C_5  and  C_11 
REMARK    4  A    between atoms: C_12  and  C_6 
ROOT
ATOM      1  N   UNL d   1       3.418   4.655  -5.439  0.00  0.00    -0.197 NA
ATOM      2  C   UNL d   1       4.197   4.480  -4.597  0.00  0.00     0.063 C 
ATOM      3  C   UNL d   1       5.213   4.249  -3.559  0.00  0.00     0.165 C 
ENDROOT
BRANCH   3   4
ATOM      4  C   UNL d   1       4.817   3.142  -2.607  0.00  0.00    -0.009 A 
ATOM      5  C   UNL d   1       4.085   3.406  -1.440  0.00  0.00     0.076 A 
ATOM      6  C   UNL d   1       3.756   2.352  -0.583  0.00  0.00     0.048 A 
ATOM      7  C   UNL d   1       4.101   1.021  -0.897  0.00  0.00    -0.009 A 
ATOM      8  C   UNL d   1       4.787   0.754  -2.092  0.00  0.00     0.076 A 
ATOM      9  C   UNL d   1       5.163   1.815  -2.920  0.00  0.00     0.048 A 
BRANCH   5  10
ATOM     10  O   UNL d   1       3.729   4.713  -1.249  0.00  0.00    -0.355 OA
ATOM     11  C   UNL d   1       3.157   5.064   0.005  0.00  0.00     0.210 C 
ENDBRANCH   5  10
BRANCH   7  12
ATOM     12  C   UNL d   1       3.725  -0.086   0.066  0.00  0.00     0.165 C 
ATOM     13  C   UNL d   1       4.775  -0.360   1.062  0.00  0.00     0.063 C 
ATOM     14  N   UNL d   1       5.571  -0.578   1.875  0.00  0.00    -0.197 NA
ENDBRANCH   7  12
BRANCH   8  15
ATOM     15  O   UNL d   1       5.061  -0.559  -2.372  0.00  0.00    -0.355 OA
ATOM     16  C   UNL d   1       5.291  -0.867  -3.747  0.00  0.00     0.210 C 
ENDBRANCH   8  15
ENDBRANCH   3   4
TORSDOF 4
