REMARK  4 active torsions:
REMARK  status: ('A' for Active; 'I' for Inactive)
REMARK    1  A    between atoms: N_6  and  S_1 
REMARK    2  A    between atoms: C_10  and  S_1 
REMARK    3  A    between atoms: N_9  and  C_2 
REMARK    4  A    between atoms: C_14  and  N_6 
REMARK       I    between atoms: C_13  and  N_9 
ROOT
ATOM      1  C   UNL d   1      -0.494  -6.814   2.572  0.00  0.00     0.112 C 
ATOM      2  C   UNL d   1       0.885  -7.234   2.162  0.00  0.00     0.315 C 
ATOM      3  O   UNL d   1       1.827  -6.236   1.946  0.00  0.00    -0.273 OA
ATOM      4  C   UNL d   1      -0.829  -5.520   2.552  0.00  0.00     0.050 C 
ATOM      5  C   UNL d   1       0.133  -4.505   2.155  0.00  0.00     0.002 A 
ATOM      6  C   UNL d   1       1.446  -4.884   1.900  0.00  0.00     0.090 A 
ATOM      7  C   UNL d   1       0.724  -2.228   1.611  0.00  0.00     0.043 A 
ATOM      8  C   UNL d   1      -0.229  -3.163   2.021  0.00  0.00     0.044 A 
ATOM      9  O   UNL d   1       1.164  -8.428   2.059  0.00  0.00    -0.257 OA
ATOM     10  C   UNL d   1       2.418  -3.951   1.548  0.00  0.00     0.040 A 
ATOM     11  C   UNL d   1       2.047  -2.615   1.391  0.00  0.00     0.033 A 
ENDROOT
BRANCH   7  12
ATOM     12  N   UNL d   1       0.350  -0.883   1.373  0.00  0.00    -0.281 N 
ATOM     13  H   UNL d   1      -0.007  -0.310   2.134  0.00  0.00     0.179 HD
BRANCH  12  14
ATOM     14  S   UNL d   1      -0.112  -0.397  -0.173  0.00  0.00     0.263 S 
ATOM     15  O   UNL d   1       0.918  -0.783  -1.115  0.00  0.00    -0.200 OA
ATOM     16  O   UNL d   1      -0.542   0.978  -0.051  0.00  0.00    -0.200 OA
BRANCH  14  17
ATOM     17  C   UNL d   1      -1.556  -1.384  -0.512  0.00  0.00     0.080 A 
ATOM     18  C   UNL d   1      -2.824  -0.887  -0.188  0.00  0.00     0.027 A 
ATOM     19  C   UNL d   1      -3.955  -1.671  -0.436  0.00  0.00     0.025 A 
ATOM     20  C   UNL d   1      -3.810  -2.936  -1.012  0.00  0.00     0.034 A 
ATOM     21  C   UNL d   1      -2.549  -3.416  -1.363  0.00  0.00     0.025 A 
ATOM     22 CL   UNL d   1      -5.201  -3.910  -1.287  0.00  0.00    -0.084 Cl
ATOM     23  C   UNL d   1      -1.415  -2.632  -1.127  0.00  0.00     0.027 A 
ENDBRANCH  14  17
ENDBRANCH  12  14
ENDBRANCH   7  12
BRANCH   1  24
ATOM     24  N   UNL d   1      -1.336  -7.853   2.950  0.00  0.00    -0.322 N 
ATOM     25  C   UNL d   1      -2.620  -7.766   3.446  0.00  0.00     0.218 C 
ATOM     26  O   UNL d   1      -3.251  -6.729   3.633  0.00  0.00    -0.274 OA
ATOM     27  C   UNL d   1      -3.228  -9.101   3.796  0.00  0.00     0.117 C 
ATOM     28  H   UNL d   1      -0.912  -8.774   2.872  0.00  0.00     0.169 HD
ENDBRANCH   1  24
TORSDOF 4
