REMARK  3 active torsions:
REMARK  status: ('A' for Active; 'I' for Inactive)
REMARK    1  A    between atoms: C_5  and  C_1 
REMARK       I    between atoms: N_8  and  C_5 
REMARK    2  A    between atoms: C_12  and  N_8 
REMARK    3  A    between atoms: C_15  and  C_12 
ROOT
ATOM      1  N   UNL d   1       5.979  -6.866   3.139  0.00  0.00    -0.197 NA
ATOM      2  C   UNL d   1       6.449  -6.348   2.216  0.00  0.00     0.064 C 
ATOM      3  C   UNL d   1       7.052  -5.685   1.042  0.00  0.00     0.093 C 
ATOM      4  C   UNL d   1       5.375  -3.432   0.025  0.00  0.00     0.003 C 
ATOM      5  C   UNL d   1       7.370  -4.217   1.356  0.00  0.00     0.019 C 
ATOM      6  C   UNL d   1       6.144  -5.833  -0.188  0.00  0.00     0.019 C 
ATOM      7  C   UNL d   1       6.136  -3.313   1.352  0.00  0.00     0.007 C 
ATOM      8  C   UNL d   1       4.931  -4.893  -0.164  0.00  0.00     0.007 C 
ENDROOT
BRANCH   4   9
ATOM      9  C   UNL d   1       4.185  -2.459  -0.038  0.00  0.00     0.127 C 
BRANCH   9  10
ATOM     10  N   UNL d   1       4.604  -1.062   0.005  0.00  0.00    -0.356 N 
ATOM     11  C   UNL d   1       5.007  -0.388  -1.135  0.00  0.00     0.260 C 
ATOM     12  O   UNL d   1       4.999  -0.982  -2.215  0.00  0.00    -0.267 OA
ATOM     13  H   UNL d   1       4.662  -0.597   0.902  0.00  0.00     0.162 HD
BRANCH  11  14
ATOM     14  C   UNL d   1       5.428   1.005  -0.994  0.00  0.00     0.096 A 
ATOM     15  S   UNL d   1       5.843   1.825  -2.449  0.00  0.00    -0.082 SA
ATOM     16  C   UNL d   1       6.223   3.289  -1.650  0.00  0.00     0.017 A 
ATOM     17  C   UNL d   1       6.667   4.481  -2.259  0.00  0.00     0.020 A 
ATOM     18  C   UNL d   1       6.042   3.181  -0.271  0.00  0.00     0.004 A 
ATOM     19  C   UNL d   1       6.943   5.591  -1.464  0.00  0.00     0.001 A 
ATOM     20  C   UNL d   1       6.779   5.521  -0.088  0.00  0.00     0.001 A 
ATOM     21  C   UNL d   1       6.333   4.335   0.511  0.00  0.00     0.014 A 
ATOM     22  C   UNL d   1       5.575   1.853   0.089  0.00  0.00     0.068 A 
ATOM     23 CL   UNL d   1       5.263   1.444   1.734  0.00  0.00    -0.082 Cl
ENDBRANCH  11  14
ENDBRANCH   9  10
ENDBRANCH   4   9
TORSDOF 3
