REMARK  5 active torsions:
REMARK  status: ('A' for Active; 'I' for Inactive)
REMARK    1  A    between atoms: C_7  and  C_1 
REMARK    2  A    between atoms: C_10  and  N_2 
REMARK    3  A    between atoms: C_8  and  C_5 
REMARK       I    between atoms: C_9  and  N_13 
REMARK       I    between atoms: N_12  and  C_9 
REMARK    4  A    between atoms: C_11  and  N_12 
REMARK    5  A    between atoms: N_13  and  C_28 
ROOT
ATOM      1  C   UNL d   1       2.072   1.425   0.475  0.00  0.00     0.057 A 
ATOM      2  C   UNL d   1       3.255   0.944  -0.099  0.00  0.00     0.034 A 
ATOM      3  C   UNL d   1       2.045   2.741   0.955  0.00  0.00     0.034 A 
ATOM      4  C   UNL d   1       4.319   3.126   0.210  0.00  0.00     0.036 A 
ATOM      5  C   UNL d   1       3.158   3.575   0.834  0.00  0.00     0.032 A 
ATOM      6  C   UNL d   1       4.367   1.795  -0.228  0.00  0.00     0.032 A 
ENDROOT
BRANCH   1   7
ATOM      7  N   UNL d   1       0.856   0.683   0.492  0.00  0.00    -0.251 N 
ATOM      8  C   UNL d   1       0.598  -0.668   0.413  0.00  0.00     0.142 C 
ATOM      9  C   UNL d   1      -0.753  -0.793   0.142  0.00  0.00     0.072 C 
ATOM     10  C   UNL d   1      -1.277   0.518   0.184  0.00  0.00     0.134 C 
ATOM     11  N   UNL d   1      -0.308   1.387   0.508  0.00  0.00    -0.289 N 
ATOM     12  HN  UNL d   1      -0.422   2.378   0.723  1.00  0.00     0.187 HD
BRANCH   8  13
ATOM     13  C   UNL d   1       1.598  -1.719   0.647  0.00  0.00     0.434 C 
ATOM     14  F   UNL d   1       2.582  -1.351   1.500  0.00  0.00    -0.165 F 
ATOM     15  F   UNL d   1       1.024  -2.828   1.183  0.00  0.00    -0.165 F 
ATOM     16  F   UNL d   1       2.188  -2.111  -0.508  0.00  0.00    -0.165 F 
ENDBRANCH   8  13
BRANCH  10  17
ATOM     17  C   UNL d   1      -2.706   0.933  -0.058  0.00  0.00     0.434 C 
ATOM     18  F   UNL d   1      -2.893   2.279  -0.054  0.00  0.00    -0.165 F 
ATOM     19  F   UNL d   1      -3.149   0.483  -1.265  0.00  0.00    -0.165 F 
ATOM     20  F   UNL d   1      -3.545   0.413   0.877  0.00  0.00    -0.165 F 
ENDBRANCH  10  17
ENDBRANCH   1   7
BRANCH   4  21
ATOM     21  N   UNL d   1       5.419   3.966  -0.085  0.00  0.00    -0.309 N 
ATOM     22  C   UNL d   1       5.511   5.325   0.189  0.00  0.00     0.325 C 
ATOM     23  N   UNL d   1       6.532   5.917  -0.542  0.00  0.00    -0.309 N 
ATOM     24  O   UNL d   1       4.760   5.938   0.937  0.00  0.00    -0.247 OA
ATOM     25  H   UNL d   1       7.143   5.299  -1.052  0.00  0.00     0.170 HD
ATOM     26  H   UNL d   1       6.180   3.542  -0.591  0.00  0.00     0.170 HD
BRANCH  23  27
ATOM     27  C   UNL d   1       6.769   7.305  -0.695  0.00  0.00     0.039 A 
ATOM     28  C   UNL d   1       5.985   8.305  -0.111  0.00  0.00     0.053 A 
ATOM     29  C   UNL d   1       6.258   9.654  -0.354  0.00  0.00     0.037 A 
ATOM     30 CL   UNL d   1       5.271  10.868   0.364  0.00  0.00    -0.084 Cl
ATOM     31  C   UNL d   1       7.312  10.029  -1.177  0.00  0.00     0.048 A 
ATOM     32  C   UNL d   1       8.098   9.039  -1.756  0.00  0.00     0.037 A 
ATOM     33  C   UNL d   1       7.837   7.686  -1.519  0.00  0.00     0.053 A 
ATOM     34 CL   UNL d   1       9.403   9.483  -2.787  0.00  0.00    -0.084 Cl
ENDBRANCH  23  27
ENDBRANCH   4  21
TORSDOF 5
