REMARK  5 active torsions:
REMARK  status: ('A' for Active; 'I' for Inactive)
REMARK    1  A    between atoms: C_10  and  C_1 
REMARK    2  A    between atoms: C_11  and  C_5 
REMARK    3  A    between atoms: C_8  and  N_7 
REMARK    4  A    between atoms: N_9  and  C_11 
REMARK    5  A    between atoms: O_19  and  C_14 
ROOT
ATOM      1  N   UNL d   1       3.533  -0.499  -0.229  0.00  0.00    -0.375 N 
ATOM      2  N   UNL d   1       2.449   2.230   0.039  0.00  0.00     0.097 N 
ATOM      3  C   UNL d   1       2.542  -0.007  -1.194  0.00  0.00     0.153 C 
ATOM      4  C   UNL d   1       3.407   0.095   1.117  0.00  0.00     0.153 C 
ATOM      5  C   UNL d   1       3.397   1.643   1.020  0.00  0.00     0.292 C 
ATOM      6  C   UNL d   1       2.616   1.537  -1.258  0.00  0.00     0.292 C 
ENDROOT
BRANCH   2   7
ATOM      7  C   UNL d   1       1.048   2.168   0.505  0.00  0.00     0.337 C 
BRANCH   7   8
ATOM      8  C   UNL d   1       0.768   3.142   1.623  0.00  0.00     0.080 C 
ATOM      9  S   UNL d   1       1.065   4.814   1.392  0.00  0.00    -0.070 SA
ATOM     10  C   UNL d   1       0.754   5.106   3.050  0.00  0.00     0.074 C 
ATOM     11  C   UNL d   1       0.257   3.944   3.628  0.00  0.00     0.026 C 
ATOM     12  N   UNL d   1       0.303   2.819   2.812  0.00  0.00    -0.355 N 
ATOM     13  C   UNL d   1      -0.260   3.774   5.015  0.00  0.00     0.070 C 
ATOM     14  HN  UNL d   1       0.018   1.881   3.092  1.00  0.00     0.166 HD
BRANCH  10  15
ATOM     15  C   UNL d   1       0.967   6.406   3.663  0.00  0.00     0.164 C 
ATOM     16  O   UNL d   1       0.510   6.688   4.775  0.00  0.00    -0.292 OA
ATOM     17  C   UNL d   1       1.814   7.447   2.958  0.00  0.00     0.097 C 
ENDBRANCH  10  15
ENDBRANCH   7   8
ENDBRANCH   2   7
BRANCH   1  18
ATOM     18  C   UNL d   1       4.002  -1.813  -0.306  0.00  0.00     0.064 A 
ATOM     19  C   UNL d   1       3.317  -2.909  -0.896  0.00  0.00     0.094 A 
ATOM     20  C   UNL d   1       3.952  -4.158  -1.013  0.00  0.00     0.039 A 
ATOM     21  C   UNL d   1       5.242  -4.360  -0.520  0.00  0.00     0.003 A 
ATOM     22  C   UNL d   1       5.911  -3.314   0.094  0.00  0.00     0.002 A 
ATOM     23  C   UNL d   1       5.298  -2.066   0.192  0.00  0.00     0.032 A 
BRANCH  19  24
ATOM     24  O   UNL d   1       2.032  -2.703  -1.348  0.00  0.00    -0.354 OA
ATOM     25  C   UNL d   1       1.212  -3.857  -1.498  0.00  0.00     0.210 C 
ENDBRANCH  19  24
ENDBRANCH   1  18
TORSDOF 5
