REMARK  1 active torsions:
REMARK  status: ('A' for Active; 'I' for Inactive)
REMARK    1  A    between atoms: C_2  and  N_1 
ROOT
ATOM      1  C   UNL d   1       1.178   2.351  -0.950  0.00  0.00     0.056 A 
ATOM      2  C   UNL d   1       1.071   3.701  -0.493  0.00  0.00     0.002 A 
ATOM      3  C   UNL d   1       1.554   4.734  -1.324  0.00  0.00    -0.024 A 
ATOM      4  C   UNL d   1       1.800   2.061  -2.170  0.00  0.00     0.031 A 
ATOM      5  C   UNL d   1       0.534   4.062   0.768  0.00  0.00     0.014 A 
ATOM      6  C   UNL d   1       2.282   3.094  -2.970  0.00  0.00     0.003 A 
ATOM      7  C   UNL d   1       2.148   4.418  -2.555  0.00  0.00     0.012 A 
ATOM      8  C   UNL d   1       1.445   6.075  -0.907  0.00  0.00     0.012 A 
ATOM      9  C   UNL d   1       0.448   5.394   1.175  0.00  0.00     0.001 A 
ATOM     10  C   UNL d   1       0.892   6.401   0.330  0.00  0.00     0.001 A 
ENDROOT
BRANCH   1  11
ATOM     11  N   UNL d   1       0.584   1.312  -0.162  0.00  0.00    -0.250 N 
ATOM     12  C   UNL d   1      -0.818   1.244  -0.245  0.00  0.00     0.240 C 
ATOM     13  O   UNL d   1      -1.482   1.788  -1.132  0.00  0.00    -0.272 OA
ATOM     14  C   UNL d   1      -1.531   0.512   0.868  0.00  0.00     0.178 C 
ATOM     15  S   UNL d   1      -0.825  -1.110   1.186  0.00  0.00    -0.150 SA
ATOM     16  C   UNL d   1       0.870  -0.557   1.411  0.00  0.00     0.178 C 
ATOM     17  C   UNL d   1       1.373   0.217   0.208  0.00  0.00     0.240 C 
ATOM     18  O   UNL d   1       2.454  -0.086  -0.301  0.00  0.00    -0.272 OA
ENDBRANCH   1  11
TORSDOF 1
