REMARK  3 active torsions:
REMARK  status: ('A' for Active; 'I' for Inactive)
REMARK    1  A    between atoms: C_12  and  N_1 
REMARK    2  A    between atoms: N_6  and  C_8 
REMARK    3  A    between atoms: C_18  and  C_12 
ROOT
ATOM      1  N   UNL d   1       2.215  -0.129   0.267  0.00  0.00    -0.277 N 
ATOM      2  C   UNL d   1       1.656   1.133   0.085  0.00  0.00     0.261 A 
ATOM      3  C   UNL d   1       1.487  -1.320   0.260  0.00  0.00     0.261 A 
ATOM      4  C   UNL d   1       0.178   1.225   0.059  0.00  0.00     0.047 A 
ATOM      5  C   UNL d   1       0.011  -1.207   0.169  0.00  0.00     0.044 A 
ATOM      6  C   UNL d   1      -0.588   0.055   0.089  0.00  0.00     0.006 A 
ATOM      7  C   UNL d   1      -1.828   2.568  -0.072  0.00  0.00     0.104 A 
ATOM      8  C   UNL d   1      -0.433   2.484  -0.024  0.00  0.00     0.054 A 
ATOM      9  C   UNL d   1      -2.001   0.147   0.022  0.00  0.00    -0.021 A 
ATOM     10  C   UNL d   1      -2.614   1.407  -0.052  0.00  0.00     0.048 A 
ATOM     11  O   UNL d   1       1.989  -2.442   0.287  0.00  0.00    -0.267 OA
ATOM     12  O   UNL d   1       2.316   2.156  -0.083  0.00  0.00    -0.267 OA
ATOM     13  C   UNL d   1      -0.772  -2.369   0.154  0.00  0.00     0.018 A 
ATOM     14  C   UNL d   1      -2.771  -1.026   0.021  0.00  0.00     0.012 A 
ATOM     15  C   UNL d   1      -2.160  -2.278   0.080  0.00  0.00     0.002 A 
ENDROOT
BRANCH   1  16
ATOM     16  C   UNL d   1       3.680  -0.218   0.299  0.00  0.00     0.167 C 
BRANCH  16  17
ATOM     17  C   UNL d   1       4.323   0.451   1.525  0.00  0.00     0.140 C 
ATOM     18  O   UNL d   1       3.946  -0.227   2.738  0.00  0.00    -0.384 OA
ATOM     19  C   UNL d   1       5.086  -0.286   3.607  0.00  0.00     0.168 C 
ATOM     20  C   UNL d   1       6.224   0.447   2.929  0.00  0.00     0.029 C 
ATOM     21  C   UNL d   1       5.843   0.392   1.472  0.00  0.00     0.035 C 
ENDBRANCH  16  17
ENDBRANCH   1  16
BRANCH   7  22
ATOM     22  N   UNL d   1      -2.479   3.882  -0.151  0.00  0.00    -0.116 N 
ATOM     23  O   UNL d   1      -1.752   4.885  -0.176  0.00  0.00    -0.532 OA
ATOM     24  O   UNL d   1      -3.717   3.909  -0.186  0.00  0.00    -0.532 OA
ENDBRANCH   7  22
TORSDOF 3
