REMARK  6 active torsions:
REMARK  status: ('A' for Active; 'I' for Inactive)
REMARK    1  A    between atoms: C_11  and  C_1 
REMARK    2  A    between atoms: C_5  and  C_2 
REMARK    3  A    between atoms: N_8  and  C_3 
REMARK    4  A    between atoms: C_4  and  N_8 
REMARK    5  A    between atoms: O_15  and  C_5 
REMARK    6  A    between atoms: C_17  and  O_15 
ROOT
ATOM      1  C   UNL d   1       3.687   3.935  -0.059  0.00  0.00     0.135 C 
ATOM      2  C   UNL d   1       2.569   3.229  -0.322  0.00  0.00     0.117 C 
ATOM      3  C   UNL d   1       3.621   5.291   0.354  0.00  0.00     0.107 C 
ATOM      4  N   UNL d   1       3.481   6.388   0.707  0.00  0.00    -0.191 NA
ENDROOT
BRANCH   1   5
ATOM      5  C   UNL d   1       5.038   3.346  -0.235  0.00  0.00     0.305 C 
ATOM      6  O   UNL d   1       6.071   3.996  -0.153  0.00  0.00    -0.258 OA
BRANCH   5   7
ATOM      7  O   UNL d   1       4.973   2.021  -0.526  0.00  0.00    -0.317 OA
BRANCH   7   8
ATOM      8  C   UNL d   1       6.191   1.406  -0.969  0.00  0.00     0.174 C 
ATOM      9  C   UNL d   1       6.311   1.580  -2.472  0.00  0.00     0.034 C 
ENDBRANCH   7   8
ENDBRANCH   5   7
ENDBRANCH   1   5
BRANCH   2  10
ATOM     10  N   UNL d   1       1.246   3.627  -0.250  0.00  0.00    -0.363 N 
ATOM     11  H   UNL d   1       1.127   4.518   0.237  0.00  0.00     0.165 HD
BRANCH  10  12
ATOM     12  C   UNL d   1       0.123   2.887  -0.472  0.00  0.00     0.053 A 
ATOM     13  C   UNL d   1      -0.138   1.943  -1.463  0.00  0.00     0.076 A 
ATOM     14  S   UNL d   1      -1.725   1.283  -1.252  0.00  0.00    -0.096 SA
ATOM     15  C   UNL d   1      -2.083   2.316   0.048  0.00  0.00     0.053 A 
ATOM     16  C   UNL d   1      -1.020   3.128   0.355  0.00  0.00     0.038 A 
BRANCH  13  17
ATOM     17  C   UNL d   1       0.671   1.478  -2.596  0.00  0.00     0.164 C 
ATOM     18  O   UNL d   1       1.896   1.611  -2.674  0.00  0.00    -0.292 OA
ATOM     19  C   UNL d   1      -0.026   0.785  -3.752  0.00  0.00     0.097 C 
ENDBRANCH  13  17
ENDBRANCH  10  12
ENDBRANCH   2  10
TORSDOF 6
