REMARK  4 active torsions:
REMARK  status: ('A' for Active; 'I' for Inactive)
REMARK    1  A    between atoms: C_4  and  C_1 
REMARK       I    between atoms: N_9  and  C_4 
REMARK       I    between atoms: C_8  and  N_10 
REMARK    2  A    between atoms: C_11  and  C_8 
REMARK    3  A    between atoms: N_10  and  N_9 
REMARK    4  A    between atoms: O_19  and  C_16 
ROOT
ATOM      1  C   UNL d   1       0.002   2.671  -0.123  0.00  0.00     0.274 C 
ATOM      2  N   UNL d   1      -1.127   3.362   0.285  0.00  0.00    -0.263 N 
ATOM      3  O   UNL d   1      -0.111   1.735  -0.914  0.00  0.00    -0.266 OA
ATOM      4  H   UNL d   1      -1.147   4.191   0.870  0.00  0.00     0.190 HD
ENDROOT
BRANCH   2   5
ATOM      5  N   UNL d   1      -2.349   2.974  -0.306  0.00  0.00    -0.263 N 
ATOM      6  C   UNL d   1      -3.526   3.555   0.122  0.00  0.00     0.270 C 
ATOM      7  O   UNL d   1      -3.562   4.447   0.965  0.00  0.00    -0.266 OA
ATOM      8  H   UNL d   1      -2.322   2.112  -0.851  0.00  0.00     0.190 HD
BRANCH   6   9
ATOM      9  C   UNL d   1      -4.776   3.005  -0.477  0.00  0.00     0.033 A 
ATOM     10  C   UNL d   1      -5.943   2.984   0.296  0.00  0.00     0.020 A 
ATOM     11  C   UNL d   1      -7.135   2.461  -0.227  0.00  0.00     0.038 A 
ATOM     12  C   UNL d   1      -7.166   1.967  -1.531  0.00  0.00     0.068 A 
ATOM     13  C   UNL d   1      -6.014   2.029  -2.318  0.00  0.00     0.038 A 
ATOM     14  C   UNL d   1      -4.819   2.535  -1.796  0.00  0.00     0.020 A 
BRANCH  12  15
ATOM     15  O   UNL d   1      -8.271   1.450  -2.152  0.00  0.00    -0.356 OA
ATOM     16  C   UNL d   1      -9.214   0.809  -1.298  0.00  0.00     0.210 C 
ENDBRANCH  12  15
ENDBRANCH   6   9
ENDBRANCH   2   5
BRANCH   1  17
ATOM     17  C   UNL d   1       1.297   3.086   0.393  0.00  0.00     0.089 A 
ATOM     18  C   UNL d   1       2.489   2.544  -0.065  0.00  0.00     0.090 A 
ATOM     19  O   UNL d   1       3.535   3.095   0.594  0.00  0.00    -0.242 OA
ATOM     20  C   UNL d   1       2.830   1.531  -1.086  0.00  0.00     0.080 C 
ATOM     21  N   UNL d   1       3.069   4.014   1.503  0.00  0.00    -0.265 N 
ATOM     22  C   UNL d   1       1.734   4.012   1.387  0.00  0.00     0.047 A 
ATOM     23  HN  UNL d   1       3.628   4.583   2.139  1.00  0.00     0.194 HD
ATOM     24  C   UNL d   1       0.968   4.912   2.282  0.00  0.00     0.071 C 
ENDBRANCH   1  17
TORSDOF 4
