REMARK  6 active torsions:
REMARK  status: ('A' for Active; 'I' for Inactive)
REMARK    1  A    between atoms: C_2  and  C_1 
REMARK       I    between atoms: N_6  and  C_2 
REMARK    2  A    between atoms: C_21  and  N_6 
REMARK    3  A    between atoms: C_10  and  C_20 
REMARK    4  A    between atoms: S_12  and  C_22 
REMARK    5  A    between atoms: C_20  and  S_12 
REMARK    6  A    between atoms: C_22  and  C_21 
ROOT
ATOM      1  C   UNL d   1      -1.245   2.513  -1.082  0.00  0.00     0.256 C 
ATOM      2  O   UNL d   1      -1.138   3.090  -2.154  0.00  0.00    -0.268 OA
ATOM      3  N   UNL d   1      -1.173   3.195   0.121  0.00  0.00    -0.356 N 
ATOM      4  H   UNL d   1      -1.178   2.683   0.996  0.00  0.00     0.162 HD
ENDROOT
BRANCH   3   5
ATOM      5  C   UNL d   1      -0.874   4.614   0.155  0.00  0.00     0.133 C 
BRANCH   5   6
ATOM      6  C   UNL d   1      -2.131   5.479   0.059  0.00  0.00     0.093 C 
BRANCH   6   7
ATOM      7  S   UNL d   1      -1.754   7.266   0.118  0.00  0.00    -0.163 SA
BRANCH   7   8
ATOM      8  C   UNL d   1      -0.814   7.436  -1.436  0.00  0.00     0.112 C 
BRANCH   8   9
ATOM      9  C   UNL d   1      -0.313   8.848  -1.620  0.00  0.00    -0.049 A 
ATOM     10  C   UNL d   1       0.932   9.232  -1.091  0.00  0.00     0.011 A 
ATOM     11  C   UNL d   1       1.396  10.537  -1.251  0.00  0.00     0.043 A 
ATOM     12  C   UNL d   1       0.615  11.462  -1.934  0.00  0.00     0.116 A 
ATOM     13  C   UNL d   1      -0.621  11.105  -2.460  0.00  0.00     0.043 A 
ATOM     14  F   UNL d   1       1.059  12.716  -2.084  0.00  0.00    -0.206 F 
ATOM     15  C   UNL d   1      -1.088   9.799  -2.302  0.00  0.00     0.011 A 
ENDBRANCH   8   9
ENDBRANCH   7   8
ENDBRANCH   6   7
ENDBRANCH   5   6
ENDBRANCH   3   5
BRANCH   1  16
ATOM     16  C   UNL d   1      -1.431   1.037  -1.013  0.00  0.00     0.092 A 
ATOM     17  C   UNL d   1      -2.106   0.324  -2.016  0.00  0.00     0.052 A 
ATOM     18 CL   UNL d   1      -2.886   1.066  -3.369  0.00  0.00    -0.083 Cl
ATOM     19  C   UNL d   1      -2.222  -1.073  -1.930  0.00  0.00     0.025 A 
ATOM     20  C   UNL d   1      -1.672  -1.770  -0.855  0.00  0.00     0.005 A 
ATOM     21  C   UNL d   1      -1.003  -1.072   0.143  0.00  0.00     0.043 A 
ATOM     22  C   UNL d   1      -0.887   0.316   0.057  0.00  0.00     0.133 A 
ATOM     23  F   UNL d   1      -0.229   0.943   1.047  0.00  0.00    -0.205 F 
ENDBRANCH   1  16
TORSDOF 6
