REMARK  6 active torsions:
REMARK  status: ('A' for Active; 'I' for Inactive)
REMARK    1  A    between atoms: C_10  and  N_1 
REMARK    2  A    between atoms: C_12  and  C_4 
REMARK    3  A    between atoms: C_16  and  C_6 
REMARK    4  A    between atoms: C_7  and  C_11 
REMARK    5  A    between atoms: O_23  and  C_9 
REMARK    6  A    between atoms: N_13  and  C_21 
ROOT
ATOM      1  C   UNL d   1       8.507  -3.216   2.947  0.00  0.00     0.056 A 
ATOM      2  C   UNL d   1       7.275  -2.745   3.420  0.00  0.00     0.034 A 
ATOM      3  C   UNL d   1       8.522  -3.956   1.769  0.00  0.00     0.034 A 
ATOM      4  C   UNL d   1       6.106  -3.759   1.558  0.00  0.00     0.032 A 
ATOM      5  C   UNL d   1       7.331  -4.219   1.079  0.00  0.00     0.032 A 
ATOM      6  C   UNL d   1       6.093  -2.983   2.715  0.00  0.00     0.032 A 
ENDROOT
BRANCH   1   7
ATOM      7  N   UNL d   1       9.677  -2.979   3.731  0.00  0.00    -0.260 N 
ATOM      8  N   UNL d   1       9.473  -2.836   5.070  0.00  0.00    -0.297 N 
ATOM      9  C   UNL d   1      10.660  -2.980   5.650  0.00  0.00     0.036 C 
ATOM     10  HN  UNL d   1       8.583  -2.655   5.536  1.00  0.00     0.187 HD
ATOM     11  C   UNL d   1      11.671  -2.994   4.671  0.00  0.00     0.055 C 
ATOM     12  C   UNL d   1      11.048  -2.909   3.428  0.00  0.00     0.044 C 
BRANCH   9  13
ATOM     13  C   UNL d   1      10.790  -3.075   7.163  0.00  0.00    -0.007 C 
ATOM     14  C   UNL d   1       9.415  -3.052   7.872  0.00  0.00     0.021 C 
ATOM     15  C   UNL d   1      11.486  -4.399   7.542  0.00  0.00     0.021 C 
ATOM     16  C   UNL d   1      11.622  -1.900   7.712  0.00  0.00     0.021 C 
ENDBRANCH   9  13
BRANCH  12  17
ATOM     17  C   UNL d   1      11.727  -2.693   2.064  0.00  0.00    -0.007 C 
ATOM     18  C   UNL d   1      10.951  -1.728   1.144  0.00  0.00     0.021 C 
ATOM     19  C   UNL d   1      13.115  -2.014   2.272  0.00  0.00     0.021 C 
ATOM     20  C   UNL d   1      12.061  -4.027   1.367  0.00  0.00     0.021 C 
ENDBRANCH  12  17
ENDBRANCH   1   7
BRANCH   4  21
ATOM     21  N   UNL d   1       4.974  -4.034   0.792  0.00  0.00    -0.365 N 
ATOM     22  C   UNL d   1       3.815  -4.383   1.256  0.00  0.00     0.102 C 
ATOM     23  HN  UNL d   1       5.065  -3.953  -0.221  1.00  0.00     0.165 HD
BRANCH  22  24
ATOM     24  C   UNL d   1       3.342  -4.663   2.630  0.00  0.00     0.015 A 
ATOM     25  C   UNL d   1       2.025  -4.308   2.950  0.00  0.00     0.094 A 
ATOM     26  C   UNL d   1       1.486  -4.655   4.192  0.00  0.00     0.046 A 
ATOM     27 BR   UNL d   1      -0.308  -4.221   4.624  0.00  0.00    -0.048 Br
ATOM     28  C   UNL d   1       2.255  -5.353   5.121  0.00  0.00     0.041 A 
ATOM     29  C   UNL d   1       3.570  -5.690   4.804  0.00  0.00     0.013 A 
ATOM     30  C   UNL d   1       4.119  -5.359   3.562  0.00  0.00     0.034 A 
ATOM     31 BR   UNL d   1       4.609  -6.649   6.061  0.00  0.00    -0.051 Br
BRANCH  25  32
ATOM     32  O   UNL d   1       1.279  -3.612   2.033  0.00  0.00    -0.358 OA
ATOM     33  H   UNL d   1       0.410  -3.417   2.429  0.00  0.00     0.217 HD
ENDBRANCH  25  32
ENDBRANCH  22  24
ENDBRANCH   4  21
TORSDOF 6
