REMARK  8 active torsions:
REMARK  status: ('A' for Active; 'I' for Inactive)
REMARK    1  A    between atoms: C_3  and  C_1 
REMARK    2  A    between atoms: C_2  and  C_11 
REMARK       I    between atoms: N_18  and  C_3 
REMARK    3  A    between atoms: N_6  and  C_20 
REMARK    4  A    between atoms: C_11  and  N_13 
REMARK    5  A    between atoms: N_13  and  C_14 
REMARK    6  A    between atoms: C_22  and  N_18 
REMARK    7  A    between atoms: C_20  and  C_21 
REMARK    8  A    between atoms: C_21  and  C_22 
ROOT
ATOM      1  C   UNL d   1       1.470   4.591  -0.780  0.00  0.00     0.139 C 
ATOM      2  C   UNL d   1       2.382   4.705  -1.863  0.00  0.00     0.112 C 
ATOM      3  C   UNL d   1       0.957   5.779  -0.185  0.00  0.00     0.112 C 
ATOM      4  N   UNL d   1       3.101   4.803  -2.770  0.00  0.00    -0.191 NA
ATOM      5  N   UNL d   1       0.532   6.734   0.316  0.00  0.00    -0.191 NA
ENDROOT
BRANCH   1   6
ATOM      6  C   UNL d   1       1.039   3.392  -0.345  0.00  0.00     0.122 C 
BRANCH   6   7
ATOM      7  N   UNL d   1       1.437   2.124  -0.722  0.00  0.00    -0.363 N 
ATOM      8  H   UNL d   1       2.429   2.021  -0.971  0.00  0.00     0.165 HD
BRANCH   7   9
ATOM      9  C   UNL d   1       0.810   0.902  -0.374  0.00  0.00     0.047 A 
ATOM     10  C   UNL d   1       1.541  -0.300  -0.203  0.00  0.00     0.058 A 
ATOM     11  C   UNL d   1       0.860  -1.488   0.133  0.00  0.00     0.019 A 
ATOM     12  C   UNL d   1      -0.527  -1.506   0.269  0.00  0.00     0.001 A 
ATOM     13  C   UNL d   1      -1.250  -0.334   0.104  0.00  0.00     0.002 A 
ATOM     14  C   UNL d   1      -0.589   0.856  -0.204  0.00  0.00     0.030 A 
BRANCH  10  15
ATOM     15  C   UNL d   1       3.041  -0.319  -0.301  0.00  0.00     0.253 C 
ATOM     16  O   UNL d   1       3.687   0.718  -0.197  0.00  0.00    -0.268 OA
ATOM     17  N   UNL d   1       3.632  -1.552  -0.520  0.00  0.00    -0.357 N 
ATOM     18  H   UNL d   1       3.059  -2.283  -0.919  0.00  0.00     0.162 HD
BRANCH  17  19
ATOM     19  C   UNL d   1       5.070  -1.727  -0.622  0.00  0.00     0.124 C 
BRANCH  19  20
ATOM     20  C   UNL d   1       5.810  -1.566   0.707  0.00  0.00     0.040 C 
BRANCH  20  21
ATOM     21  C   UNL d   1       5.311  -2.537   1.776  0.00  0.00     0.130 C 
BRANCH  21  22
ATOM     22  N   UNL d   1       6.024  -2.401   3.031  0.00  0.00    -0.352 N 
ATOM     23  C   UNL d   1       5.667  -1.585   4.067  0.00  0.00     0.182 A 
ATOM     24  N   UNL d   1       6.472  -1.737   5.095  0.00  0.00    -0.361 N 
ATOM     25  C   UNL d   1       7.385  -2.681   4.703  0.00  0.00     0.106 A 
ATOM     26  HN  UNL d   1       6.427  -1.254   5.992  1.00  0.00     0.166 HD
ATOM     27  C   UNL d   1       7.126  -3.109   3.421  0.00  0.00     0.108 A 
ENDBRANCH  21  22
ENDBRANCH  20  21
ENDBRANCH  19  20
ENDBRANCH  17  19
ENDBRANCH  10  15
ENDBRANCH   7   9
ENDBRANCH   6   7
ENDBRANCH   1   6
TORSDOF 8
