REMARK  3 active torsions:
REMARK  status: ('A' for Active; 'I' for Inactive)
REMARK    1  A    between atoms: N_2  and  C_1 
REMARK    2  A    between atoms: N_6  and  C_3 
REMARK    3  A    between atoms: C_4  and  C_7 
ROOT
ATOM      1  C   UNL d   1       1.393  -0.200   0.004  0.00  0.00     0.130 A 
ATOM      2  C   UNL d   1       0.576  -1.350  -0.069  0.00  0.00     0.063 A 
ATOM      3  C   UNL d   1       0.878   1.105   0.124  0.00  0.00     0.054 A 
ATOM      4  C   UNL d   1      -0.502   1.305   0.194  0.00  0.00     0.050 A 
ATOM      5  C   UNL d   1      -0.807  -1.112   0.006  0.00  0.00     0.032 A 
ATOM      6  C   UNL d   1      -1.338   0.183   0.135  0.00  0.00     0.018 A 
ENDROOT
BRANCH   2   7
ATOM      7  N   UNL d   1       1.085  -2.638  -0.175  0.00  0.00    -0.376 N 
ATOM      8  C   UNL d   1       0.332  -3.794   0.351  0.00  0.00     0.153 C 
ATOM      9  C   UNL d   1       1.314  -4.955   0.646  0.00  0.00     0.289 C 
ATOM     10  N   UNL d   1       2.152  -5.338  -0.509  0.00  0.00     0.086 N 
ATOM     11  C   UNL d   1       2.831  -4.140  -1.049  0.00  0.00     0.289 C 
ATOM     12  H   UNL d   1       2.864  -5.996  -0.190  0.00  0.00     0.316 HD
ATOM     13  C   UNL d   1       1.853  -2.993  -1.389  0.00  0.00     0.153 C 
ENDBRANCH   2   7
BRANCH   1  14
ATOM     14  N   UNL d   1       2.841  -0.316   0.028  0.00  0.00    -0.113 N 
ATOM     15  O   UNL d   1       3.362  -0.912   0.981  0.00  0.00    -0.532 OA
ATOM     16  O   UNL d   1       3.457   0.240  -0.894  0.00  0.00    -0.532 OA
ENDBRANCH   1  14
BRANCH   4  17
ATOM     17  C   UNL d   1      -1.089   2.689   0.337  0.00  0.00     0.417 C 
ATOM     18  F   UNL d   1      -0.147   3.668   0.431  0.00  0.00    -0.166 F 
ATOM     19  F   UNL d   1      -1.878   3.028  -0.718  0.00  0.00    -0.166 F 
ATOM     20  F   UNL d   1      -1.867   2.811   1.446  0.00  0.00    -0.166 F 
ENDBRANCH   4  17
TORSDOF 3
