REMARK  5 active torsions:
REMARK  status: ('A' for Active; 'I' for Inactive)
REMARK    1  A    between atoms: C_8  and  C_3 
REMARK    2  A    between atoms: O_10  and  C_4 
REMARK    3  A    between atoms: C_16  and  C_9 
REMARK    4  A    between atoms: C_17  and  O_10 
REMARK    5  A    between atoms: O_14  and  C_16 
ROOT
ATOM      1  N   UNL d   1       1.245   0.575  -0.024  0.00  0.00    -0.322 N 
ATOM      2  HN  UNL d   1       2.155   1.034  -0.067  1.00  0.00     0.169 HD
ATOM      3  C   UNL d   1       0.100   1.275  -0.011  0.00  0.00     0.117 A 
ATOM      4  C   UNL d   1       1.128  -0.757   0.021  0.00  0.00     0.145 A 
ATOM      5  N   UNL d   1      -1.130   0.727  -0.009  0.00  0.00    -0.343 N 
ATOM      6  HN  UNL d   1      -1.969   1.304  -0.065  1.00  0.00     0.167 HD
ATOM      7  C   UNL d   1      -0.075  -1.416   0.126  0.00  0.00     0.083 A 
ATOM      8  C   UNL d   1      -1.203  -0.622   0.069  0.00  0.00     0.038 A 
ENDROOT
BRANCH   3   9
ATOM      9  C   UNL d   1       0.212   2.737  -0.006  0.00  0.00     0.009 A 
ATOM     10  C   UNL d   1      -0.802   3.550  -0.549  0.00  0.00     0.022 A 
ATOM     11  C   UNL d   1      -0.703   4.950  -0.553  0.00  0.00    -0.061 A 
ATOM     12  C   UNL d   1      -1.790   5.790  -1.153  0.00  0.00     0.048 C 
ATOM     13  C   UNL d   1       0.427   5.554   0.007  0.00  0.00     0.007 A 
ATOM     14  C   UNL d   1       1.443   4.775   0.556  0.00  0.00     0.002 A 
ATOM     15  C   UNL d   1       1.335   3.382   0.547  0.00  0.00     0.015 A 
ENDBRANCH   3   9
BRANCH   4  16
ATOM     16  O   UNL d   1       2.280  -1.521  -0.014  0.00  0.00    -0.331 OA
BRANCH  16  17
ATOM     17  C   UNL d   1       3.310  -0.951  -0.845  0.00  0.00     0.122 C 
ATOM     18  C   UNL d   1       4.248  -0.050  -0.042  0.00  0.00     0.040 C 
ATOM     19  C   UNL d   1       4.117  -2.112  -1.427  0.00  0.00     0.040 C 
ENDBRANCH  16  17
ENDBRANCH   4  16
BRANCH   8  20
ATOM     20  C   UNL d   1      -2.583  -1.238   0.010  0.00  0.00     0.224 C 
BRANCH  20  21
ATOM     21  O   UNL d   1      -2.833  -2.049   1.158  0.00  0.00    -0.390 OA
ATOM     22  C   UNL d   1      -4.129  -2.634   1.099  0.00  0.00     0.201 C 
ENDBRANCH  20  21
ENDBRANCH   8  20
TORSDOF 5
