REMARK  3 active torsions:
REMARK  status: ('A' for Active; 'I' for Inactive)
REMARK    1  A    between atoms: C_2  and  C_3 
REMARK       I    between atoms: N_5  and  C_2 
REMARK    2  A    between atoms: C_3  and  C_6 
REMARK    3  A    between atoms: C_4  and  N_5 
ROOT
ATOM      1  C   UNL d   1       2.370  -2.158   0.611  0.00  0.00     0.224 C 
ATOM      2  N   UNL d   1       2.905  -2.547  -0.601  0.00  0.00    -0.326 N 
ATOM      3  O   UNL d   1       3.007  -1.653   1.533  0.00  0.00    -0.273 OA
ATOM      4  H   UNL d   1       2.259  -2.661  -1.387  0.00  0.00     0.169 HD
ENDROOT
BRANCH   1   5
ATOM      5  C   UNL d   1       0.885  -2.413   0.755  0.00  0.00     0.148 C 
BRANCH   5   6
ATOM      6  C   UNL d   1      -0.021  -1.285   0.263  0.00  0.00     0.320 C 
ATOM      7  C   UNL d   1      -0.010  -1.175  -1.271  0.00  0.00     0.251 C 
ATOM      8  N   UNL d   1      -0.670  -0.094  -1.804  0.00  0.00    -0.358 N 
ATOM      9  O   UNL d   1       0.478  -2.034  -2.005  0.00  0.00    -0.271 OA
ATOM     10  C   UNL d   1      -0.790   1.156  -1.074  0.00  0.00     0.152 C 
ATOM     11  H   UNL d   1      -0.644  -0.055  -2.815  0.00  0.00     0.162 HD
ATOM     12  C   UNL d   1      -0.762   0.997   0.454  0.00  0.00     0.290 C 
ATOM     13  N   UNL d   1       0.238   0.022   0.908  0.00  0.00     0.099 N 
ATOM     14  H   UNL d   1       1.178   0.341   0.663  0.00  0.00     0.317 HD
ENDBRANCH   5   6
ENDBRANCH   1   5
BRANCH   2  15
ATOM     15  C   UNL d   1       4.283  -2.736  -0.892  0.00  0.00     0.058 A 
ATOM     16  C   UNL d   1       5.260  -2.788   0.112  0.00  0.00     0.055 A 
ATOM     17  C   UNL d   1       6.595  -3.048  -0.207  0.00  0.00     0.036 A 
ATOM     18 CL   UNL d   1       7.776  -3.119   1.045  0.00  0.00    -0.084 Cl
ATOM     19  C   UNL d   1       6.982  -3.265  -1.526  0.00  0.00     0.026 A 
ATOM     20  C   UNL d   1       6.025  -3.211  -2.539  0.00  0.00     0.028 A 
ATOM     21  C   UNL d   1       4.686  -2.948  -2.225  0.00  0.00     0.060 A 
ATOM     22 CL   UNL d   1       3.552  -2.881  -3.528  0.00  0.00    -0.082 Cl
ENDBRANCH   2  15
TORSDOF 3
