REMARK  3 active torsions:
REMARK  status: ('A' for Active; 'I' for Inactive)
REMARK    1  A    between atoms: N_2  and  C_5 
REMARK    2  A    between atoms: N_6  and  N_2 
REMARK    3  A    between atoms: C_4  and  N_6 
ROOT
ATOM      1  C   UNL d   1      -0.035   0.774   0.072  0.00  0.00     0.024 A 
ATOM      2  C   UNL d   1      -1.321   1.514   0.080  0.00  0.00     0.041 C 
ATOM      3  C   UNL d   1      -0.059  -0.622  -0.025  0.00  0.00     0.081 A 
ATOM      4  C   UNL d   1       1.185   1.455   0.130  0.00  0.00     0.058 A 
ATOM      5  O   UNL d   1      -1.208  -1.364  -0.100  0.00  0.00    -0.350 OA
ATOM      6  C   UNL d   1       1.138  -1.338  -0.081  0.00  0.00     0.040 A 
ATOM      7  C   UNL d   1       2.368   0.727   0.080  0.00  0.00     0.117 A 
ATOM      8  C   UNL d   1      -2.521   0.684  -0.305  0.00  0.00     0.086 C 
ATOM      9  C   UNL d   1      -2.367  -0.669   0.367  0.00  0.00     0.181 C 
ATOM     10  C   UNL d   1       2.356  -0.660  -0.024  0.00  0.00     0.045 A 
ATOM     11  F   UNL d   1       3.540   1.373   0.124  0.00  0.00    -0.206 F 
ENDROOT
BRANCH   2  12
ATOM     12  N   UNL d   1      -1.316   2.779   0.388  0.00  0.00    -0.302 N 
ATOM     13  HN  UNL d   1      -0.440   3.244   0.625  1.00  0.00     0.186 HD
BRANCH  12  14
ATOM     14  N   UNL d   1      -2.484   3.478   0.393  0.00  0.00    -0.276 N 
ATOM     15  H   UNL d   1      -3.363   3.058   0.118  0.00  0.00     0.189 HD
BRANCH  14  16
ATOM     16  C   UNL d   1      -2.515   4.790   0.779  0.00  0.00     0.184 C 
ATOM     17  S   UNL d   1      -3.922   5.665   0.824  0.00  0.00    -0.040 SA
ATOM     18  N   UNL d   1      -1.323   5.326   1.125  0.00  0.00    -0.375 N 
ATOM     19  H   UNL d   1      -0.512   4.723   1.069  0.00  0.00     0.158 HD
ATOM     20  H   UNL d   1      -1.236   6.288   1.420  0.00  0.00     0.158 HD
ENDBRANCH  14  16
ENDBRANCH  12  14
ENDBRANCH   2  12
TORSDOF 3
