REMARK  5 active torsions:
REMARK  status: ('A' for Active; 'I' for Inactive)
REMARK    1  A    between atoms: C_4  and  C_1 
REMARK    2  A    between atoms: N_5  and  C_2 
REMARK       I    between atoms: C_3  and  N_6 
REMARK    3  A    between atoms: C_9  and  C_3 
REMARK    4  A    between atoms: O_17  and  C_4 
REMARK    5  A    between atoms: N_6  and  C_10 
ROOT
ATOM      1  C   UNL d   1       1.463  -0.253   0.136  0.00  0.00     0.068 A 
ATOM      2  C   UNL d   1       0.675  -1.394  -0.152  0.00  0.00     0.046 A 
ATOM      3  C   UNL d   1       0.871   1.026   0.219  0.00  0.00     0.049 A 
ATOM      4  C   UNL d   1      -0.684  -1.161  -0.436  0.00  0.00     0.032 A 
ATOM      5  C   UNL d   1      -0.491   1.216   0.013  0.00  0.00     0.036 A 
ATOM      6  C   UNL d   1      -1.258   0.118  -0.363  0.00  0.00     0.032 A 
ENDROOT
BRANCH   5   7
ATOM      7  N   UNL d   1      -1.137   2.461   0.178  0.00  0.00    -0.323 N 
ATOM      8  C   UNL d   1      -0.572   3.616   0.695  0.00  0.00     0.256 C 
ATOM      9  O   UNL d   1       0.596   3.776   1.036  0.00  0.00    -0.267 OA
ATOM     10  H   UNL d   1      -2.114   2.492  -0.083  0.00  0.00     0.169 HD
BRANCH   8  11
ATOM     11  C   UNL d   1      -1.483   4.783   0.830  0.00  0.00     0.032 A 
ATOM     12  C   UNL d   1      -2.830   4.643   1.191  0.00  0.00     0.020 A 
ATOM     13  C   UNL d   1      -3.637   5.778   1.299  0.00  0.00     0.043 A 
ATOM     14  C   UNL d   1      -3.094   7.038   1.062  0.00  0.00     0.116 A 
ATOM     15  C   UNL d   1      -1.751   7.191   0.736  0.00  0.00     0.043 A 
ATOM     16  F   UNL d   1      -3.876   8.121   1.158  0.00  0.00    -0.206 F 
ATOM     17  C   UNL d   1      -0.942   6.062   0.627  0.00  0.00     0.020 A 
ENDBRANCH   8  11
ENDBRANCH   5   7
BRANCH   1  18
ATOM     18  C   UNL d   1       2.957  -0.322   0.265  0.00  0.00     0.295 C 
ATOM     19  O   UNL d   1       3.685  -1.140  -0.264  0.00  0.00    -0.259 OA
BRANCH  18  20
ATOM     20  O   UNL d   1       3.377   0.681   1.082  0.00  0.00    -0.322 OA
ATOM     21  C   UNL d   1       4.792   0.815   1.220  0.00  0.00     0.213 C 
ENDBRANCH  18  20
ENDBRANCH   1  18
BRANCH   2  22
ATOM     22  N   UNL d   1       1.195  -2.683  -0.175  0.00  0.00    -0.376 N 
ATOM     23  C   UNL d   1       0.575  -3.759  -0.966  0.00  0.00     0.149 C 
ATOM     24  C   UNL d   1       1.643  -4.825  -1.268  0.00  0.00     0.187 C 
ATOM     25  O   UNL d   1       2.220  -5.350  -0.058  0.00  0.00    -0.388 OA
ATOM     26  C   UNL d   1       2.840  -4.289   0.694  0.00  0.00     0.187 C 
ATOM     27  C   UNL d   1       1.817  -3.201   1.065  0.00  0.00     0.149 C 
ENDBRANCH   2  22
TORSDOF 5
