REMARK  6 active torsions:
REMARK  status: ('A' for Active; 'I' for Inactive)
REMARK    1  A    between atoms: C_6  and  C_1 
REMARK    2  A    between atoms: C_7  and  C_2 
REMARK    3  A    between atoms: S_12  and  C_5 
REMARK    4  A    between atoms: O_16  and  C_7 
REMARK    5  A    between atoms: C_17  and  S_12 
REMARK    6  A    between atoms: C_19  and  C_17 
ROOT
ATOM      1  C   UNL d   1      -0.098  -1.381   0.016  0.00  0.00     0.027 A 
ATOM      2  C   UNL d   1       1.289  -1.289   0.054  0.00  0.00     0.094 A 
ATOM      3  C   UNL d   1      -0.712  -0.072   0.000  0.00  0.00     0.081 A 
ATOM      4  S   UNL d   1       1.806   0.344   0.172  0.00  0.00    -0.075 SA
ATOM      5  C   UNL d   1       0.213   0.952   0.071  0.00  0.00     0.063 A 
ATOM      6  C   UNL d   1      -2.122   0.178  -0.051  0.00  0.00     0.102 C 
ATOM      7  N   UNL d   1      -3.266   0.380  -0.082  0.00  0.00    -0.191 NA
ENDROOT
BRANCH   1   8
ATOM      8  C   UNL d   1      -0.858  -2.698  -0.007  0.00  0.00     0.018 A 
ATOM      9  S   UNL d   1      -0.332  -4.132   0.777  0.00  0.00    -0.101 SA
ATOM     10  C   UNL d   1      -1.702  -5.011   0.266  0.00  0.00     0.050 A 
ATOM     11  C   UNL d   1      -2.569  -4.230  -0.461  0.00  0.00     0.008 A 
ATOM     12  C   UNL d   1      -2.084  -2.897  -0.614  0.00  0.00     0.020 A 
ENDBRANCH   1   8
BRANCH   5  13
ATOM     13  S   UNL d   1      -0.055   2.697  -0.013  0.00  0.00    -0.121 SA
BRANCH  13  14
ATOM     14  C   UNL d   1      -1.052   3.017   1.476  0.00  0.00     0.080 C 
BRANCH  14  15
ATOM     15  C   UNL d   1      -1.375   4.507   1.579  0.00  0.00     0.006 C 
ATOM     16  C   UNL d   1      -2.224   4.801   2.808  0.00  0.00     0.006 C 
ENDBRANCH  14  15
ENDBRANCH  13  14
ENDBRANCH   5  13
BRANCH   2  17
ATOM     17  C   UNL d   1       2.291  -2.328  -0.127  0.00  0.00     0.300 C 
ATOM     18  O   UNL d   1       2.191  -3.280  -0.891  0.00  0.00    -0.259 OA
BRANCH  17  19
ATOM     19  O   UNL d   1       3.375  -2.110   0.676  0.00  0.00    -0.322 OA
ATOM     20  C   UNL d   1       4.376  -3.126   0.588  0.00  0.00     0.213 C 
ENDBRANCH  17  19
ENDBRANCH   2  17
TORSDOF 6
