REMARK  1 active torsions:
REMARK  status: ('A' for Active; 'I' for Inactive)
REMARK    1  A    between atoms: N_10  and  C_4 
ROOT
ATOM      1  C   UNL d   1      -2.445   0.458  -0.271  0.00  0.00     0.018 C 
ATOM      2  C   UNL d   1      -1.243   1.334  -0.162  0.00  0.00     0.192 C 
ATOM      3  C   UNL d   1       0.073   0.652  -0.018  0.00  0.00     0.034 A 
ATOM      4  C   UNL d   1      -3.372   0.788  -1.184  0.00  0.00     0.096 C 
ATOM      5  S   UNL d   1      -1.190  -1.869   0.204  0.00  0.00    -0.124 SA
ATOM      6  C   UNL d   1       0.195  -0.750   0.064  0.00  0.00     0.015 A 
ATOM      7  C   UNL d   1      -2.459  -0.673   0.691  0.00  0.00     0.123 C 
ATOM      8  C   UNL d   1       1.228   1.448  -0.033  0.00  0.00     0.059 A 
ATOM      9  O   UNL d   1      -1.322   2.557  -0.218  0.00  0.00    -0.287 OA
ATOM     10  C   UNL d   1       1.471  -1.333   0.054  0.00  0.00     0.022 A 
ATOM     11  C   UNL d   1       2.481   0.847  -0.010  0.00  0.00     0.117 A 
ATOM     12  C   UNL d   1       2.613  -0.535   0.014  0.00  0.00     0.043 A 
ATOM     13  F   UNL d   1       3.581   1.610  -0.026  0.00  0.00    -0.206 F 
ENDROOT
BRANCH   4  14
ATOM     14  N   UNL d   1      -4.524   0.125  -1.598  0.00  0.00    -0.398 N 
ATOM     15  C   UNL d   1      -4.660  -1.333  -1.607  0.00  0.00     0.148 C 
ATOM     16  C   UNL d   1      -5.567   0.821  -2.354  0.00  0.00     0.148 C 
ENDBRANCH   4  14
TORSDOF 1
