REMARK  5 active torsions:
REMARK  status: ('A' for Active; 'I' for Inactive)
REMARK    1  A    between atoms: C_2  and  S_1 
REMARK    2  A    between atoms: C_8  and  S_1 
REMARK    3  A    between atoms: O_9  and  N_3 
REMARK    4  A    between atoms: C_6  and  O_9 
REMARK    5  A    between atoms: C_12  and  C_6 
ROOT
ATOM      1  C   UNL d   1       0.343  -1.473  -0.926  0.00  0.00     0.234 C 
ATOM      2  N   UNL d   1      -0.363  -2.404  -0.357  0.00  0.00    -0.236 N 
ATOM      3  HN  UNL d   1      -0.708  -3.222  -0.858  1.00  0.00     0.196 HD
ATOM      4  C   UNL d   1       0.799  -0.344  -0.167  0.00  0.00     0.132 C 
ATOM      5  N   UNL d   1       1.151   0.557   0.478  0.00  0.00    -0.189 NA
ENDROOT
BRANCH   1   6
ATOM      6  S   UNL d   1       0.773  -1.537  -2.616  0.00  0.00     0.234 S 
ATOM      7  O   UNL d   1       2.218  -1.667  -2.670  0.00  0.00    -0.215 OA
ATOM      8  O   UNL d   1       0.095  -0.425  -3.257  0.00  0.00    -0.215 OA
BRANCH   6   9
ATOM      9  C   UNL d   1       0.073  -3.039  -3.262  0.00  0.00     0.066 A 
ATOM     10  C   UNL d   1      -1.209  -3.021  -3.824  0.00  0.00     0.025 A 
ATOM     11  C   UNL d   1      -1.744  -4.196  -4.358  0.00  0.00     0.025 A 
ATOM     12  C   UNL d   1      -0.994  -5.373  -4.342  0.00  0.00     0.034 A 
ATOM     13  C   UNL d   1       0.294  -5.384  -3.804  0.00  0.00     0.025 A 
ATOM     14 CL   UNL d   1      -1.657  -6.817  -5.000  0.00  0.00    -0.084 Cl
ATOM     15  C   UNL d   1       0.836  -4.213  -3.267  0.00  0.00     0.025 A 
ENDBRANCH   6   9
ENDBRANCH   1   6
BRANCH   2  16
ATOM     16  O   UNL d   1      -0.612  -2.182   1.021  0.00  0.00    -0.193 OA
BRANCH  16  17
ATOM     17  C   UNL d   1      -1.345  -3.233   1.507  0.00  0.00     0.315 C 
ATOM     18  O   UNL d   1      -1.724  -4.204   0.867  0.00  0.00    -0.257 OA
BRANCH  17  19
ATOM     19  C   UNL d   1      -1.650  -3.077   2.957  0.00  0.00     0.041 A 
ATOM     20  C   UNL d   1      -2.375  -4.111   3.574  0.00  0.00     0.019 A 
ATOM     21  C   UNL d   1      -2.705  -4.043   4.930  0.00  0.00     0.025 A 
ATOM     22  C   UNL d   1      -2.311  -2.938   5.678  0.00  0.00     0.034 A 
ATOM     23  C   UNL d   1      -1.591  -1.903   5.081  0.00  0.00     0.025 A 
ATOM     24 CL   UNL d   1      -2.717  -2.853   7.348  0.00  0.00    -0.084 Cl
ATOM     25  C   UNL d   1      -1.258  -1.968   3.720  0.00  0.00     0.019 A 
ENDBRANCH  17  19
ENDBRANCH  16  17
ENDBRANCH   2  16
TORSDOF 5
