REMARK  1 active torsions:
REMARK  status: ('A' for Active; 'I' for Inactive)
REMARK    1  A    between atoms: C_8  and  C_6 
ROOT
ATOM      1  N   UNL d   1      -1.720   1.514  -0.288  0.00  0.00    -0.305 N 
ATOM      2  HN  UNL d   1      -1.419   2.405  -0.684  1.00  0.00     0.186 HD
ATOM      3  C   UNL d   1      -0.984   0.498   0.032  0.00  0.00     0.043 C 
ATOM      4  N   UNL d   1      -2.978   1.127   0.021  0.00  0.00    -0.322 N 
ATOM      5  C   UNL d   1      -1.726  -0.671   0.626  0.00  0.00     0.068 C 
ATOM      6  C   UNL d   1      -3.152  -0.329   0.182  0.00  0.00     0.151 C 
ATOM      7  C   UNL d   1       0.474   0.428  -0.051  0.00  0.00    -0.005 A 
ATOM      8  C   UNL d   1      -1.109  -2.043   0.358  0.00  0.00     0.018 C 
ATOM      9  C   UNL d   1       1.045  -0.838  -0.232  0.00  0.00    -0.046 A 
ATOM     10  C   UNL d   1       0.151  -2.016  -0.519  0.00  0.00     0.040 C 
ATOM     11  C   UNL d   1      -4.136   1.916  -0.335  0.00  0.00     0.171 C 
ATOM     12  C   UNL d   1       1.258   1.570   0.111  0.00  0.00     0.014 A 
ATOM     13  C   UNL d   1       2.439  -0.948  -0.237  0.00  0.00     0.008 A 
ATOM     14  C   UNL d   1       2.646   1.445   0.121  0.00  0.00     0.001 A 
ATOM     15  C   UNL d   1       3.235   0.189  -0.047  0.00  0.00     0.001 A 
ENDROOT
BRANCH   6  16
ATOM     16  C   UNL d   1      -3.649  -1.017  -1.069  0.00  0.00     0.007 A 
ATOM     17  S   UNL d   1      -5.118  -1.914  -0.993  0.00  0.00    -0.104 SA
ATOM     18  C   UNL d   1      -5.072  -2.276  -2.661  0.00  0.00     0.050 A 
ATOM     19  C   UNL d   1      -3.951  -1.760  -3.269  0.00  0.00     0.008 A 
ATOM     20  C   UNL d   1      -3.131  -1.035  -2.355  0.00  0.00     0.017 A 
ENDBRANCH   6  16
TORSDOF 1
