REMARK  3 active torsions:
REMARK  status: ('A' for Active; 'I' for Inactive)
REMARK    1  A    between atoms: C_12  and  N_1 
REMARK    2  A    between atoms: N_6  and  C_8 
REMARK    3  A    between atoms: C_20  and  C_12 
ROOT
ATOM      1  N   UNL d   1       2.264  -0.127   0.136  0.00  0.00    -0.276 N 
ATOM      2  C   UNL d   1       1.687   1.140   0.075  0.00  0.00     0.262 A 
ATOM      3  C   UNL d   1       1.551  -1.326   0.123  0.00  0.00     0.261 A 
ATOM      4  C   UNL d   1       0.209   1.209   0.003  0.00  0.00     0.047 A 
ATOM      5  C   UNL d   1       0.074  -1.229   0.071  0.00  0.00     0.044 A 
ATOM      6  C   UNL d   1      -0.542   0.028   0.021  0.00  0.00     0.006 A 
ATOM      7  C   UNL d   1      -1.814   2.529  -0.085  0.00  0.00     0.104 A 
ATOM      8  C   UNL d   1      -0.419   2.462  -0.057  0.00  0.00     0.054 A 
ATOM      9  C   UNL d   1      -1.958   0.105  -0.004  0.00  0.00    -0.021 A 
ATOM     10  C   UNL d   1      -2.584   1.360  -0.054  0.00  0.00     0.048 A 
ATOM     11  O   UNL d   1       2.075  -2.436   0.170  0.00  0.00    -0.267 OA
ATOM     12  O   UNL d   1       2.324   2.189   0.100  0.00  0.00    -0.267 OA
ATOM     13  C   UNL d   1      -0.698  -2.399   0.089  0.00  0.00     0.018 A 
ATOM     14  C   UNL d   1      -2.714  -1.076   0.026  0.00  0.00     0.012 A 
ATOM     15  C   UNL d   1      -2.088  -2.321   0.070  0.00  0.00     0.002 A 
ENDROOT
BRANCH   1  16
ATOM     16  C   UNL d   1       3.717  -0.202   0.249  0.00  0.00     0.174 C 
BRANCH  16  17
ATOM     17  C   UNL d   1       4.404  -0.204  -1.097  0.00  0.00    -0.037 A 
ATOM     18  C   UNL d   1       4.786   0.994  -1.708  0.00  0.00     0.026 A 
ATOM     19  C   UNL d   1       5.382   0.946  -2.958  0.00  0.00     0.088 A 
ATOM     20  N   UNL d   1       5.624  -0.200  -3.630  0.00  0.00    -0.375 N 
ATOM     21  C   UNL d   1       5.254  -1.347  -3.023  0.00  0.00     0.088 A 
ATOM     22  HN  UNL d   1       6.064  -0.198  -4.550  1.00  0.00     0.164 HD
ATOM     23  C   UNL d   1       4.649  -1.401  -1.777  0.00  0.00     0.026 A 
ENDBRANCH  16  17
ENDBRANCH   1  16
BRANCH   7  24
ATOM     24  N   UNL d   1      -2.482   3.837  -0.140  0.00  0.00    -0.116 N 
ATOM     25  O   UNL d   1      -1.767   4.847  -0.167  0.00  0.00    -0.532 OA
ATOM     26  O   UNL d   1      -3.720   3.849  -0.153  0.00  0.00    -0.532 OA
ENDBRANCH   7  24
TORSDOF 3
