REMARK  13 active torsions:
REMARK  status: ('A' for Active; 'I' for Inactive)
REMARK    1  A    between atoms: C_3  and  C_1 
REMARK    2  A    between atoms: O_9  and  C_1 
REMARK    3  A    between atoms: C_2  and  O_10 
REMARK    4  A    between atoms: C_4  and  C_2 
REMARK    5  A    between atoms: C_7  and  C_5 
REMARK    6  A    between atoms: C_8  and  C_6 
REMARK    7  A    between atoms: O_16  and  C_7 
REMARK    8  A    between atoms: O_15  and  C_8 
REMARK    9  A    between atoms: C_17  and  O_9 
REMARK   10  A    between atoms: O_10  and  C_18 
REMARK   11  A    between atoms: C_20  and  C_17 
REMARK   12  A    between atoms: C_18  and  C_19 
REMARK   13  A    between atoms: C_19  and  C_20 
ROOT
ATOM      1  C   UNL d   1      -0.759   1.799   0.463  0.00  0.00     0.035 C 
ENDROOT
BRANCH   1   2
ATOM      2  C   UNL d   1      -1.713   3.007   0.479  0.00  0.00     0.128 C 
ATOM      3  C   UNL d   1      -1.714   3.711   1.837  0.00  0.00     0.040 C 
BRANCH   2   4
ATOM      4  O   UNL d   1      -3.057   2.707   0.038  0.00  0.00    -0.312 OA
BRANCH   4   5
ATOM      5  C   UNL d   1      -3.775   1.786   0.724  0.00  0.00     0.294 C 
ATOM      6  O   UNL d   1      -3.393   1.159   1.699  0.00  0.00    -0.259 OA
BRANCH   5   7
ATOM      7  C   UNL d   1      -5.080   1.530   0.064  0.00  0.00     0.056 A 
ATOM      8  C   UNL d   1      -6.138   0.969   0.796  0.00  0.00     0.053 A 
ATOM      9  C   UNL d   1      -7.236   0.410   0.126  0.00  0.00     0.019 A 
ATOM     10  C   UNL d   1      -7.313   0.476  -1.266  0.00  0.00     0.001 A 
ATOM     11  C   UNL d   1      -6.316   1.130  -1.989  0.00  0.00     0.001 A 
ATOM     12  C   UNL d   1      -5.200   1.653  -1.330  0.00  0.00     0.018 A 
BRANCH   8  13
ATOM     13  C   UNL d   1      -6.155   0.941   2.271  0.00  0.00     0.177 C 
ATOM     14  O   UNL d   1      -6.612   0.053   2.965  0.00  0.00    -0.646 OA
BRANCH  13  15
ATOM     15  O   UNL d   1      -5.697   2.096   2.787  0.00  0.00    -0.773 OA
ATOM     16  H   UNL d   1      -5.606   1.915   3.745  0.00  0.00     0.167 HD
ENDBRANCH  13  15
ENDBRANCH   8  13
ENDBRANCH   5   7
ENDBRANCH   4   5
ENDBRANCH   2   4
ENDBRANCH   1   2
BRANCH   1  17
ATOM     17  C   UNL d   1      -0.737   1.047  -0.874  0.00  0.00     0.035 C 
BRANCH  17  18
ATOM     18  C   UNL d   1       0.297  -0.094  -0.855  0.00  0.00     0.128 C 
ATOM     19  C   UNL d   1       0.247  -0.965  -2.110  0.00  0.00     0.040 C 
BRANCH  18  20
ATOM     20  O   UNL d   1       1.639   0.382  -0.580  0.00  0.00    -0.312 OA
BRANCH  20  21
ATOM     21  C   UNL d   1       2.266   1.155  -1.491  0.00  0.00     0.294 C 
ATOM     22  O   UNL d   1       1.823   1.534  -2.566  0.00  0.00    -0.259 OA
BRANCH  21  23
ATOM     23  C   UNL d   1       3.606   1.554  -1.020  0.00  0.00     0.056 A 
ATOM     24  C   UNL d   1       4.517   0.693  -0.400  0.00  0.00     0.053 A 
ATOM     25  C   UNL d   1       5.776   1.187  -0.010  0.00  0.00     0.019 A 
ATOM     26  C   UNL d   1       6.128   2.517  -0.262  0.00  0.00     0.001 A 
ATOM     27  C   UNL d   1       5.228   3.363  -0.899  0.00  0.00     0.001 A 
ATOM     28  C   UNL d   1       3.974   2.886  -1.279  0.00  0.00     0.018 A 
BRANCH  24  29
ATOM     29  C   UNL d   1       4.267  -0.738  -0.119  0.00  0.00     0.177 C 
ATOM     30  O   UNL d   1       4.559  -1.250   0.948  0.00  0.00    -0.646 OA
BRANCH  29  31
ATOM     31  O   UNL d   1       3.822  -1.441  -1.179  0.00  0.00    -0.773 OA
ATOM     32  H   UNL d   1       3.706  -0.954  -2.014  0.00  0.00     0.167 HD
ENDBRANCH  29  31
ENDBRANCH  24  29
ENDBRANCH  21  23
ENDBRANCH  20  21
ENDBRANCH  18  20
ENDBRANCH  17  18
ENDBRANCH   1  17
TORSDOF 13
