REMARK  6 active torsions:
REMARK  status: ('A' for Active; 'I' for Inactive)
REMARK    1  A    between atoms: C_4  and  C_1 
REMARK    2  A    between atoms: C_5  and  C_1 
REMARK    3  A    between atoms: O_10  and  N_2 
REMARK    4  A    between atoms: O_8  and  C_9 
REMARK    5  A    between atoms: C_13  and  O_8 
REMARK    6  A    between atoms: C_16  and  C_13 
ROOT
ATOM      1  C   UNL d   1       2.532  -0.147   0.038  0.00  0.00    -0.007 A 
ATOM      2  C   UNL d   1       3.261   0.477   1.058  0.00  0.00     0.016 A 
ATOM      3  C   UNL d   1       3.225  -0.870  -0.937  0.00  0.00     0.016 A 
ATOM      4  C   UNL d   1       5.350  -0.292   0.077  0.00  0.00     0.068 A 
ATOM      5  C   UNL d   1       4.618  -0.914  -0.935  0.00  0.00     0.037 A 
ATOM      6  C   UNL d   1       4.662   0.387   1.087  0.00  0.00     0.037 A 
ENDROOT
BRANCH   1   7
ATOM      7  C   UNL d   1       1.033  -0.068  -0.036  0.00  0.00     0.074 C 
ATOM      8  N   UNL d   1       0.340   0.066  -1.137  0.00  0.00    -0.268 N 
ATOM      9  HN  UNL d   1      -0.679   0.041  -1.154  1.00  0.00     0.194 HD
BRANCH   8  10
ATOM     10  O   UNL d   1       1.109   0.247  -2.287  0.00  0.00    -0.289 OA
ATOM     11  H   UNL d   1       0.440   0.197  -2.994  0.00  0.00     0.244 HD
ENDBRANCH   8  10
BRANCH   7  12
ATOM     12  C   UNL d   1       0.232  -0.140   1.233  0.00  0.00    -0.007 A 
ATOM     13  C   UNL d   1       0.656  -0.860   2.356  0.00  0.00     0.014 A 
ATOM     14  C   UNL d   1      -0.121  -0.867   3.518  0.00  0.00     0.001 A 
ATOM     15  C   UNL d   1      -1.335  -0.178   3.555  0.00  0.00     0.000 A 
ATOM     16  C   UNL d   1      -1.779   0.512   2.429  0.00  0.00     0.001 A 
ATOM     17  C   UNL d   1      -1.000   0.531   1.274  0.00  0.00     0.014 A 
ENDBRANCH   7  12
ENDBRANCH   1   7
BRANCH   4  18
ATOM     18  O   UNL d   1       6.722  -0.294   0.165  0.00  0.00    -0.351 OA
BRANCH  18  19
ATOM     19  C   UNL d   1       7.381  -0.915  -0.946  0.00  0.00     0.179 C 
BRANCH  19  20
ATOM     20  C   UNL d   1       8.905  -0.905  -0.796  0.00  0.00     0.002 C 
ATOM     21  C   UNL d   1       9.348  -1.674   0.448  0.00  0.00     0.011 C 
ATOM     22  C   UNL d   1       9.524  -1.525  -2.052  0.00  0.00     0.011 C 
ENDBRANCH  19  20
ENDBRANCH  18  19
ENDBRANCH   4  18
TORSDOF 6
