REMARK  12 active torsions:
REMARK  status: ('A' for Active; 'I' for Inactive)
REMARK    1  A    between atoms: O_4  and  C_1 
REMARK    2  A    between atoms: C_8  and  C_1 
REMARK    3  A    between atoms: C_2  and  O_3 
REMARK    4  A    between atoms: C_7  and  C_2 
REMARK    5  A    between atoms: O_3  and  C_12 
REMARK    6  A    between atoms: C_11  and  O_4 
REMARK    7  A    between atoms: C_9  and  C_23 
REMARK    8  A    between atoms: C_24  and  C_10 
REMARK    9  A    between atoms: C_13  and  C_30 
REMARK   10  A    between atoms: C_29  and  C_14 
REMARK   11  A    between atoms: C_23  and  C_29 
REMARK   12  A    between atoms: C_30  and  C_24 
ROOT
ATOM      1  C   UNL d   1       5.072  -7.280   0.973  0.00  0.00    -0.030 C 
ATOM      2  C   UNL d   1       6.157  -7.468   1.745  0.00  0.00    -0.030 C 
ENDROOT
BRANCH   1   3
ATOM      3  C   UNL d   1       4.241  -6.023   1.004  0.00  0.00     0.031 C 
BRANCH   3   4
ATOM      4  C   UNL d   1       2.750  -6.271   0.712  0.00  0.00     0.042 C 
BRANCH   4   5
ATOM      5  C   UNL d   1       1.964  -4.976   0.764  0.00  0.00    -0.058 A 
ATOM      6  C   UNL d   1       1.853  -4.154  -0.367  0.00  0.00     0.010 A 
ATOM      7  C   UNL d   1       1.264  -2.885  -0.272  0.00  0.00     0.038 A 
ATOM      8  C   UNL d   1       0.788  -2.429   0.958  0.00  0.00     0.079 A 
ATOM      9  C   UNL d   1       0.797  -3.283   2.062  0.00  0.00     0.038 A 
ATOM     10  C   UNL d   1       1.402  -4.540   1.971  0.00  0.00     0.010 A 
BRANCH   8  11
ATOM     11  O   UNL d   1       0.330  -1.088   1.008  0.00  0.00    -0.275 OA
BRANCH  11  12
ATOM     12  C   UNL d   1       0.625  -0.334   2.136  0.00  0.00     0.298 C 
ATOM     13  O   UNL d   1       1.136  -0.746   3.174  0.00  0.00    -0.259 OA
BRANCH  12  14
ATOM     14  C   UNL d   1       0.320   1.115   1.980  0.00  0.00     0.039 A 
ATOM     15  C   UNL d   1       0.598   1.946   3.081  0.00  0.00     0.017 A 
ATOM     16  C   UNL d   1       0.435   3.330   2.997  0.00  0.00     0.001 A 
ATOM     17  C   UNL d   1      -0.012   3.900   1.811  0.00  0.00     0.000 A 
ATOM     18  C   UNL d   1      -0.318   3.082   0.719  0.00  0.00     0.001 A 
ATOM     19  C   UNL d   1      -0.158   1.692   0.800  0.00  0.00     0.017 A 
ENDBRANCH  12  14
ENDBRANCH  11  12
ENDBRANCH   8  11
ENDBRANCH   4   5
ENDBRANCH   3   4
ENDBRANCH   1   3
BRANCH   2  20
ATOM     20  C   UNL d   1       6.987  -8.724   1.703  0.00  0.00     0.031 C 
BRANCH  20  21
ATOM     21  C   UNL d   1       8.210  -8.662   2.631  0.00  0.00     0.042 C 
BRANCH  21  22
ATOM     22  C   UNL d   1       8.969  -9.967   2.623  0.00  0.00    -0.058 A 
ATOM     23  C   UNL d   1      10.009 -10.193   1.710  0.00  0.00     0.010 A 
ATOM     24  C   UNL d   1      10.654 -11.432   1.663  0.00  0.00     0.038 A 
ATOM     25  C   UNL d   1      10.253 -12.453   2.525  0.00  0.00     0.079 A 
ATOM     26  C   UNL d   1       9.253 -12.225   3.469  0.00  0.00     0.038 A 
ATOM     27  C   UNL d   1       8.603 -10.992   3.505  0.00  0.00     0.010 A 
BRANCH  25  28
ATOM     28  O   UNL d   1      10.949 -13.674   2.420  0.00  0.00    -0.275 OA
BRANCH  28  29
ATOM     29  C   UNL d   1      10.302 -14.867   2.707  0.00  0.00     0.298 C 
ATOM     30  O   UNL d   1       9.131 -15.039   3.008  0.00  0.00    -0.259 OA
BRANCH  29  31
ATOM     31  C   UNL d   1      11.282 -15.973   2.681  0.00  0.00     0.039 A 
ATOM     32  C   UNL d   1      12.321 -16.019   1.745  0.00  0.00     0.017 A 
ATOM     33  C   UNL d   1      13.212 -17.094   1.757  0.00  0.00     0.001 A 
ATOM     34  C   UNL d   1      13.069 -18.113   2.700  0.00  0.00     0.000 A 
ATOM     35  C   UNL d   1      12.025 -18.073   3.625  0.00  0.00     0.001 A 
ATOM     36  C   UNL d   1      11.126 -17.008   3.611  0.00  0.00     0.017 A 
ENDBRANCH  29  31
ENDBRANCH  28  29
ENDBRANCH  25  28
ENDBRANCH  21  22
ENDBRANCH  20  21
ENDBRANCH   2  20
TORSDOF 12
