REMARK  4 active torsions:
REMARK  status: ('A' for Active; 'I' for Inactive)
REMARK    1  A    between atoms: C_6  and  S_1 
REMARK    2  A    between atoms: C_9  and  S_1 
REMARK    3  A    between atoms: C_4  and  C_6 
REMARK    4  A    between atoms: C_14  and  C_5 
ROOT
ATOM      1  N   UNL d   1       8.536   6.844  -2.527  0.00  0.00    -0.191 NA
ATOM      2  C   UNL d   1       7.510   6.300  -2.465  0.00  0.00     0.099 C 
ATOM      3  C   UNL d   1       3.719   4.373  -2.306  0.00  0.00    -0.009 A 
ATOM      4  C   UNL d   1       4.865   3.660  -2.684  0.00  0.00     0.015 A 
ATOM      5  C   UNL d   1       3.854   5.723  -1.949  0.00  0.00     0.015 A 
ATOM      6  C   UNL d   1       6.237   5.645  -2.399  0.00  0.00     0.044 A 
ATOM      7  C   UNL d   1       5.102   6.355  -1.997  0.00  0.00     0.023 A 
ATOM      8  C   UNL d   1       6.116   4.293  -2.736  0.00  0.00     0.023 A 
ENDROOT
BRANCH   3   9
ATOM      9  C   UNL d   1       2.421   3.705  -2.265  0.00  0.00     0.049 A 
ATOM     10  N   UNL d   1       2.308   2.343  -2.030  0.00  0.00    -0.352 N 
ATOM     11  C   UNL d   1       1.042   1.996  -1.924  0.00  0.00     0.065 A 
ATOM     12  HN  UNL d   1       3.096   1.700  -1.951  1.00  0.00     0.166 HD
ATOM     13  S   UNL d   1      -0.083   3.256  -2.269  0.00  0.00    -0.085 SA
ATOM     14  C   UNL d   1       1.218   4.348  -2.480  0.00  0.00     0.081 A 
BRANCH  11  15
ATOM     15  C   UNL d   1       0.543   0.616  -1.666  0.00  0.00     0.206 C 
BRANCH  15  16
ATOM     16  S   UNL d   1       1.103   0.081  -0.051  0.00  0.00     0.157 S 
ATOM     17  O   UNL d   1       0.462   0.920   0.948  0.00  0.00    -0.227 OA
ATOM     18  O   UNL d   1       2.548  -0.060  -0.071  0.00  0.00    -0.227 OA
BRANCH  16  19
ATOM     19  C   UNL d   1       0.423  -1.611   0.151  0.00  0.00     0.053 C 
ATOM     20  C   UNL d   1       0.943  -2.529  -0.963  0.00  0.00     0.031 C 
ATOM     21  C   UNL d   1       0.894  -2.163   1.509  0.00  0.00     0.031 C 
ATOM     22  C   UNL d   1      -1.111  -1.586   0.135  0.00  0.00     0.031 C 
ENDBRANCH  16  19
ENDBRANCH  15  16
ENDBRANCH  11  15
ENDBRANCH   3   9
TORSDOF 4
