REMARK  8 active torsions:
REMARK  status: ('A' for Active; 'I' for Inactive)
REMARK    1  A    between atoms: N_13  and  C_1 
REMARK    2  A    between atoms: C_10  and  C_5 
REMARK    3  A    between atoms: N_6  and  N_13 
REMARK    4  A    between atoms: C_12  and  N_6 
REMARK    5  A    between atoms: C_14  and  C_10 
REMARK    6  A    between atoms: O_20  and  C_14 
REMARK    7  A    between atoms: O_22  and  C_18 
REMARK    8  A    between atoms: C_25  and  O_20 
ROOT
ATOM      1  N   UNL d   1       1.111  -3.367   0.031  0.00  0.00    -0.302 N 
ATOM      2  HN  UNL d   1       1.109  -4.112  -0.666  1.00  0.00     0.186 HD
ENDROOT
BRANCH   1   3
ATOM      3  N   UNL d   1       0.088  -2.467   0.097  0.00  0.00    -0.279 N 
ATOM      4  H   UNL d   1      -0.357  -2.341   1.002  0.00  0.00     0.189 HD
BRANCH   3   5
ATOM      5  C   UNL d   1      -0.797  -2.301  -0.923  0.00  0.00     0.163 A 
ATOM      6  N   UNL d   1      -2.015  -1.834  -0.734  0.00  0.00    -0.344 N 
ATOM      7  C   UNL d   1      -2.715  -1.837  -1.924  0.00  0.00     0.105 A 
ATOM      8  HN  UNL d   1      -2.387  -1.517   0.162  1.00  0.00     0.167 HD
ATOM      9  C   UNL d   1      -2.011  -2.257  -3.033  0.00  0.00     0.011 A 
ATOM     10  S   UNL d   1      -0.417  -2.667  -2.567  0.00  0.00    -0.055 SA
BRANCH   9  11
ATOM     11  C   UNL d   1      -2.463  -2.403  -4.447  0.00  0.00     0.158 C 
BRANCH  11  12
ATOM     12  C   UNL d   1      -3.356  -3.616  -4.595  0.00  0.00     0.263 C 
ATOM     13  O   UNL d   1      -3.819  -4.292  -3.687  0.00  0.00    -0.265 OA
BRANCH  12  14
ATOM     14  O   UNL d   1      -3.554  -3.862  -5.925  0.00  0.00    -0.322 OA
BRANCH  14  15
ATOM     15  C   UNL d   1      -4.129  -5.140  -6.230  0.00  0.00     0.174 C 
ATOM     16  C   UNL d   1      -2.998  -6.137  -6.410  0.00  0.00     0.034 C 
ENDBRANCH  14  15
ENDBRANCH  12  14
ENDBRANCH  11  12
ENDBRANCH   9  11
ENDBRANCH   3   5
ENDBRANCH   1   3
BRANCH   1  17
ATOM     17  C   UNL d   1       2.089  -3.250   0.880  0.00  0.00     0.036 C 
ATOM     18  C   UNL d   1       3.215  -4.232   0.807  0.00  0.00    -0.006 A 
ATOM     19  C   UNL d   1       4.362  -4.059   1.593  0.00  0.00    -0.043 A 
ATOM     20  C   UNL d   1       3.127  -5.328  -0.062  0.00  0.00     0.017 A 
ATOM     21  C   UNL d   1       5.412  -4.984   1.479  0.00  0.00     0.044 A 
ATOM     22  C   UNL d   1       4.502  -2.880   2.514  0.00  0.00     0.040 C 
ATOM     23  C   UNL d   1       5.322  -6.083   0.618  0.00  0.00     0.068 A 
ATOM     24  C   UNL d   1       4.175  -6.251  -0.154  0.00  0.00     0.037 A 
ATOM     25  C   UNL d   1       3.142  -2.450   3.041  0.00  0.00     0.011 C 
ATOM     26  C   UNL d   1       2.198  -2.119   1.897  0.00  0.00     0.060 C 
BRANCH  23  27
ATOM     27  O   UNL d   1       6.413  -6.907   0.629  0.00  0.00    -0.356 OA
ATOM     28  C   UNL d   1       6.354  -8.062  -0.198  0.00  0.00     0.210 C 
ENDBRANCH  23  27
ENDBRANCH   1  17
TORSDOF 8
