REMARK  4 active torsions:
REMARK  status: ('A' for Active; 'I' for Inactive)
REMARK    1  A    between atoms: C_2  and  C_1 
REMARK    2  A    between atoms: N_8  and  C_2 
REMARK    3  A    between atoms: C_7  and  C_3 
REMARK    4  A    between atoms: O_14  and  C_9 
ROOT
ATOM      1  C   UNL d   1       1.155  -1.962   0.839  0.00  0.00     0.082 C 
ATOM      2  C   UNL d   1       0.379  -0.861   0.783  0.00  0.00     0.037 C 
ATOM      3  C   UNL d   1       0.574  -3.268   0.913  0.00  0.00     0.102 C 
ATOM      4  N   UNL d   1       0.140  -4.342   0.969  0.00  0.00    -0.191 NA
ENDROOT
BRANCH   1   5
ATOM      5  C   UNL d   1       2.658  -1.822   0.828  0.00  0.00     0.115 C 
ATOM      6  S   UNL d   1       3.571  -0.413   0.754  0.00  0.00    -0.059 SA
BRANCH   5   7
ATOM      7  N   UNL d   1       3.376  -2.987   0.888  0.00  0.00    -0.389 N 
ATOM      8  H   UNL d   1       2.982  -3.920   0.940  0.00  0.00     0.157 HD
ATOM      9  H   UNL d   1       4.389  -2.924   0.887  0.00  0.00     0.157 HD
ENDBRANCH   5   7
ENDBRANCH   1   5
BRANCH   2  10
ATOM     10  C   UNL d   1      -1.087  -0.874   0.807  0.00  0.00    -0.035 A 
ATOM     11  C   UNL d   1      -1.766  -0.839   2.030  0.00  0.00     0.014 A 
ATOM     12  C   UNL d   1      -3.160  -0.846   2.054  0.00  0.00     0.037 A 
ATOM     13  C   UNL d   1      -3.870  -0.884   0.860  0.00  0.00     0.065 A 
ATOM     14  C   UNL d   1      -3.209  -0.928  -0.363  0.00  0.00     0.037 A 
ATOM     15  C   UNL d   1      -1.812  -0.922  -0.389  0.00  0.00     0.014 A 
BRANCH  13  16
ATOM     16  O   UNL d   1      -5.232  -0.871   0.932  0.00  0.00    -0.361 OA
ATOM     17  H   UNL d   1      -5.592  -0.857   0.031  0.00  0.00     0.217 HD
ENDBRANCH  13  16
ENDBRANCH   2  10
TORSDOF 4
