REMARK  4 active torsions:
REMARK  status: ('A' for Active; 'I' for Inactive)
REMARK    1  A    between atoms: C_2  and  C_1 
REMARK       I    between atoms: N_4  and  C_1 
REMARK    2  A    between atoms: C_6  and  C_3 
REMARK    3  A    between atoms: C_5  and  N_4 
REMARK    4  A    between atoms: O_11  and  C_6 
ROOT
ATOM      1  C   UNL d   1       1.277  -1.853  -0.718  0.00  0.00     0.262 C 
ATOM      2  N   UNL d   1       0.372  -0.816  -0.607  0.00  0.00    -0.322 N 
ATOM      3  O   UNL d   1       1.008  -2.937  -1.234  0.00  0.00    -0.267 OA
ATOM      4  H   UNL d   1       0.723   0.137  -0.494  0.00  0.00     0.169 HD
ENDROOT
BRANCH   2   5
ATOM      5  C   UNL d   1      -1.034  -0.952  -0.754  0.00  0.00     0.051 A 
ATOM      6  C   UNL d   1      -1.828   0.134  -1.162  0.00  0.00     0.066 A 
ATOM      7  C   UNL d   1      -3.227  -0.004  -1.236  0.00  0.00     0.020 A 
ATOM      8  C   UNL d   1      -3.837  -1.213  -0.905  0.00  0.00     0.001 A 
ATOM      9  C   UNL d   1      -3.055  -2.293  -0.508  0.00  0.00     0.002 A 
ATOM     10  C   UNL d   1      -1.666  -2.165  -0.438  0.00  0.00     0.030 A 
BRANCH   6  11
ATOM     11  C   UNL d   1      -1.189   1.401  -1.595  0.00  0.00     0.295 C 
ATOM     12  O   UNL d   1      -0.134   1.819  -1.145  0.00  0.00    -0.259 OA
BRANCH  11  13
ATOM     13  O   UNL d   1      -1.912   1.941  -2.607  0.00  0.00    -0.322 OA
ATOM     14  C   UNL d   1      -1.353   3.093  -3.242  0.00  0.00     0.213 C 
ENDBRANCH  11  13
ENDBRANCH   6  11
ENDBRANCH   2   5
BRANCH   1  15
ATOM     15  C   UNL d   1       2.638  -1.645  -0.170  0.00  0.00     0.109 A 
ATOM     16  C   UNL d   1       2.889  -0.733   0.854  0.00  0.00     0.135 A 
ATOM     17  F   UNL d   1       1.935   0.113   1.280  0.00  0.00    -0.205 F 
ATOM     18  C   UNL d   1       4.128  -0.687   1.494  0.00  0.00     0.043 A 
ATOM     19  C   UNL d   1       5.145  -1.560   1.112  0.00  0.00     0.006 A 
ATOM     20  C   UNL d   1       4.924  -2.451   0.066  0.00  0.00     0.043 A 
ATOM     21  C   UNL d   1       3.680  -2.488  -0.569  0.00  0.00     0.135 A 
ATOM     22  F   UNL d   1       3.530  -3.362  -1.574  0.00  0.00    -0.205 F 
ENDBRANCH   1  15
TORSDOF 4
