REMARK  5 active torsions:
REMARK  status: ('A' for Active; 'I' for Inactive)
REMARK    1  A    between atoms: C_26  and  N_13 
REMARK    2  A    between atoms: N_15  and  C_25 
REMARK    3  A    between atoms: C_19  and  C_22 
REMARK    4  A    between atoms: C_21  and  C_20 
REMARK    5  A    between atoms: C_25  and  C_26 
ROOT
ATOM      1  C   UNL d   1       7.107  -0.592  -0.103  0.00  0.00     0.138 C 
ENDROOT
BRANCH   1   2
ATOM      2  N   UNL d   1       8.319  -1.412  -0.230  0.00  0.00    -0.397 N 
ATOM      3  C   UNL d   1       9.407  -0.720  -0.264  0.00  0.00     0.094 C 
ATOM      4  HN  UNL d   1       8.301  -2.431  -0.285  1.00  0.00     0.158 HD
BRANCH   3   5
ATOM      5  C   UNL d   1      10.729  -1.372  -0.367  0.00  0.00    -0.018 A 
ATOM      6  C   UNL d   1      11.883  -0.581  -0.369  0.00  0.00     0.052 A 
ATOM      7  C   UNL d   1      13.096  -1.237  -0.427  0.00  0.00     0.105 A 
ATOM      8  O   UNL d   1      14.322  -0.644  -0.416  0.00  0.00    -0.323 OA
ATOM      9  C   UNL d   1      13.182  -2.610  -0.492  0.00  0.00     0.105 A 
ATOM     10  C   UNL d   1      15.184  -1.802  -0.419  0.00  0.00     0.352 A 
ATOM     11  O   UNL d   1      14.468  -3.049  -0.528  0.00  0.00    -0.323 OA
ATOM     12  C   UNL d   1      12.061  -3.409  -0.507  0.00  0.00     0.040 A 
ATOM     13  C   UNL d   1      10.816  -2.778  -0.440  0.00  0.00     0.015 A 
ENDBRANCH   3   5
ENDBRANCH   1   2
BRANCH   1  14
ATOM     14  C   UNL d   1       5.879  -1.510  -0.075  0.00  0.00     0.138 C 
BRANCH  14  15
ATOM     15  N   UNL d   1       4.676  -0.678   0.053  0.00  0.00    -0.397 N 
ATOM     16  C   UNL d   1       3.572  -1.345   0.091  0.00  0.00     0.094 C 
ATOM     17  HN  UNL d   1       4.710   0.339   0.109  1.00  0.00     0.158 HD
BRANCH  16  18
ATOM     18  C   UNL d   1       2.272  -0.653   0.214  0.00  0.00    -0.018 A 
ATOM     19  C   UNL d   1       1.093  -1.406   0.255  0.00  0.00     0.052 A 
ATOM     20  C   UNL d   1      -0.094  -0.711   0.373  0.00  0.00     0.105 A 
ATOM     21  C   UNL d   1      -0.133   0.664   0.446  0.00  0.00     0.105 A 
ATOM     22  O   UNL d   1      -1.336  -1.263   0.433  0.00  0.00    -0.323 OA
ATOM     23  O   UNL d   1      -1.399   1.145   0.560  0.00  0.00    -0.323 OA
ATOM     24  C   UNL d   1       1.013   1.427   0.406  0.00  0.00     0.040 A 
ATOM     25  C   UNL d   1      -2.155  -0.082   0.582  0.00  0.00     0.352 A 
ATOM     26  C   UNL d   1       2.232   0.756   0.290  0.00  0.00     0.015 A 
ENDBRANCH  16  18
ENDBRANCH  14  15
ENDBRANCH   1  14
TORSDOF 5
