REMARK  6 active torsions:
REMARK  status: ('A' for Active; 'I' for Inactive)
REMARK    1  A    between atoms: C_5  and  S_1 
REMARK    2  A    between atoms: C_7  and  S_1 
REMARK    3  A    between atoms: C_4  and  C_7 
REMARK    4  A    between atoms: C_16  and  C_6 
REMARK    5  A    between atoms: C_23  and  C_22 
REMARK    6  A    between atoms: C_24  and  C_23 
ROOT
ATOM      1  N   UNL d   1       2.071  -2.294  -1.803  0.00  0.00    -0.322 N 
ATOM      2  HN  UNL d   1       2.923  -1.738  -1.737  1.00  0.00     0.169 HD
ATOM      3  C   UNL d   1       1.151  -2.566  -0.828  0.00  0.00     0.118 A 
ATOM      4  C   UNL d   1       1.585  -2.930  -2.849  0.00  0.00     0.182 A 
ATOM      5  N   UNL d   1       0.109  -3.304  -1.236  0.00  0.00    -0.246 N 
ATOM      6  HN  UNL d   1      -0.703  -3.606  -0.696  1.00  0.00     0.196 HD
ATOM      7  O   UNL d   1       0.403  -3.562  -2.581  0.00  0.00    -0.217 OA
ENDROOT
BRANCH   3   8
ATOM      8  C   UNL d   1       1.213  -1.938   0.500  0.00  0.00     0.224 C 
BRANCH   8   9
ATOM      9  S   UNL d   1       2.570  -2.496   1.490  0.00  0.00     0.182 S 
ATOM     10  O   UNL d   1       2.643  -1.663   2.676  0.00  0.00    -0.222 OA
ATOM     11  O   UNL d   1       2.566  -3.943   1.587  0.00  0.00    -0.222 OA
BRANCH   9  12
ATOM     12  C   UNL d   1       4.029  -2.112   0.630  0.00  0.00     0.066 A 
ATOM     13  C   UNL d   1       4.686  -0.845   0.693  0.00  0.00     0.031 A 
ATOM     14  C   UNL d   1       5.825  -0.818  -0.084  0.00  0.00     0.051 A 
ATOM     15  S   UNL d   1       6.096  -2.307  -0.884  0.00  0.00    -0.112 SA
ATOM     16  C   UNL d   1       4.700  -3.004  -0.180  0.00  0.00     0.072 A 
ENDBRANCH   9  12
ENDBRANCH   8   9
ENDBRANCH   3   8
BRANCH   4  17
ATOM     17  C   UNL d   1       2.115  -3.004  -4.202  0.00  0.00     0.017 A 
ATOM     18  C   UNL d   1       3.413  -2.528  -4.444  0.00  0.00     0.016 A 
ATOM     19  C   UNL d   1       3.949  -2.521  -5.732  0.00  0.00     0.008 A 
ATOM     20  C   UNL d   1       3.196  -2.986  -6.815  0.00  0.00    -0.058 A 
ATOM     21  C   UNL d   1       1.910  -3.491  -6.576  0.00  0.00     0.008 A 
ATOM     22  C   UNL d   1       1.373  -3.499  -5.282  0.00  0.00     0.016 A 
BRANCH  20  23
ATOM     23  C   UNL d   1       3.769  -2.933  -8.210  0.00  0.00     0.038 C 
BRANCH  23  24
ATOM     24  C   UNL d   1       2.977  -2.052  -9.183  0.00  0.00     0.000 C 
ATOM     25  C   UNL d   1       2.925  -0.588  -8.769  0.00  0.00     0.005 C 
ENDBRANCH  23  24
ENDBRANCH  20  23
ENDBRANCH   4  17
TORSDOF 6
