REMARK  1 active torsions:
REMARK  status: ('A' for Active; 'I' for Inactive)
REMARK    1  A    between atoms: C_6  and  N_1 
ROOT
ATOM      1  C   UNL d   1       4.716  -0.035  -0.084  0.00  0.00     0.047 A 
ATOM      2  C   UNL d   1       7.479  -2.197  -1.389  0.00  0.00    -0.078 C 
ATOM      3  C   UNL d   1       8.030  -3.104  -1.954  0.00  0.00     0.018 C 
ATOM      4  C   UNL d   1       5.409  -1.111  -0.661  0.00  0.00     0.050 A 
ATOM      5  C   UNL d   1       6.807  -1.114  -0.740  0.00  0.00     0.019 A 
ATOM      6  C   UNL d   1       5.473   1.031   0.427  0.00  0.00     0.030 A 
ATOM      7  C   UNL d   1       6.871   1.018   0.374  0.00  0.00     0.004 A 
ATOM      8  C   UNL d   1       7.538  -0.052  -0.215  0.00  0.00     0.021 A 
ENDROOT
BRANCH   1   9
ATOM      9  N   UNL d   1       3.294  -0.024  -0.032  0.00  0.00    -0.244 N 
ATOM     10  C   UNL d   1       2.496  -1.146  -0.115  0.00  0.00     0.266 A 
ATOM     11  C   UNL d   1       1.112  -0.692  -0.042  0.00  0.00     0.050 A 
ATOM     12  O   UNL d   1       2.762  -2.331  -0.202  0.00  0.00    -0.267 OA
ATOM     13  C   UNL d   1      -0.064  -1.416  -0.067  0.00  0.00     0.043 A 
ATOM     14  C   UNL d   1       1.125   0.681   0.058  0.00  0.00     0.050 A 
ATOM     15  C   UNL d   1      -1.263  -0.695  -0.016  0.00  0.00     0.056 A 
ATOM     16 CL   UNL d   1      -2.734  -1.601  -0.038  0.00  0.00    -0.083 Cl
ATOM     17  C   UNL d   1      -1.251   0.720   0.049  0.00  0.00     0.056 A 
ATOM     18  C   UNL d   1      -0.041   1.423   0.093  0.00  0.00     0.043 A 
ATOM     19 CL   UNL d   1      -2.709   1.647   0.069  0.00  0.00    -0.083 Cl
ATOM     20  C   UNL d   1       2.520   1.112   0.091  0.00  0.00     0.266 A 
ATOM     21  O   UNL d   1       2.810   2.291   0.180  0.00  0.00    -0.267 OA
ENDBRANCH   1   9
TORSDOF 1
