REMARK  2 active torsions:
REMARK  status: ('A' for Active; 'I' for Inactive)
REMARK    1  A    between atoms: C_11  and  C_8 
REMARK    2  A    between atoms: O_14  and  C_11 
ROOT
ATOM      1  N   UNL d   1       0.696   0.323  -0.002  0.00  0.00    -0.256 N 
ATOM      2  C   UNL d   1       0.957  -1.026  -0.002  0.00  0.00     0.160 A 
ATOM      3  C   UNL d   1       1.640   1.348  -0.003  0.00  0.00     0.255 A 
ATOM      4  N   UNL d   1      -0.127  -1.762  -0.003  0.00  0.00    -0.334 N 
ATOM      5  HN  UNL d   1      -0.185  -2.781  -0.004  1.00  0.00     0.168 HD
ATOM      6  C   UNL d   1       3.065   0.957  -0.002  0.00  0.00     0.100 A 
ATOM      7  S   UNL d   1       2.534  -1.712  -0.002  0.00  0.00    -0.047 SA
ATOM      8  C   UNL d   1       3.528  -0.299  -0.001  0.00  0.00     0.088 A 
ATOM      9  C   UNL d   1      -0.693   0.441  -0.001  0.00  0.00     0.071 A 
ATOM     10  C   UNL d   1      -1.159  -0.872  -0.002  0.00  0.00     0.061 A 
ATOM     11  O   UNL d   1       1.294   2.521  -0.004  0.00  0.00    -0.268 OA
ATOM     12  C   UNL d   1      -1.573   1.536  -0.001  0.00  0.00     0.032 A 
ATOM     13  C   UNL d   1      -2.537  -1.130  -0.001  0.00  0.00     0.032 A 
ATOM     14  C   UNL d   1      -2.947   1.259   0.000  0.00  0.00     0.002 A 
ATOM     15  C   UNL d   1      -3.424  -0.051   0.000  0.00  0.00     0.002 A 
ENDROOT
BRANCH   8  16
ATOM     16  C   UNL d   1       5.002  -0.598   0.001  0.00  0.00     0.300 C 
ATOM     17  O   UNL d   1       5.473  -1.727   0.002  0.00  0.00    -0.259 OA
BRANCH  16  18
ATOM     18  O   UNL d   1       5.752   0.538   0.000  0.00  0.00    -0.322 OA
ATOM     19  C   UNL d   1       7.160   0.278   0.002  0.00  0.00     0.213 C 
ENDBRANCH  16  18
ENDBRANCH   8  16
TORSDOF 2
