REMARK  2 active torsions:
REMARK  status: ('A' for Active; 'I' for Inactive)
REMARK    1  A    between atoms: N_8  and  C_4 
REMARK    2  A    between atoms: C_14  and  N_8 
ROOT
ATOM      1  C   UNL d   1      -2.487  -0.622  -0.014  0.00  0.00     0.103 A 
ATOM      2  C   UNL d   1      -1.916   0.752  -0.035  0.00  0.00     0.200 A 
ATOM      3  C   UNL d   1      -1.363  -1.591  -0.003  0.00  0.00     0.200 A 
ATOM      4  C   UNL d   1      -3.773  -1.017   0.022  0.00  0.00     0.132 C 
ATOM      5  C   UNL d   1      -0.457   0.570  -0.025  0.00  0.00     0.029 A 
ATOM      6  C   UNL d   1      -0.141  -0.787  -0.015  0.00  0.00     0.029 A 
ATOM      7  C   UNL d   1      -4.814  -0.031   0.076  0.00  0.00     0.118 C 
ATOM      8  N   UNL d   1      -5.678   0.743   0.113  0.00  0.00    -0.190 NA
ATOM      9  O   UNL d   1      -1.434  -2.803   0.032  0.00  0.00    -0.286 OA
ATOM     10  O   UNL d   1      -2.499   1.814  -0.054  0.00  0.00    -0.286 OA
ATOM     11  C   UNL d   1       1.166  -1.235  -0.006  0.00  0.00     0.016 A 
ATOM     12  C   UNL d   1       0.532   1.538  -0.020  0.00  0.00     0.016 A 
ATOM     13  C   UNL d   1       1.862   1.103  -0.009  0.00  0.00     0.001 A 
ATOM     14  C   UNL d   1       2.176  -0.271  -0.004  0.00  0.00     0.001 A 
ENDROOT
BRANCH   4  15
ATOM     15  N   UNL d   1      -4.154  -2.358   0.094  0.00  0.00    -0.346 N 
ATOM     16  H   UNL d   1      -3.365  -3.010   0.161  0.00  0.00     0.167 HD
BRANCH  15  17
ATOM     17  C   UNL d   1      -5.404  -2.998   0.117  0.00  0.00     0.048 A 
ATOM     18  C   UNL d   1      -6.573  -2.530  -0.480  0.00  0.00     0.117 A 
ATOM     19  N   UNL d   1      -7.783  -3.144  -0.406  0.00  0.00    -0.373 N 
ATOM     20  C   UNL d   1      -7.849  -4.273   0.325  0.00  0.00     0.088 A 
ATOM     21  HN  UNL d   1      -8.602  -2.767  -0.882  1.00  0.00     0.164 HD
ATOM     22  C   UNL d   1      -6.761  -4.825   0.974  0.00  0.00     0.019 A 
ATOM     23  C   UNL d   1      -5.531  -4.179   0.863  0.00  0.00     0.032 A 
ENDBRANCH  15  17
ENDBRANCH   4  15
TORSDOF 2
