REMARK  1 active torsions:
REMARK  status: ('A' for Active; 'I' for Inactive)
REMARK    1  A    between atoms: N_5  and  C_3 
ROOT
ATOM      1  N   UNL d   1      -1.389  -0.159  -0.001  0.00  0.00    -0.356 N 
ATOM      2  HN  UNL d   1      -2.406  -0.234   0.003  1.00  0.00     0.166 HD
ATOM      3  C   UNL d   1      -0.605  -1.250   0.028  0.00  0.00     0.077 A 
ATOM      4  C   UNL d   1      -0.769   1.047  -0.034  0.00  0.00     0.108 A 
ATOM      5  C   UNL d   1       0.607   1.206  -0.042  0.00  0.00     0.026 A 
ATOM      6  C   UNL d   1       0.783  -1.181   0.034  0.00  0.00     0.043 A 
ATOM      7 BR   UNL d   1       1.385   2.921  -0.090  0.00  0.00    -0.050 Br
ATOM      8  C   UNL d   1       1.400   0.068  -0.008  0.00  0.00     0.024 A 
ENDROOT
BRANCH   3   9
ATOM      9  N   UNL d   1      -1.251  -2.480   0.099  0.00  0.00    -0.289 NA
ATOM     10  H   UNL d   1      -2.249  -2.296   0.030  0.00  0.00     0.125 HD
ATOM     11  H   UNL d   1      -0.933  -3.117  -0.620  0.00  0.00     0.125 HD
ENDBRANCH   3   9
TORSDOF 1
