REMARK  7 active torsions:
REMARK  status: ('A' for Active; 'I' for Inactive)
REMARK    1  A    between atoms: C_5  and  C_1 
REMARK    2  A    between atoms: C_2  and  N_6 
REMARK    3  A    between atoms: N_7  and  C_2 
REMARK    4  A    between atoms: N_3  and  C_5 
REMARK    5  A    between atoms: N_6  and  N_3 
REMARK    6  A    between atoms: C_11  and  N_7 
REMARK    7  A    between atoms: O_15  and  C_8 
ROOT
ATOM      1  N   UNL d   1      -0.889   3.542   0.089  0.00  0.00    -0.302 N 
ATOM      2  HN  UNL d   1      -1.492   4.313  -0.198  1.00  0.00     0.186 HD
ENDROOT
BRANCH   1   3
ATOM      3  C   UNL d   1      -1.413   2.440   0.547  0.00  0.00     0.035 C 
ATOM      4  C   UNL d   1      -0.614   1.321   1.189  0.00  0.00     0.070 C 
BRANCH   3   5
ATOM      5  C   UNL d   1      -2.918   2.288   0.502  0.00  0.00     0.024 A 
ATOM      6  C   UNL d   1      -3.735   3.246  -0.123  0.00  0.00     0.078 A 
ATOM      7  C   UNL d   1      -5.129   3.092  -0.162  0.00  0.00     0.040 A 
ATOM      8  C   UNL d   1      -5.728   1.980   0.421  0.00  0.00     0.045 A 
ATOM      9  C   UNL d   1      -4.925   1.030   1.039  0.00  0.00     0.117 A 
ATOM     10  C   UNL d   1      -3.536   1.170   1.080  0.00  0.00     0.058 A 
ATOM     11  F   UNL d   1      -5.489  -0.044   1.603  0.00  0.00    -0.206 F 
BRANCH   6  12
ATOM     12  O   UNL d   1      -3.255   4.370  -0.735  0.00  0.00    -0.360 OA
ATOM     13  H   UNL d   1      -2.286   4.415  -0.562  0.00  0.00     0.217 HD
ENDBRANCH   6  12
ENDBRANCH   3   5
ENDBRANCH   1   3
BRANCH   1  14
ATOM     14  N   UNL d   1       0.468   3.663  -0.006  0.00  0.00    -0.276 N 
ATOM     15  H   UNL d   1       1.024   2.838  -0.180  0.00  0.00     0.189 HD
BRANCH  14  16
ATOM     16  C   UNL d   1       1.098   4.870   0.130  0.00  0.00     0.187 C 
ATOM     17  S   UNL d   1       0.443   6.221   0.871  0.00  0.00    -0.040 SA
BRANCH  16  18
ATOM     18  N   UNL d   1       2.358   4.996  -0.381  0.00  0.00    -0.358 N 
ATOM     19  H   UNL d   1       2.732   5.915  -0.164  0.00  0.00     0.162 HD
BRANCH  18  20
ATOM     20  C   UNL d   1       3.014   4.316  -1.523  0.00  0.00     0.021 C 
ATOM     21  C   UNL d   1       2.023   4.046  -2.667  0.00  0.00     0.037 C 
ATOM     22  C   UNL d   1       4.108   5.268  -2.057  0.00  0.00     0.037 C 
ATOM     23  C   UNL d   1       3.698   3.013  -1.094  0.00  0.00     0.037 C 
ENDBRANCH  18  20
ENDBRANCH  16  18
ENDBRANCH  14  16
ENDBRANCH   1  14
TORSDOF 7
