REMARK  3 active torsions:
REMARK  status: ('A' for Active; 'I' for Inactive)
REMARK    1  A    between atoms: N_3  and  C_1 
REMARK    2  A    between atoms: C_2  and  C_4 
REMARK    3  A    between atoms: N_7  and  N_3 
REMARK       I    between atoms: C_4  and  N_7 
ROOT
ATOM      1  C   UNL d   1       0.297   5.092  -0.293  0.00  0.00     0.272 C 
ATOM      2  N   UNL d   1      -0.174   3.787  -0.309  0.00  0.00    -0.282 N 
ATOM      3  O   UNL d   1       1.435   5.371   0.068  0.00  0.00    -0.266 OA
ATOM      4  H   UNL d   1      -1.171   3.583  -0.353  0.00  0.00     0.184 HD
ENDROOT
BRANCH   2   5
ATOM      5  N   UNL d   1       0.625   2.806   0.301  0.00  0.00    -0.200 NA
ATOM      6  H   UNL d   1       1.587   3.163   0.421  0.00  0.00     0.153 HD
BRANCH   5   7
ATOM      7  C   UNL d   1       0.635   1.540  -0.363  0.00  0.00     0.071 A 
ATOM      8  C   UNL d   1       1.832   0.783  -0.360  0.00  0.00     0.060 A 
ATOM      9  C   UNL d   1       1.893  -0.514  -0.880  0.00  0.00     0.049 A 
ATOM     10 CL   UNL d   1       3.295   1.446   0.292  0.00  0.00    -0.082 Cl
ATOM     11  C   UNL d   1       0.748  -1.094  -1.404  0.00  0.00     0.037 A 
ATOM     12  C   UNL d   1      -0.453  -0.395  -1.413  0.00  0.00     0.049 A 
ATOM     13 CL   UNL d   1       0.802  -2.700  -2.018  0.00  0.00    -0.084 Cl
ATOM     14  C   UNL d   1      -0.515   0.903  -0.884  0.00  0.00     0.060 A 
ATOM     15 CL   UNL d   1      -2.094   1.623  -0.872  0.00  0.00    -0.082 Cl
ENDBRANCH   5   7
ENDBRANCH   2   5
BRANCH   1  16
ATOM     16  C   UNL d   1      -0.650   6.137  -0.758  0.00  0.00     0.110 A 
ATOM     17  C   UNL d   1      -2.033   5.951  -0.731  0.00  0.00     0.135 A 
ATOM     18  F   UNL d   1      -2.566   4.824  -0.234  0.00  0.00    -0.205 F 
ATOM     19  C   UNL d   1      -2.909   6.925  -1.214  0.00  0.00     0.043 A 
ATOM     20  C   UNL d   1      -2.404   8.114  -1.735  0.00  0.00     0.006 A 
ATOM     21  C   UNL d   1      -1.026   8.322  -1.755  0.00  0.00     0.043 A 
ATOM     22  C   UNL d   1      -0.160   7.340  -1.267  0.00  0.00     0.135 A 
ATOM     23  F   UNL d   1       1.155   7.583  -1.341  0.00  0.00    -0.205 F 
ENDBRANCH   1  16
TORSDOF 3
