REMARK  4 active torsions:
REMARK  status: ('A' for Active; 'I' for Inactive)
REMARK    1  A    between atoms: N_3  and  C_1 
REMARK    2  A    between atoms: C_2  and  C_10 
REMARK    3  A    between atoms: N_7  and  N_3 
REMARK    4  A    between atoms: O_20  and  C_4 
ROOT
ATOM      1  N   UNL d   1      -0.261   3.822  -0.118  0.00  0.00    -0.320 N 
ATOM      2  HN  UNL d   1       0.460   3.101  -0.160  1.00  0.00     0.181 HD
ATOM      3  C   UNL d   1       0.039   5.091  -0.147  0.00  0.00     0.030 C 
ATOM      4  C   UNL d   1      -1.001   6.193  -0.162  0.00  0.00     0.070 C 
ENDROOT
BRANCH   1   5
ATOM      5  N   UNL d   1      -1.578   3.508  -0.030  0.00  0.00    -0.202 NA
ATOM      6  H   UNL d   1      -2.164   3.803  -0.818  0.00  0.00     0.153 HD
BRANCH   5   7
ATOM      7  C   UNL d   1      -1.895   2.173   0.357  0.00  0.00     0.071 A 
ATOM      8  C   UNL d   1      -1.251   1.489   1.412  0.00  0.00     0.060 A 
ATOM      9  C   UNL d   1      -1.646   0.195   1.778  0.00  0.00     0.049 A 
ATOM     10 CL   UNL d   1      -0.001   2.199   2.382  0.00  0.00    -0.082 Cl
ATOM     11  C   UNL d   1      -2.691  -0.432   1.107  0.00  0.00     0.037 A 
ATOM     12  C   UNL d   1      -3.348   0.213   0.068  0.00  0.00     0.049 A 
ATOM     13 CL   UNL d   1      -3.189  -2.006   1.587  0.00  0.00    -0.084 Cl
ATOM     14  C   UNL d   1      -2.955   1.503  -0.295  0.00  0.00     0.060 A 
ATOM     15 CL   UNL d   1      -3.807   2.267  -1.598  0.00  0.00    -0.082 Cl
ENDBRANCH   5   7
ENDBRANCH   1   5
BRANCH   3  16
ATOM     16  C   UNL d   1       1.485   5.460  -0.152  0.00  0.00     0.025 A 
ATOM     17  C   UNL d   1       2.436   4.637  -0.782  0.00  0.00     0.099 A 
ATOM     18  C   UNL d   1       3.791   4.999  -0.775  0.00  0.00     0.070 A 
ATOM     19 CL   UNL d   1       4.989   4.030  -1.554  0.00  0.00    -0.081 Cl
ATOM     20  C   UNL d   1       4.204   6.157  -0.120  0.00  0.00     0.069 A 
ATOM     21  C   UNL d   1       3.262   6.944   0.524  0.00  0.00     0.119 A 
ATOM     22  C   UNL d   1       1.911   6.614   0.517  0.00  0.00     0.058 A 
ATOM     23  F   UNL d   1       3.658   8.046   1.176  0.00  0.00    -0.206 F 
BRANCH  17  24
ATOM     24  O   UNL d   1       2.068   3.474  -1.412  0.00  0.00    -0.358 OA
ATOM     25  H   UNL d   1       1.178   3.220  -1.080  0.00  0.00     0.217 HD
ENDBRANCH  17  24
ENDBRANCH   3  16
TORSDOF 4
