REMARK  1 active torsions:
REMARK  status: ('A' for Active; 'I' for Inactive)
REMARK    1  A    between atoms: C_21  and  C_14 
ROOT
ATOM      1  C   UNL d   1      -1.065  -0.909  -0.001  0.00  0.00     0.134 A 
ATOM      2  C   UNL d   1      -0.477   0.321   0.001  0.00  0.00     0.113 A 
ATOM      3  N   UNL d   1      -2.480  -0.948   0.061  0.00  0.00    -0.288 N 
ATOM      4  C   UNL d   1       1.766  -0.698   0.036  0.00  0.00     0.138 A 
ATOM      5  N   UNL d   1      -0.222  -2.077  -0.057  0.00  0.00    -0.302 N 
ATOM      6  N   UNL d   1      -2.644   1.417  -0.034  0.00  0.00    -0.270 N 
ATOM      7  C   UNL d   1      -3.292   0.204  -0.036  0.00  0.00     0.332 C 
ATOM      8  C   UNL d   1       0.938   0.397   0.004  0.00  0.00     0.129 A 
ATOM      9  C   UNL d   1      -1.273   1.568   0.026  0.00  0.00     0.268 C 
ATOM     10  C   UNL d   1       1.205  -2.025   0.039  0.00  0.00     0.278 A 
ATOM     11  N   UNL d   1       3.089  -0.339   0.043  0.00  0.00    -0.333 N 
ATOM     12  HN  UNL d   1       3.910  -0.944   0.060  1.00  0.00     0.168 HD
ATOM     13  O   UNL d   1       1.772   1.494  -0.005  0.00  0.00    -0.294 OA
ATOM     14  C   UNL d   1       3.039   0.975   0.022  0.00  0.00     0.124 A 
ATOM     15  O   UNL d   1      -4.519   0.129  -0.106  0.00  0.00    -0.246 OA
ATOM     16  O   UNL d   1      -0.736   2.675   0.080  0.00  0.00    -0.267 OA
ATOM     17  O   UNL d   1       1.917  -3.022   0.092  0.00  0.00    -0.265 OA
ATOM     18  C   UNL d   1      -3.270  -2.152   0.238  0.00  0.00     0.163 C 
ATOM     19  C   UNL d   1      -3.436   2.637  -0.032  0.00  0.00     0.164 C 
ATOM     20  C   UNL d   1      -0.675  -3.444  -0.231  0.00  0.00     0.161 C 
ENDROOT
BRANCH  14  21
ATOM     21  C   UNL d   1       4.175   1.929   0.032  0.00  0.00     0.080 C 
ATOM     22  C   UNL d   1       4.631   2.228   1.450  0.00  0.00     0.013 C 
ENDBRANCH  14  21
TORSDOF 1
