REMARK  12 active torsions:
REMARK  status: ('A' for Active; 'I' for Inactive)
REMARK    1  A    between atoms: N_2  and  C_1 
REMARK    2  A    between atoms: C_1  and  C_3 
REMARK    3  A    between atoms: C_4  and  C_1 
REMARK       I    between atoms: C2_15  and  N_2 
REMARK    4  A    between atoms: O_8  and  C_3 
REMARK    5  A    between atoms: O_5  and  C_4 
REMARK    6  A    between atoms: C_7  and  O_5 
REMARK    7  A    between atoms: O1_18  and  C2_15 
REMARK    8  A    between atoms: C4_16  and  C5_17 
REMARK    9  A    between atoms: C5_17  and  O1_18 
REMARK   10  A    between atoms: O6_25  and  C10_23 
REMARK   11  A    between atoms: O7_26  and  C11_24 
REMARK   12  A    between atoms: C_32  and  N_31 
ROOT
ATOM      1  C   UNL d   1      -1.145   0.875   0.499  0.00  0.00     0.218 C 
ATOM      2  C   UNL d   1      -0.243  -0.172   1.156  0.00  0.00     0.035 C 
ATOM      3  C   UNL d   1      -0.601   2.291   0.727  0.00  0.00     0.035 C 
ATOM      4  C   UNL d   1       0.868   2.431   0.322  0.00  0.00     0.002 C 
ATOM      5  C   UNL d   1       1.171  -0.065   0.593  0.00  0.00     0.002 C 
ATOM      6  C   UNL d   1       1.755   1.316   0.871  0.00  0.00     0.000 C 
ENDROOT
BRANCH   1   7
ATOM      7  N   UNL d   1      -2.503   0.773   1.029  0.00  0.00     0.082 N 
ATOM      8  H   UNL d   1      -2.866  -0.165   0.862  0.00  0.00     0.313 HD
ATOM      9  H   UNL d   1      -3.116   1.409   0.518  0.00  0.00     0.313 HD
ENDBRANCH   1   7
TORSDOF 12
