REMARK  4 active torsions:
REMARK  status: ('A' for Active; 'I' for Inactive)
REMARK    1  A    between atoms: C_12  and  C_3 
REMARK    2  A    between atoms: N_9  and  C_4 
REMARK    3  A    between atoms: C_20  and  N_9 
REMARK    4  A    between atoms: C_14  and  C_15 
ROOT
ATOM      1  C   UNL d   1      -0.020  -0.497   0.042  0.00  0.00     0.076 A 
ATOM      2  S   UNL d   1       1.669  -0.791   0.071  0.00  0.00    -0.084 SA
ATOM      3  C   UNL d   1       2.062   0.881   0.003  0.00  0.00     0.018 A 
ATOM      4  C   UNL d   1      -1.089  -1.400   0.056  0.00  0.00     0.126 A 
ATOM      5  C   UNL d   1       0.910   1.643  -0.046  0.00  0.00     0.050 A 
ATOM      6  C   UNL d   1      -0.282   0.866  -0.031  0.00  0.00     0.055 A 
ATOM      7  N   UNL d   1      -2.339  -0.880  -0.015  0.00  0.00    -0.337 N 
ATOM      8  HN  UNL d   1      -3.153  -1.496  -0.028  1.00  0.00     0.168 HD
ATOM      9  N   UNL d   1      -1.536   1.374  -0.078  0.00  0.00    -0.351 N 
ATOM     10  HN  UNL d   1      -1.729   2.375  -0.119  1.00  0.00     0.166 HD
ATOM     11  C   UNL d   1      -2.495   0.448  -0.066  0.00  0.00     0.182 A 
ENDROOT
BRANCH   3  12
ATOM     12  C   UNL d   1       3.465   1.334  -0.015  0.00  0.00    -0.019 A 
ATOM     13  C   UNL d   1       3.819   2.531  -0.650  0.00  0.00     0.013 A 
ATOM     14  C   UNL d   1       5.149   2.974  -0.670  0.00  0.00     0.009 A 
ATOM     15  C   UNL d   1       6.179   2.235  -0.061  0.00  0.00    -0.051 A 
ATOM     16  C   UNL d   1       5.812   1.047   0.585  0.00  0.00     0.009 A 
ATOM     17  C   UNL d   1       4.484   0.606   0.610  0.00  0.00     0.013 A 
BRANCH  15  18
ATOM     18  C   UNL d   1       7.637   2.718  -0.134  0.00  0.00    -0.024 C 
ATOM     19  C   UNL d   1       8.636   1.763   0.562  0.00  0.00     0.019 C 
ATOM     20  C   UNL d   1       8.067   2.834  -1.612  0.00  0.00     0.019 C 
ATOM     21  C   UNL d   1       7.775   4.097   0.545  0.00  0.00     0.019 C 
ENDBRANCH  15  18
ENDBRANCH   3  12
BRANCH   4  22
ATOM     22  N   UNL d   1      -0.910  -2.784   0.180  0.00  0.00    -0.341 N 
ATOM     23  H   UNL d   1       0.035  -3.074   0.394  0.00  0.00     0.167 HD
BRANCH  22  24
ATOM     24  C   UNL d   1      -1.723  -3.803  -0.343  0.00  0.00     0.033 A 
ATOM     25  C   UNL d   1      -2.503  -3.618  -1.492  0.00  0.00     0.029 A 
ATOM     26  C   UNL d   1      -3.321  -4.637  -1.980  0.00  0.00     0.002 A 
ATOM     27  C   UNL d   1      -3.392  -5.853  -1.306  0.00  0.00     0.000 A 
ATOM     28  C   UNL d   1      -2.634  -6.051  -0.154  0.00  0.00     0.002 A 
ATOM     29  C   UNL d   1      -1.797  -5.036   0.318  0.00  0.00     0.029 A 
ENDBRANCH  22  24
ENDBRANCH   4  22
TORSDOF 4
