REMARK  4 active torsions:
REMARK  status: ('A' for Active; 'I' for Inactive)
REMARK    1  A    between atoms: C_7  and  N_1 
REMARK    2  A    between atoms: C_17  and  N_5 
REMARK    3  A    between atoms: C_8  and  C_7 
REMARK    4  A    between atoms: C_11  and  C_12 
ROOT
ATOM      1  N   UNL d   1       0.187   2.938   0.707  0.00  0.00    -0.293 N 
ATOM      2  C   UNL d   1       1.514   2.642   0.556  0.00  0.00     0.150 C 
ATOM      3  C   UNL d   1      -0.121   4.070   1.429  0.00  0.00     0.235 C 
ATOM      4  S   UNL d   1       2.481   4.022   1.016  0.00  0.00    -0.084 SA
ATOM      5  N   UNL d   1       1.911   1.483   0.146  0.00  0.00    -0.337 N 
ATOM      6  HN  UNL d   1       1.207   0.809  -0.156  1.00  0.00     0.168 HD
ATOM      7  C   UNL d   1       1.114   4.796   1.892  0.00  0.00     0.185 C 
ATOM      8  O   UNL d   1      -1.250   4.429   1.750  0.00  0.00    -0.272 OA
ENDROOT
BRANCH   1   9
ATOM      9  C   UNL d   1      -0.868   2.072   0.210  0.00  0.00     0.180 C 
BRANCH   9  10
ATOM     10  C   UNL d   1      -1.163   2.426  -1.223  0.00  0.00     0.001 A 
ATOM     11  S   UNL d   1      -2.378   3.575  -1.604  0.00  0.00    -0.105 SA
ATOM     12  C   UNL d   1      -2.090   3.428  -3.282  0.00  0.00     0.050 A 
ATOM     13  C   UNL d   1      -1.096   2.511  -3.557  0.00  0.00     0.008 A 
ATOM     14  C   UNL d   1      -0.565   1.930  -2.366  0.00  0.00     0.017 A 
ENDBRANCH   9  10
ENDBRANCH   1   9
BRANCH   5  15
ATOM     15  C   UNL d   1       3.261   1.103   0.094  0.00  0.00     0.034 A 
ATOM     16  C   UNL d   1       4.139   1.279   1.163  0.00  0.00     0.030 A 
ATOM     17  C   UNL d   1       5.469   0.863   1.086  0.00  0.00     0.010 A 
ATOM     18  C   UNL d   1       5.956   0.169  -0.032  0.00  0.00    -0.051 A 
ATOM     19  C   UNL d   1       5.051  -0.066  -1.081  0.00  0.00     0.010 A 
ATOM     20  C   UNL d   1       3.727   0.400  -1.019  0.00  0.00     0.030 A 
BRANCH  18  21
ATOM     21  C   UNL d   1       7.417  -0.306  -0.049  0.00  0.00    -0.024 C 
ATOM     22  C   UNL d   1       7.778  -1.161  -1.282  0.00  0.00     0.019 C 
ATOM     23  C   UNL d   1       8.355   0.921  -0.038  0.00  0.00     0.019 C 
ATOM     24  C   UNL d   1       7.704  -1.168   1.202  0.00  0.00     0.019 C 
ENDBRANCH  18  21
ENDBRANCH   5  15
TORSDOF 4
