REMARK  3 active torsions:
REMARK  status: ('A' for Active; 'I' for Inactive)
REMARK    1  A    between atoms: N_7  and  C_1 
REMARK    2  A    between atoms: N_5  and  C_4 
REMARK    3  A    between atoms: N_8  and  C_6 
ROOT
ATOM      1  C   UNL d   1      -0.436   1.219   0.068  0.00  0.00     0.138 A 
ATOM      2  N   UNL d   1      -1.125   0.053  -0.104  0.00  0.00    -0.327 N 
ATOM      3  HN  UNL d   1      -2.134   0.072  -0.251  1.00  0.00     0.169 HD
ATOM      4  C   UNL d   1       0.949   1.179   0.253  0.00  0.00     0.146 A 
ATOM      5  C   UNL d   1      -0.462  -1.134  -0.079  0.00  0.00     0.104 A 
ATOM      6  C   UNL d   1       1.646  -0.023   0.278  0.00  0.00     0.043 A 
ATOM      7  C   UNL d   1       0.919  -1.190   0.115  0.00  0.00     0.051 A 
ENDROOT
BRANCH   1   8
ATOM      8  N   UNL d   1      -1.139   2.422   0.120  0.00  0.00    -0.361 N 
ATOM      9  C   UNL d   1      -2.547   2.360   0.547  0.00  0.00     0.150 C 
ATOM     10  C   UNL d   1      -2.976   3.784   0.960  0.00  0.00     0.187 C 
ATOM     11  O   UNL d   1      -2.795   4.729  -0.113  0.00  0.00    -0.388 OA
ATOM     12  C   UNL d   1      -1.420   4.752  -0.541  0.00  0.00     0.187 C 
ATOM     13  C   UNL d   1      -0.964   3.358  -1.008  0.00  0.00     0.150 C 
ENDBRANCH   1   8
BRANCH   4  14
ATOM     14  N   UNL d   1       1.702   2.382   0.481  0.00  0.00    -0.112 N 
ATOM     15  O   UNL d   1       1.555   2.962   1.565  0.00  0.00    -0.532 OA
ATOM     16  O   UNL d   1       2.494   2.720  -0.411  0.00  0.00    -0.532 OA
ENDBRANCH   4  14
BRANCH   5  17
ATOM     17  N   UNL d   1      -1.119  -2.337  -0.339  0.00  0.00    -0.363 N 
ATOM     18  C   UNL d   1      -2.430  -2.273  -0.996  0.00  0.00     0.150 C 
ATOM     19  C   UNL d   1      -2.728  -3.673  -1.575  0.00  0.00     0.187 C 
ATOM     20  O   UNL d   1      -2.705  -4.689  -0.553  0.00  0.00    -0.388 OA
ATOM     21  C   UNL d   1      -1.427  -4.717   0.107  0.00  0.00     0.187 C 
ATOM     22  C   UNL d   1      -1.088  -3.352   0.731  0.00  0.00     0.150 C 
ENDBRANCH   5  17
TORSDOF 3
