REMARK  8 active torsions:
REMARK  status: ('A' for Active; 'I' for Inactive)
REMARK    1  A    between atoms: N_2  and  S_1 
REMARK    2  A    between atoms: C_6  and  S_1 
REMARK    3  A    between atoms: N_3  and  N_2 
REMARK    4  A    between atoms: C_9  and  C_5 
REMARK    5  A    between atoms: C_10  and  C_5 
REMARK    6  A    between atoms: O_15  and  C_16 
REMARK    7  A    between atoms: C_22  and  O_15 
REMARK    8  A    between atoms: C_25  and  C_22 
ROOT
ATOM      1  N   UNL d   1       0.829  -2.152   1.653  0.00  0.00    -0.290 N 
ATOM      2  HN  UNL d   1       0.661  -1.150   1.559  1.00  0.00     0.188 HD
ATOM      3  C   UNL d   1       0.465  -2.769   2.742  0.00  0.00     0.069 C 
ENDROOT
BRANCH   3   4
ATOM      4  C   UNL d   1       0.773  -4.201   3.087  0.00  0.00    -0.007 A 
ATOM      5  C   UNL d   1       1.994  -4.804   2.755  0.00  0.00     0.016 A 
ATOM      6  C   UNL d   1       2.250  -6.139   3.107  0.00  0.00     0.037 A 
ATOM      7  C   UNL d   1       1.319  -6.869   3.849  0.00  0.00     0.068 A 
ATOM      8  C   UNL d   1       0.114  -6.258   4.200  0.00  0.00     0.037 A 
ATOM      9  C   UNL d   1      -0.171  -4.955   3.792  0.00  0.00     0.016 A 
BRANCH   7  10
ATOM     10  O   UNL d   1       1.671  -8.155   4.178  0.00  0.00    -0.351 OA
BRANCH  10  11
ATOM     11  C   UNL d   1       0.733  -8.834   5.019  0.00  0.00     0.179 C 
BRANCH  11  12
ATOM     12  C   UNL d   1       1.163 -10.272   5.328  0.00  0.00     0.002 C 
ATOM     13  C   UNL d   1       2.513 -10.323   6.040  0.00  0.00     0.011 C 
ATOM     14  C   UNL d   1       0.081 -10.932   6.187  0.00  0.00     0.011 C 
ENDBRANCH  11  12
ENDBRANCH  10  11
ENDBRANCH   7  10
ENDBRANCH   3   4
BRANCH   3  15
ATOM     15  C   UNL d   1      -0.363  -1.955   3.710  0.00  0.00    -0.007 A 
ATOM     16  C   UNL d   1      -1.245  -0.993   3.195  0.00  0.00     0.014 A 
ATOM     17  C   UNL d   1      -2.089  -0.278   4.049  0.00  0.00     0.001 A 
ATOM     18  C   UNL d   1      -2.064  -0.523   5.420  0.00  0.00     0.000 A 
ATOM     19  C   UNL d   1      -1.174  -1.458   5.944  0.00  0.00     0.001 A 
ATOM     20  C   UNL d   1      -0.310  -2.157   5.096  0.00  0.00     0.014 A 
ENDBRANCH   3  15
BRANCH   1  21
ATOM     21  N   UNL d   1       1.462  -2.868   0.590  0.00  0.00    -0.222 N 
ATOM     22  H   UNL d   1       1.256  -3.854   0.418  0.00  0.00     0.200 HD
BRANCH  21  23
ATOM     23  S   UNL d   1       1.912  -2.045  -0.831  0.00  0.00     0.276 S 
ATOM     24  O   UNL d   1       1.030  -0.919  -1.062  0.00  0.00    -0.199 OA
ATOM     25  O   UNL d   1       2.092  -3.079  -1.838  0.00  0.00    -0.199 OA
BRANCH  23  26
ATOM     26  C   UNL d   1       3.513  -1.412  -0.416  0.00  0.00     0.081 A 
ATOM     27  C   UNL d   1       4.637  -1.794  -1.159  0.00  0.00     0.026 A 
ATOM     28  C   UNL d   1       5.882  -1.235  -0.863  0.00  0.00     0.008 A 
ATOM     29  C   UNL d   1       6.016  -0.297   0.171  0.00  0.00    -0.062 A 
ATOM     30  C   UNL d   1       4.885   0.069   0.913  0.00  0.00     0.008 A 
ATOM     31  C   UNL d   1       7.354   0.326   0.447  0.00  0.00     0.048 C 
ATOM     32  C   UNL d   1       3.637  -0.483   0.620  0.00  0.00     0.026 A 
ENDBRANCH  23  26
ENDBRANCH  21  23
ENDBRANCH   1  21
TORSDOF 8
