REMARK  6 active torsions:
REMARK  status: ('A' for Active; 'I' for Inactive)
REMARK    1  A    between atoms: C_3  and  C_1 
REMARK    2  A    between atoms: C_8  and  C_2 
REMARK    3  A    between atoms: N_13  and  C_3 
REMARK    4  A    between atoms: O_14  and  C_4 
REMARK    5  A    between atoms: O_15  and  C_6 
REMARK    6  A    between atoms: O_16  and  C_7 
ROOT
ATOM      1  C   UNL d   1      -0.496  -0.290  -1.147  0.00  0.00     0.082 C 
ATOM      2  C   UNL d   1       0.465   0.646  -1.019  0.00  0.00     0.037 C 
ATOM      3  C   UNL d   1      -0.958  -0.699  -2.437  0.00  0.00     0.102 C 
ATOM      4  N   UNL d   1      -1.365  -1.070  -3.461  0.00  0.00    -0.191 NA
ENDROOT
BRANCH   1   5
ATOM      5  C   UNL d   1      -1.122  -0.901   0.081  0.00  0.00     0.115 C 
ATOM      6  S   UNL d   1      -0.808  -0.547   1.693  0.00  0.00    -0.059 SA
BRANCH   5   7
ATOM      7  N   UNL d   1      -2.080  -1.854  -0.143  0.00  0.00    -0.389 N 
ATOM      8  H   UNL d   1      -2.391  -2.175  -1.054  0.00  0.00     0.157 HD
ATOM      9  H   UNL d   1      -2.529  -2.281   0.661  0.00  0.00     0.157 HD
ENDBRANCH   5   7
ENDBRANCH   1   5
BRANCH   2  10
ATOM     10  C   UNL d   1       1.065   1.359  -2.152  0.00  0.00    -0.029 A 
ATOM     11  C   UNL d   1       0.460   2.520  -2.625  0.00  0.00     0.051 A 
ATOM     12  C   UNL d   1       0.995   3.221  -3.717  0.00  0.00     0.105 A 
ATOM     13  C   UNL d   1       2.149   2.733  -4.373  0.00  0.00     0.135 A 
ATOM     14  C   UNL d   1       2.732   1.533  -3.905  0.00  0.00     0.105 A 
ATOM     15  C   UNL d   1       2.201   0.872  -2.788  0.00  0.00     0.051 A 
BRANCH  12  16
ATOM     16  O   UNL d   1       0.353   4.339  -4.192  0.00  0.00    -0.353 OA
ATOM     17  C   UNL d   1      -0.231   5.183  -3.199  0.00  0.00     0.210 C 
ENDBRANCH  12  16
BRANCH  13  18
ATOM     18  O   UNL d   1       2.799   3.336  -5.418  0.00  0.00    -0.351 OA
ATOM     19  C   UNL d   1       2.402   4.623  -5.864  0.00  0.00     0.210 C 
ENDBRANCH  13  18
BRANCH  14  20
ATOM     20  O   UNL d   1       3.849   0.892  -4.384  0.00  0.00    -0.353 OA
ATOM     21  C   UNL d   1       4.189   1.057  -5.754  0.00  0.00     0.210 C 
ENDBRANCH  14  20
ENDBRANCH   2  10
TORSDOF 6
