REMARK  6 active torsions:
REMARK  status: ('A' for Active; 'I' for Inactive)
REMARK    1  A    between atoms: N_3  and  S_1 
REMARK    2  A    between atoms: C_5  and  S_1 
REMARK    3  A    between atoms: C_2  and  N_4 
REMARK    4  A    between atoms: N_4  and  N_3 
REMARK    5  A    between atoms: O_21  and  C_11 
REMARK    6  A    between atoms: O_22  and  C_15 
ROOT
ATOM      1  S   UNL d   1       0.974   0.026  -0.210  0.00  0.00     0.276 S 
ATOM      2  O   UNL d   1      -0.140  -0.831  -0.556  0.00  0.00    -0.199 OA
ATOM      3  O   UNL d   1       2.155   0.094  -1.043  0.00  0.00    -0.199 OA
ENDROOT
BRANCH   1   4
ATOM      4  N   UNL d   1       1.465  -0.374   1.361  0.00  0.00    -0.222 N 
ATOM      5  H   UNL d   1       1.109   0.199   2.131  0.00  0.00     0.200 HD
BRANCH   4   6
ATOM      6  N   UNL d   1       2.197  -1.599   1.621  0.00  0.00    -0.288 N 
ATOM      7  H   UNL d   1       2.550  -2.099   0.799  0.00  0.00     0.188 HD
BRANCH   6   8
ATOM      8  C   UNL d   1       2.549  -2.130   2.879  0.00  0.00     0.092 A 
ATOM      9  C   UNL d   1       2.002  -1.700   4.107  0.00  0.00     0.065 A 
ATOM     10  C   UNL d   1       2.434  -2.244   5.325  0.00  0.00     0.050 A 
ATOM     11 CL   UNL d   1       0.738  -0.518   4.221  0.00  0.00    -0.082 Cl
ATOM     12  C   UNL d   1       3.425  -3.219   5.342  0.00  0.00     0.037 A 
ATOM     13  C   UNL d   1       3.986  -3.668   4.155  0.00  0.00     0.050 A 
ATOM     14 CL   UNL d   1       3.952  -3.873   6.840  0.00  0.00    -0.084 Cl
ATOM     15  C   UNL d   1       3.550  -3.129   2.941  0.00  0.00     0.065 A 
ATOM     16 CL   UNL d   1       4.291  -3.724   1.492  0.00  0.00    -0.082 Cl
ENDBRANCH   6   8
ENDBRANCH   4   6
ENDBRANCH   1   4
BRANCH   1  17
ATOM     17  C   UNL d   1       0.346   1.669   0.028  0.00  0.00     0.084 A 
ATOM     18  C   UNL d   1      -0.992   1.850   0.403  0.00  0.00     0.065 A 
ATOM     19  C   UNL d   1      -1.516   3.142   0.564  0.00  0.00     0.102 A 
ATOM     20  C   UNL d   1      -0.682   4.252   0.323  0.00  0.00     0.101 A 
ATOM     21  C   UNL d   1       0.657   4.043  -0.053  0.00  0.00     0.041 A 
ATOM     22  C   UNL d   1       1.176   2.760  -0.203  0.00  0.00     0.028 A 
BRANCH  19  23
ATOM     23  O   UNL d   1      -2.807   3.377   0.956  0.00  0.00    -0.353 OA
ATOM     24  C   UNL d   1      -3.666   2.266   1.178  0.00  0.00     0.210 C 
ENDBRANCH  19  23
BRANCH  20  25
ATOM     25  O   UNL d   1      -0.984   5.587   0.400  0.00  0.00    -0.353 OA
ATOM     26  C   UNL d   1      -2.315   5.982   0.688  0.00  0.00     0.210 C 
ENDBRANCH  20  25
ENDBRANCH   1  17
TORSDOF 6
