REMARK  7 active torsions:
REMARK  status: ('A' for Active; 'I' for Inactive)
REMARK    1  A    between atoms: C_8  and  N_1 
REMARK    2  A    between atoms: C_2  and  C_12 
REMARK       I    between atoms: N_3  and  C_2 
REMARK    3  A    between atoms: C_5  and  N_3 
REMARK    4  A    between atoms: O_6  and  C_4 
REMARK    5  A    between atoms: C_9  and  O_6 
REMARK    6  A    between atoms: O_11  and  C_15 
REMARK    7  A    between atoms: C_13  and  O_11 
ROOT
ATOM      1  C   UNL d   1      -2.948  -4.006  -0.453  0.00  0.00     0.105 C 
ATOM      2  C   UNL d   1      -3.869  -4.218   0.587  0.00  0.00     0.069 C 
ATOM      3  C   UNL d   1      -3.412  -3.614  -1.711  0.00  0.00     0.076 C 
ATOM      4  C   UNL d   1      -4.785  -3.549  -1.942  0.00  0.00     0.079 C 
ATOM      5  C   UNL d   1      -5.219  -4.393   0.275  0.00  0.00     0.035 C 
ATOM      6  C   UNL d   1      -5.677  -4.071  -1.001  0.00  0.00     0.040 C 
ENDROOT
BRANCH   2   7
ATOM      7  N   UNL d   1      -3.543  -4.195   1.953  0.00  0.00    -0.320 N 
ATOM      8  C   UNL d   1      -2.691  -3.349   2.639  0.00  0.00     0.256 C 
ATOM      9  O   UNL d   1      -2.462  -3.573   3.827  0.00  0.00    -0.267 OA
ATOM     10  H   UNL d   1      -4.110  -4.747   2.586  0.00  0.00     0.169 HD
BRANCH   8  11
ATOM     11  C   UNL d   1      -2.129  -2.103   2.039  0.00  0.00     0.032 A 
ATOM     12  C   UNL d   1      -2.828  -1.317   1.112  0.00  0.00     0.019 A 
ATOM     13  C   UNL d   1      -2.235  -0.183   0.546  0.00  0.00     0.037 A 
ATOM     14  C   UNL d   1      -0.959   0.208   0.967  0.00  0.00     0.102 A 
ATOM     15  C   UNL d   1      -0.289  -0.511   1.964  0.00  0.00     0.037 A 
ATOM     16  C   UNL d   1      -0.878  -1.663   2.497  0.00  0.00     0.019 A 
BRANCH  14  17
ATOM     17  N   UNL d   1      -0.321   1.382   0.358  0.00  0.00    -0.116 N 
ATOM     18  O   UNL d   1       0.763   1.757   0.828  0.00  0.00    -0.532 OA
ATOM     19  O   UNL d   1      -0.898   1.923  -0.596  0.00  0.00    -0.532 OA
ENDBRANCH  14  17
ENDBRANCH   8  11
ENDBRANCH   2   7
BRANCH   1  20
ATOM     20  O   UNL d   1      -1.581  -4.093  -0.298  0.00  0.00    -0.308 OA
BRANCH  20  21
ATOM     21  C   UNL d   1      -1.031  -5.262   0.207  0.00  0.00     0.082 A 
ATOM     22  C   UNL d   1       0.302  -5.198   0.652  0.00  0.00    -0.028 A 
ATOM     23  C   UNL d   1       1.143  -3.958   0.538  0.00  0.00     0.051 C 
ATOM     24  C   UNL d   1       0.891  -6.339   1.228  0.00  0.00     0.009 A 
ATOM     25  C   UNL d   1       0.182  -7.533   1.337  0.00  0.00     0.001 A 
ATOM     26  C   UNL d   1      -1.115  -7.611   0.845  0.00  0.00     0.003 A 
ATOM     27  C   UNL d   1      -1.712  -6.487   0.267  0.00  0.00     0.038 A 
ENDBRANCH  20  21
ENDBRANCH   1  20
BRANCH   4  28
ATOM     28  O   UNL d   1      -5.216  -2.935  -3.099  0.00  0.00    -0.310 OA
BRANCH  28  29
ATOM     29  C   UNL d   1      -6.236  -1.999  -2.992  0.00  0.00     0.082 A 
ATOM     30  C   UNL d   1      -7.062  -1.802  -4.110  0.00  0.00    -0.028 A 
ATOM     31  C   UNL d   1      -6.800  -2.458  -5.436  0.00  0.00     0.051 C 
ATOM     32  C   UNL d   1      -8.146  -0.911  -4.009  0.00  0.00     0.009 A 
ATOM     33  C   UNL d   1      -8.402  -0.221  -2.825  0.00  0.00     0.001 A 
ATOM     34  C   UNL d   1      -7.548  -0.372  -1.739  0.00  0.00     0.003 A 
ATOM     35  C   UNL d   1      -6.457  -1.237  -1.831  0.00  0.00     0.038 A 
ENDBRANCH  28  29
ENDBRANCH   4  28
TORSDOF 7
