REMARK  4 active torsions:
REMARK  status: ('A' for Active; 'I' for Inactive)
REMARK    1  A    between atoms: C_29  and  N_5 
REMARK    2  A    between atoms: C_16  and  C_9 
REMARK    3  A    between atoms: C_14  and  C_17 
REMARK    4  A    between atoms: C_15  and  C_18 
ROOT
ATOM      1  C   UNL d   1      -0.330  -1.375   0.093  0.00  0.00     0.123 A 
ATOM      2  C   UNL d   1      -0.504  -2.791   0.132  0.00  0.00     0.202 A 
ATOM      3  N   UNL d   1      -0.253  -3.540   1.185  0.00  0.00    -0.317 N 
ATOM      4  HN  UNL d   1       0.014  -3.242   2.124  1.00  0.00     0.169 HD
ATOM      5  N   UNL d   1      -1.068  -0.500  -0.668  0.00  0.00    -0.287 N 
ATOM      6  N   UNL d   1      -0.637   0.779  -0.583  0.00  0.00    -0.301 N 
ATOM      7  HN  UNL d   1      -0.999   1.593  -1.079  1.00  0.00     0.187 HD
ATOM      8  C   UNL d   1       0.581  -0.581   0.755  0.00  0.00     0.067 A 
ATOM      9  C   UNL d   1      -0.437  -4.822   0.716  0.00  0.00     0.138 A 
ATOM     10  C   UNL d   1       0.371   0.738   0.298  0.00  0.00     0.042 A 
ATOM     11  N   UNL d   1      -0.825  -4.879  -0.564  0.00  0.00    -0.242 N 
ATOM     12  HN  UNL d   1      -1.028  -5.707  -1.125  1.00  0.00     0.196 HD
ATOM     13  O   UNL d   1      -0.887  -3.542  -0.949  0.00  0.00    -0.215 OA
ATOM     14 BR   UNL d   1       1.905  -1.099   1.981  0.00  0.00    -0.046 Br
ATOM     15  C   UNL d   1       1.082   1.994   0.645  0.00  0.00     0.071 C 
ENDROOT
BRANCH   9  16
ATOM     16  C   UNL d   1      -0.239  -5.996   1.562  0.00  0.00     0.011 A 
ATOM     17  C   UNL d   1      -0.486  -5.919   2.941  0.00  0.00     0.031 A 
ATOM     18  C   UNL d   1      -0.344  -7.047   3.769  0.00  0.00     0.049 A 
ATOM     19  C   UNL d   1       0.085  -8.257   3.201  0.00  0.00     0.032 A 
ATOM     20  C   UNL d   1       0.352  -8.357   1.827  0.00  0.00     0.049 A 
ATOM     21  C   UNL d   1       0.182  -7.219   1.016  0.00  0.00     0.031 A 
BRANCH  18  22
ATOM     22  C   UNL d   1      -0.678  -6.952   5.240  0.00  0.00     0.417 C 
ATOM     23  F   UNL d   1      -0.533  -8.131   5.904  0.00  0.00    -0.166 F 
ATOM     24  F   UNL d   1       0.103  -6.053   5.897  0.00  0.00    -0.166 F 
ATOM     25  F   UNL d   1      -1.965  -6.561   5.451  0.00  0.00    -0.166 F 
ENDBRANCH  18  22
BRANCH  20  26
ATOM     26  C   UNL d   1       0.803  -9.666   1.218  0.00  0.00     0.417 C 
ATOM     27  F   UNL d   1       0.868 -10.687   2.119  0.00  0.00    -0.166 F 
ATOM     28  F   UNL d   1      -0.029 -10.094   0.231  0.00  0.00    -0.166 F 
ATOM     29  F   UNL d   1       2.042  -9.583   0.661  0.00  0.00    -0.166 F 
ENDBRANCH  20  26
ENDBRANCH   9  16
BRANCH   5  30
ATOM     30  C   UNL d   1      -2.281  -0.750  -1.428  0.00  0.00     0.145 C 
ATOM     31  C   UNL d   1      -2.022  -0.992  -2.904  0.00  0.00     0.028 C 
ENDBRANCH   5  30
TORSDOF 4
