REMARK  3 active torsions:
REMARK  status: ('A' for Active; 'I' for Inactive)
REMARK    1  A    between atoms: C_3  and  C_1 
REMARK    2  A    between atoms: C_7  and  C_2 
REMARK    3  A    between atoms: C_11  and  C_15 
ROOT
ATOM      1  C   UNL d   1       5.998  -0.303  -0.477  0.00  0.00     0.088 C 
ATOM      2  C   UNL d   1       3.931   0.156   0.228  0.00  0.00     0.057 C 
ATOM      3  N   UNL d   1       4.747  -0.727  -0.466  0.00  0.00    -0.348 N 
ATOM      4  HN  UNL d   1       4.424  -1.588  -0.907  1.00  0.00     0.166 HD
ATOM      5  S   UNL d   1       6.270   1.139   0.432  0.00  0.00    -0.081 SA
ATOM      6  C   UNL d   1       4.620   1.172   0.865  0.00  0.00     0.082 C 
ENDROOT
BRANCH   1   7
ATOM      7  C   UNL d   1       7.089  -0.871  -1.296  0.00  0.00     0.041 A 
ATOM      8  C   UNL d   1       6.895  -1.095  -2.676  0.00  0.00     0.049 A 
ATOM      9  C   UNL d   1       7.935  -1.563  -3.495  0.00  0.00     0.041 A 
ATOM     10 CL   UNL d   1       5.394  -0.768  -3.484  0.00  0.00    -0.083 Cl
ATOM     11  C   UNL d   1       9.208  -1.810  -2.971  0.00  0.00     0.051 A 
ATOM     12  C   UNL d   1       9.408  -1.617  -1.601  0.00  0.00     0.041 A 
ATOM     13  C   UNL d   1       8.364  -1.174  -0.772  0.00  0.00     0.049 A 
ATOM     14 CL   UNL d   1       8.749  -1.078   0.916  0.00  0.00    -0.083 Cl
BRANCH  11  15
ATOM     15  C   UNL d   1      10.320  -2.290  -3.872  0.00  0.00     0.417 C 
ATOM     16  F   UNL d   1      11.530  -2.348  -3.253  0.00  0.00    -0.166 F 
ATOM     17  F   UNL d   1      10.085  -3.537  -4.360  0.00  0.00    -0.166 F 
ATOM     18  F   UNL d   1      10.491  -1.486  -4.956  0.00  0.00    -0.166 F 
ENDBRANCH  11  15
ENDBRANCH   1   7
BRANCH   2  19
ATOM     19  C   UNL d   1       2.420   0.072   0.234  0.00  0.00     0.039 A 
ATOM     20  S   UNL d   1       1.471   1.380   0.804  0.00  0.00    -0.087 SA
ATOM     21  C   UNL d   1      -0.004   0.642   0.372  0.00  0.00     0.016 A 
ATOM     22  C   UNL d   1      -1.292   1.199   0.507  0.00  0.00     0.021 A 
ATOM     23  C   UNL d   1       0.204  -0.636  -0.146  0.00  0.00    -0.010 A 
ATOM     24  C   UNL d   1      -2.401   0.438   0.135  0.00  0.00     0.025 A 
ATOM     25  C   UNL d   1      -2.227  -0.845  -0.359  0.00  0.00     0.035 A 
ATOM     26  C   UNL d   1      -0.946  -1.387  -0.509  0.00  0.00     0.037 A 
ATOM     27 CL   UNL d   1      -3.604  -1.782  -0.794  0.00  0.00    -0.084 Cl
ATOM     28  C   UNL d   1       1.624  -0.971  -0.232  0.00  0.00    -0.031 A 
ATOM     29  C   UNL d   1       2.081  -2.293  -0.765  0.00  0.00     0.050 C 
ENDBRANCH   2  19
TORSDOF 3
