REMARK  5 active torsions:
REMARK  status: ('A' for Active; 'I' for Inactive)
REMARK    1  A    between atoms: N_4  and  C_2 
REMARK    2  A    between atoms: C_15  and  C_6 
REMARK    3  A    between atoms: C_16  and  C_6 
REMARK    4  A    between atoms: N_7  and  N_14 
REMARK    5  A    between atoms: N_14  and  C_11 
ROOT
ATOM      1  C   UNL d   1      -0.279  -0.819   0.080  0.00  0.00    -0.009 A 
ATOM      2  C   UNL d   1       0.952  -1.495   0.049  0.00  0.00     0.118 A 
ATOM      3  C   UNL d   1      -0.259   0.577   0.083  0.00  0.00    -0.038 A 
ATOM      4  C   UNL d   1      -1.708  -1.328   0.120  0.00  0.00    -0.017 C 
ATOM      5  C   UNL d   1       2.199  -0.804   0.001  0.00  0.00    -0.000 A 
ATOM      6  C   UNL d   1      -1.635   1.191   0.136  0.00  0.00    -0.019 C 
ATOM      7  C   UNL d   1       2.175   0.608  -0.074  0.00  0.00     0.057 A 
ATOM      8  C   UNL d   1       0.938   1.278   0.031  0.00  0.00     0.040 A 
ATOM      9  C   UNL d   1      -2.502  -0.032  -0.234  0.00  0.00     0.027 C 
ATOM     10  C   UNL d   1      -2.115  -1.838   1.510  0.00  0.00     0.020 C 
ATOM     11  C   UNL d   1      -2.032  -2.399  -0.932  0.00  0.00     0.020 C 
ATOM     12  C   UNL d   1       3.505  -1.565   0.021  0.00  0.00     0.053 C 
ATOM     13  C   UNL d   1      -1.935   1.746   1.533  0.00  0.00     0.020 C 
ATOM     14  C   UNL d   1      -1.816   2.309  -0.904  0.00  0.00     0.020 C 
ENDROOT
BRANCH   7  15
ATOM     15  N   UNL d   1       3.303   1.473  -0.174  0.00  0.00    -0.300 N 
ATOM     16  H   UNL d   1       2.990   2.391  -0.489  0.00  0.00     0.187 HD
BRANCH  15  17
ATOM     17  N   UNL d   1       4.491   1.002  -0.609  0.00  0.00    -0.294 N 
ATOM     18  C   UNL d   1       5.372   1.811  -1.129  0.00  0.00     0.139 C 
ATOM     19  HN  UNL d   1       4.700   0.006  -0.531  1.00  0.00     0.187 HD
BRANCH  18  20
ATOM     20  C   UNL d   1       5.191   3.303  -1.307  0.00  0.00     0.177 C 
ATOM     21  O   UNL d   1       5.393   3.780  -2.419  0.00  0.00    -0.291 OA
ATOM     22  C   UNL d   1       4.724   4.131  -0.143  0.00  0.00     0.098 C 
ENDBRANCH  18  20
BRANCH  18  23
ATOM     23  C   UNL d   1       6.649   1.167  -1.626  0.00  0.00     0.177 C 
ATOM     24  O   UNL d   1       7.714   1.732  -1.412  0.00  0.00    -0.291 OA
ATOM     25  C   UNL d   1       6.525  -0.130  -2.377  0.00  0.00     0.098 C 
ENDBRANCH  18  23
ENDBRANCH  15  17
ENDBRANCH   7  15
BRANCH   2  26
ATOM     26  N   UNL d   1       0.958  -2.941   0.035  0.00  0.00    -0.114 N 
ATOM     27  O   UNL d   1       0.717  -3.525   1.104  0.00  0.00    -0.532 OA
ATOM     28  O   UNL d   1       1.218  -3.494  -1.042  0.00  0.00    -0.532 OA
ENDBRANCH   2  26
TORSDOF 5
