REMARK  5 active torsions:
REMARK  status: ('A' for Active; 'I' for Inactive)
REMARK    1  A    between atoms: C_5  and  C_1 
REMARK    2  A    between atoms: C_12  and  C_4 
REMARK       I    between atoms: N_13  and  C_5 
REMARK    3  A    between atoms: C_9  and  C_19 
REMARK    4  A    between atoms: N_10  and  N_13 
REMARK    5  A    between atoms: C_17  and  C_18 
ROOT
ATOM      1  C   UNL d   1       0.279  -1.021  -0.498  0.00  0.00     0.241 A 
ATOM      2  N   UNL d   1       0.757   0.127  -0.939  0.00  0.00    -0.315 N 
ATOM      3  HN  UNL d   1       1.338   0.308  -1.758  1.00  0.00     0.169 HD
ATOM      4  C   UNL d   1       0.268   1.022  -0.001  0.00  0.00     0.138 A 
ATOM      5  N   UNL d   1      -0.474   0.449   0.961  0.00  0.00    -0.242 N 
ATOM      6  HN  UNL d   1      -0.936   0.901   1.750  1.00  0.00     0.196 HD
ATOM      7  O   UNL d   1      -0.467  -0.899   0.634  0.00  0.00    -0.212 OA
ENDROOT
BRANCH   1   8
ATOM      8  C   UNL d   1       0.460  -2.343  -1.054  0.00  0.00     0.313 C 
ATOM      9  N   UNL d   1       1.245  -2.371  -2.208  0.00  0.00    -0.263 N 
ATOM     10  H   UNL d   1       1.614  -1.505  -2.592  0.00  0.00     0.190 HD
ATOM     11  O   UNL d   1      -0.032  -3.353  -0.549  0.00  0.00    -0.262 OA
BRANCH   9  12
ATOM     12  N   UNL d   1       1.479  -3.568  -2.811  0.00  0.00    -0.308 N 
ATOM     13  C   UNL d   1       2.189  -3.574  -3.891  0.00  0.00     0.122 C 
ATOM     14  HN  UNL d   1       1.106  -4.434  -2.422  1.00  0.00     0.186 HD
BRANCH  13  15
ATOM     15  C   UNL d   1       2.481  -4.843  -4.601  0.00  0.00     0.024 A 
ATOM     16  C   UNL d   1       1.572  -5.917  -4.626  0.00  0.00     0.047 A 
ATOM     17 CL   UNL d   1      -0.032  -5.844  -3.980  0.00  0.00    -0.083 Cl
ATOM     18  C   UNL d   1       1.914  -7.118  -5.262  0.00  0.00     0.025 A 
ATOM     19  C   UNL d   1       3.146  -7.260  -5.893  0.00  0.00     0.003 A 
ATOM     20  C   UNL d   1       4.042  -6.194  -5.897  0.00  0.00     0.025 A 
ATOM     21  C   UNL d   1       3.715  -4.991  -5.257  0.00  0.00     0.047 A 
ATOM     22 CL   UNL d   1       4.911  -3.740  -5.296  0.00  0.00    -0.083 Cl
ENDBRANCH  13  15
ENDBRANCH   9  12
ENDBRANCH   1   8
BRANCH   4  23
ATOM     23  C   UNL d   1       0.537   2.456  -0.040  0.00  0.00     0.010 A 
ATOM     24  C   UNL d   1       1.299   3.028  -1.062  0.00  0.00     0.016 A 
ATOM     25  C   UNL d   1       1.558   4.409  -1.073  0.00  0.00     0.009 A 
ATOM     26  C   UNL d   1       1.071   5.260  -0.062  0.00  0.00    -0.051 A 
ATOM     27  C   UNL d   1       0.298   4.671   0.950  0.00  0.00     0.009 A 
ATOM     28  C   UNL d   1       0.037   3.297   0.961  0.00  0.00     0.016 A 
BRANCH  26  29
ATOM     29  C   UNL d   1       1.407   6.763  -0.065  0.00  0.00    -0.024 C 
ATOM     30  C   UNL d   1       0.807   7.527   1.140  0.00  0.00     0.019 C 
ATOM     31  C   UNL d   1       2.938   6.952  -0.009  0.00  0.00     0.019 C 
ATOM     32  C   UNL d   1       0.866   7.437  -1.343  0.00  0.00     0.019 C 
ENDBRANCH  26  29
ENDBRANCH   4  23
TORSDOF 5
