REMARK  6 active torsions:
REMARK  status: ('A' for Active; 'I' for Inactive)
REMARK    1  A    between atoms: O_6  and  C_1 
REMARK    2  A    between atoms: C_9  and  C_1 
REMARK    3  A    between atoms: N_2  and  O_6 
REMARK    4  A    between atoms: C_4  and  C_8 
REMARK    5  A    between atoms: C_8  and  C_5 
REMARK    6  A    between atoms: N_14  and  C_5 
ROOT
ATOM      1  N   UNL d   1      -1.937  -1.336  -1.580  0.00  0.00    -0.250 N 
ATOM      2  HN  UNL d   1      -1.774  -2.267  -1.963  1.00  0.00     0.196 HD
ATOM      3  C   UNL d   1      -1.661  -0.237  -2.212  0.00  0.00     0.080 C 
ENDROOT
BRANCH   3   4
ATOM      4  C   UNL d   1      -1.001  -0.376  -3.582  0.00  0.00     0.111 C 
BRANCH   4   5
ATOM      5  C   UNL d   1       0.515  -0.305  -3.528  0.00  0.00    -0.041 A 
ATOM      6  C   UNL d   1       1.333  -1.450  -3.295  0.00  0.00    -0.019 A 
ATOM      7  C   UNL d   1       2.744  -1.295  -3.310  0.00  0.00    -0.025 A 
ATOM      8  C   UNL d   1       0.828  -2.749  -3.054  0.00  0.00     0.013 A 
ATOM      9  C   UNL d   1       3.580  -2.406  -3.108  0.00  0.00     0.012 A 
ATOM     10  C   UNL d   1       3.308  -0.031  -3.530  0.00  0.00     0.012 A 
ATOM     11  C   UNL d   1       3.049  -3.674  -2.884  0.00  0.00     0.001 A 
ATOM     12  C   UNL d   1       1.673  -3.845  -2.852  0.00  0.00     0.001 A 
ATOM     13  C   UNL d   1       2.502   1.085  -3.733  0.00  0.00     0.001 A 
ATOM     14  C   UNL d   1       1.118   0.949  -3.731  0.00  0.00     0.008 A 
ENDBRANCH   4   5
ENDBRANCH   3   4
BRANCH   3  15
ATOM     15  N   UNL d   1      -1.956   1.027  -1.757  0.00  0.00    -0.290 NA
ATOM     16  H   UNL d   1      -2.664   1.036  -1.032  0.00  0.00     0.125 HD
ATOM     17  H   UNL d   1      -2.098   1.738  -2.464  0.00  0.00     0.125 HD
ENDBRANCH   3  15
BRANCH   1  18
ATOM     18  O   UNL d   1      -2.488  -1.098  -0.303  0.00  0.00    -0.194 OA
BRANCH  18  19
ATOM     19  C   UNL d   1      -3.321  -2.131   0.017  0.00  0.00     0.315 C 
ATOM     20  O   UNL d   1      -3.886  -2.889  -0.762  0.00  0.00    -0.257 OA
BRANCH  19  21
ATOM     21  C   UNL d   1      -3.487  -2.248   1.493  0.00  0.00     0.041 A 
ATOM     22  C   UNL d   1      -4.379  -3.221   1.973  0.00  0.00     0.019 A 
ATOM     23  C   UNL d   1      -4.533  -3.430   3.346  0.00  0.00     0.025 A 
ATOM     24  C   UNL d   1      -3.795  -2.666   4.246  0.00  0.00     0.034 A 
ATOM     25  C   UNL d   1      -2.910  -1.691   3.785  0.00  0.00     0.025 A 
ATOM     26 CL   UNL d   1      -3.965  -2.938   5.936  0.00  0.00    -0.084 Cl
ATOM     27  C   UNL d   1      -2.754  -1.480   2.409  0.00  0.00     0.019 A 
ENDBRANCH  19  21
ENDBRANCH  18  19
ENDBRANCH   1  18
TORSDOF 6
