REMARK  8 active torsions:
REMARK  status: ('A' for Active; 'I' for Inactive)
REMARK    1  A    between atoms: N_2  and  S_1 
REMARK    2  A    between atoms: C_3  and  S_1 
REMARK    3  A    between atoms: C_8  and  N_2 
REMARK    4  A    between atoms: C_9  and  N_2 
REMARK    5  A    between atoms: C_13  and  C_8 
REMARK    6  A    between atoms: C_14  and  C_9 
REMARK    7  A    between atoms: O_28  and  C_17 
REMARK    8  A    between atoms: O_27  and  C_18 
ROOT
ATOM      1  N   UNL d   1       0.337   0.327   1.436  0.00  0.00    -0.198 NA
ENDROOT
BRANCH   1   2
ATOM      2  S   UNL d   1       0.979  -0.201  -0.053  0.00  0.00     0.244 S 
ATOM      3  O   UNL d   1       0.060  -1.147  -0.640  0.00  0.00    -0.206 OA
ATOM      4  O   UNL d   1       2.382  -0.509   0.118  0.00  0.00    -0.206 OA
BRANCH   2   5
ATOM      5  C   UNL d   1       0.989   1.246  -1.095  0.00  0.00     0.076 A 
ATOM      6  C   UNL d   1       1.854   2.295  -0.770  0.00  0.00     0.050 A 
ATOM      7  C   UNL d   1       2.062   3.329  -1.687  0.00  0.00     0.057 A 
ATOM      8 CL   UNL d   1       3.174   4.576  -1.249  0.00  0.00    -0.083 Cl
ATOM      9  C   UNL d   1       1.408   3.308  -2.926  0.00  0.00     0.055 A 
ATOM     10  C   UNL d   1       0.541   2.255  -3.242  0.00  0.00     0.027 A 
ATOM     11 CL   UNL d   1       1.650   4.531  -4.121  0.00  0.00    -0.083 Cl
ATOM     12  C   UNL d   1       0.330   1.219  -2.329  0.00  0.00     0.026 A 
ENDBRANCH   2   5
ENDBRANCH   1   2
BRANCH   1  13
ATOM     13  C   UNL d   1      -1.149   0.492   1.452  0.00  0.00     0.146 C 
BRANCH  13  14
ATOM     14  C   UNL d   1      -1.694   1.105   2.730  0.00  0.00    -0.044 A 
ATOM     15  C   UNL d   1      -1.301   2.383   3.146  0.00  0.00     0.011 A 
ATOM     16  C   UNL d   1      -1.678   2.874   4.402  0.00  0.00     0.037 A 
ATOM     17  C   UNL d   1      -2.447   2.090   5.262  0.00  0.00     0.068 A 
ATOM     18  C   UNL d   1      -2.922   0.858   4.819  0.00  0.00     0.037 A 
ATOM     19  C   UNL d   1      -2.567   0.376   3.557  0.00  0.00     0.011 A 
BRANCH  17  20
ATOM     20  O   UNL d   1      -2.808   2.436   6.535  0.00  0.00    -0.356 OA
ATOM     21  C   UNL d   1      -1.915   3.321   7.205  0.00  0.00     0.210 C 
ENDBRANCH  17  20
ENDBRANCH  13  14
ENDBRANCH   1  13
BRANCH   1  22
ATOM     22  C   UNL d   1       0.906  -0.395   2.625  0.00  0.00     0.146 C 
BRANCH  22  23
ATOM     23  C   UNL d   1       0.652  -1.886   2.710  0.00  0.00    -0.044 A 
ATOM     24  C   UNL d   1       1.500  -2.799   2.071  0.00  0.00     0.011 A 
ATOM     25  C   UNL d   1       1.232  -4.174   2.080  0.00  0.00     0.037 A 
ATOM     26  C   UNL d   1       0.112  -4.657   2.751  0.00  0.00     0.068 A 
ATOM     27  C   UNL d   1      -0.700  -3.767   3.453  0.00  0.00     0.037 A 
ATOM     28  C   UNL d   1      -0.429  -2.397   3.437  0.00  0.00     0.011 A 
BRANCH  26  29
ATOM     29  O   UNL d   1      -0.254  -5.973   2.832  0.00  0.00    -0.356 OA
ATOM     30  C   UNL d   1       0.195  -6.802   1.767  0.00  0.00     0.210 C 
ENDBRANCH  26  29
ENDBRANCH  22  23
ENDBRANCH   1  22
TORSDOF 8
