REMARK  5 active torsions:
REMARK  status: ('A' for Active; 'I' for Inactive)
REMARK    1  A    between atoms: C_2  and  C_1 
REMARK    2  A    between atoms: O_11  and  C_1 
REMARK    3  A    between atoms: C_3  and  S_6 
REMARK    4  A    between atoms: S_6  and  C_10 
REMARK    5  A    between atoms: C_10  and  C_12 
ROOT
ATOM      1  C   UNL d   1       0.127  -0.253  -1.228  0.00  0.00     0.039 A 
ATOM      2  C   UNL d   1       0.490  -1.333  -2.044  0.00  0.00     0.018 A 
ATOM      3  C   UNL d   1      -0.947   0.559  -1.610  0.00  0.00     0.018 A 
ATOM      4  C   UNL d   1      -1.247  -0.750  -3.647  0.00  0.00    -0.049 A 
ATOM      5  C   UNL d   1      -1.632   0.306  -2.804  0.00  0.00     0.009 A 
ATOM      6  C   UNL d   1      -0.189  -1.578  -3.244  0.00  0.00     0.009 A 
ENDROOT
BRANCH   4   7
ATOM      7  C   UNL d   1      -1.957  -0.984  -4.967  0.00  0.00     0.119 C 
BRANCH   7   8
ATOM      8  S   UNL d   1      -1.673   0.406  -6.120  0.00  0.00    -0.108 SA
BRANCH   8   9
ATOM      9  C   UNL d   1      -2.783  -0.015  -7.450  0.00  0.00     0.069 A 
ATOM     10  N   UNL d   1      -3.350  -1.242  -7.474  0.00  0.00    -0.361 N 
ATOM     11  C   UNL d   1      -4.173  -1.519  -8.510  0.00  0.00     0.089 A 
ATOM     12  HN  UNL d   1      -3.165  -1.928  -6.743  1.00  0.00     0.165 HD
ATOM     13  C   UNL d   1      -4.468  -0.629  -9.531  0.00  0.00     0.017 A 
ATOM     14  C   UNL d   1      -3.877   0.627  -9.491  0.00  0.00     0.004 A 
ATOM     15  C   UNL d   1      -3.019   0.939  -8.439  0.00  0.00     0.037 A 
ENDBRANCH   8   9
ENDBRANCH   7   8
ENDBRANCH   4   7
BRANCH   1  16
ATOM     16  C   UNL d   1       0.915  -0.006   0.011  0.00  0.00     0.292 C 
ATOM     17  O   UNL d   1       1.784  -0.760   0.420  0.00  0.00    -0.259 OA
BRANCH  16  18
ATOM     18  O   UNL d   1       0.545   1.167   0.586  0.00  0.00    -0.323 OA
ATOM     19  C   UNL d   1       1.279   1.537   1.757  0.00  0.00     0.213 C 
ENDBRANCH  16  18
ENDBRANCH   1  16
TORSDOF 5
