REMARK  6 active torsions:
REMARK  status: ('A' for Active; 'I' for Inactive)
REMARK    1  A    between atoms: C_3  and  C_1 
REMARK    2  A    between atoms: N_2  and  C_4 
REMARK    3  A    between atoms: C_10  and  N_7 
REMARK    4  A    between atoms: C_8  and  C_10 
REMARK    5  A    between atoms: C_11  and  C_8 
REMARK    6  A    between atoms: O_27  and  C_24 
ROOT
ATOM      1  N   UNL d   1      -0.772   5.156   0.995  0.00  0.00    -0.364 N 
ATOM      2  N   UNL d   1      -1.861   7.707   2.005  0.00  0.00     0.099 N 
ATOM      3  C   UNL d   1      -0.606   5.487   2.416  0.00  0.00     0.154 C 
ATOM      4  C   UNL d   1      -0.675   6.340   0.135  0.00  0.00     0.154 C 
ATOM      5  C   UNL d   1      -1.723   6.475   2.829  0.00  0.00     0.292 C 
ATOM      6  C   UNL d   1      -1.748   7.373   0.565  0.00  0.00     0.292 C 
ENDROOT
BRANCH   1   7
ATOM      7  C   UNL d   1      -0.343   3.908   0.575  0.00  0.00     0.103 A 
ATOM      8  C   UNL d   1      -0.547   3.457  -0.727  0.00  0.00     0.049 A 
ATOM      9  C   UNL d   1      -0.202   2.148  -1.089  0.00  0.00     0.021 A 
ATOM     10  C   UNL d   1       0.342   1.291  -0.137  0.00  0.00     0.063 A 
ATOM     11  C   UNL d   1       0.512   1.802   1.133  0.00  0.00     0.106 A 
ATOM     12  N   UNL d   1       0.188   3.068   1.494  0.00  0.00    -0.352 N 
ATOM     13  HN  UNL d   1       0.343   3.385   2.450  1.00  0.00     0.166 HD
BRANCH  10  14
ATOM     14  C   UNL d   1       0.714  -0.122  -0.457  0.00  0.00     0.418 C 
ATOM     15  F   UNL d   1       1.245  -0.801   0.597  0.00  0.00    -0.166 F 
ATOM     16  F   UNL d   1       1.638  -0.204  -1.454  0.00  0.00    -0.166 F 
ATOM     17  F   UNL d   1      -0.351  -0.862  -0.876  0.00  0.00    -0.166 F 
ENDBRANCH  10  14
ENDBRANCH   1   7
BRANCH   2  18
ATOM     18  C   UNL d   1      -0.933   8.740   2.477  0.00  0.00     0.356 C 
BRANCH  18  19
ATOM     19  C   UNL d   1      -1.036  10.124   1.846  0.00  0.00     0.187 C 
ATOM     20  O   UNL d   1       0.004  10.789   1.732  0.00  0.00    -0.290 OA
BRANCH  19  21
ATOM     21  C   UNL d   1      -2.313  10.791   1.409  0.00  0.00     0.012 A 
ATOM     22  C   UNL d   1      -3.551  10.156   1.306  0.00  0.00     0.018 A 
ATOM     23  C   UNL d   1      -4.646  10.803   0.711  0.00  0.00     0.037 A 
ATOM     24  C   UNL d   1      -4.535  12.118   0.257  0.00  0.00     0.068 A 
ATOM     25  C   UNL d   1      -3.334  12.794   0.450  0.00  0.00     0.037 A 
ATOM     26  C   UNL d   1      -2.233  12.140   1.012  0.00  0.00     0.018 A 
BRANCH  24  27
ATOM     27  O   UNL d   1      -5.511  12.836  -0.373  0.00  0.00    -0.356 OA
ATOM     28  C   UNL d   1      -6.680  12.122  -0.760  0.00  0.00     0.210 C 
ENDBRANCH  24  27
ENDBRANCH  19  21
ENDBRANCH  18  19
ENDBRANCH   2  18
TORSDOF 6
