REMARK  1 active torsions:
REMARK  status: ('A' for Active; 'I' for Inactive)
REMARK    1  A    between atoms: C_4  and  C_1 
ROOT
ATOM      1  C   UNL d   1       2.865   0.539  -0.493  0.00  0.00     0.148 C 
ATOM      2  S   UNL d   1       2.122  -1.058  -0.997  0.00  0.00    -0.144 SA
ATOM      3  S   UNL d   1       1.691   1.944  -0.388  0.00  0.00    -0.144 SA
ATOM      4  C   UNL d   1      -0.446   0.561   0.611  0.00  0.00    -0.041 A 
ATOM      5  C   UNL d   1      -0.258  -0.808   0.352  0.00  0.00    -0.041 A 
ATOM      6  C   UNL d   1      -1.347  -1.570  -0.103  0.00  0.00     0.015 A 
ATOM      7  C   UNL d   1      -1.704   1.138   0.370  0.00  0.00     0.015 A 
ATOM      8  C   UNL d   1      -2.784   0.380  -0.105  0.00  0.00    -0.056 A 
ATOM      9  C   UNL d   1      -2.608  -0.996  -0.328  0.00  0.00    -0.056 A 
ATOM     10  C   UNL d   1       1.105  -1.446   0.456  0.00  0.00     0.114 C 
ATOM     11  C   UNL d   1       0.697   1.446   1.036  0.00  0.00     0.114 C 
ATOM     12  C   UNL d   1      -3.733  -1.857  -0.836  0.00  0.00     0.049 C 
ATOM     13  C   UNL d   1      -4.092   1.065  -0.393  0.00  0.00     0.049 C 
ENDROOT
BRANCH   1  14
ATOM     14  C   UNL d   1       3.907   0.922  -1.531  0.00  0.00     0.006 A 
ATOM     15  S   UNL d   1       5.549   1.144  -1.079  0.00  0.00    -0.104 SA
ATOM     16  C   UNL d   1       5.996   1.593  -2.669  0.00  0.00     0.050 A 
ATOM     17  C   UNL d   1       4.929   1.561  -3.537  0.00  0.00     0.008 A 
ATOM     18  C   UNL d   1       3.729   1.166  -2.885  0.00  0.00     0.017 A 
ENDBRANCH   1  14
TORSDOF 1
