REMARK  3 active torsions:
REMARK  status: ('A' for Active; 'I' for Inactive)
REMARK    1  A    between atoms: C_6  and  N_1 
REMARK    2  A    between atoms: C_7  and  C_6 
REMARK    3  A    between atoms: C_10  and  C_7 
ROOT
ATOM      1  N   UNL d   1       1.775  -0.043   0.309  0.00  0.00    -0.273 N 
ATOM      2  C   UNL d   1       1.022  -0.922  -0.415  0.00  0.00     0.262 A 
ATOM      3  C   UNL d   1       0.999   0.745   1.115  0.00  0.00     0.262 A 
ATOM      4  C   UNL d   1      -0.378  -0.594  -0.140  0.00  0.00     0.048 A 
ATOM      5  C   UNL d   1      -0.388   0.454   0.762  0.00  0.00     0.048 A 
ATOM      6  O   UNL d   1       1.344   1.504   2.001  0.00  0.00    -0.267 OA
ATOM      7  O   UNL d   1       1.389  -1.837  -1.131  0.00  0.00    -0.267 OA
ATOM      8  C   UNL d   1      -1.543  -1.147  -0.632  0.00  0.00     0.018 A 
ATOM      9  C   UNL d   1      -1.564   1.049   1.178  0.00  0.00     0.018 A 
ATOM     10  C   UNL d   1      -2.748  -0.563  -0.225  0.00  0.00     0.001 A 
ATOM     11  C   UNL d   1      -2.757   0.536   0.660  0.00  0.00     0.001 A 
ENDROOT
BRANCH   1  12
ATOM     12  C   UNL d   1       3.220  -0.019   0.332  0.00  0.00     0.214 C 
BRANCH  12  13
ATOM     13  C   UNL d   1       3.768   1.261  -0.316  0.00  0.00     0.152 C 
ATOM     14  O   UNL d   1       3.014   2.120  -0.788  0.00  0.00    -0.295 OA
BRANCH  13  15
ATOM     15  C   UNL d   1       5.301   1.407  -0.449  0.00  0.00     0.011 C 
ATOM     16  C   UNL d   1       5.687   0.917  -1.850  0.00  0.00     0.022 C 
ATOM     17  C   UNL d   1       5.693   2.887  -0.298  0.00  0.00     0.022 C 
ATOM     18  C   UNL d   1       6.061   0.600   0.613  0.00  0.00     0.022 C 
ENDBRANCH  13  15
ENDBRANCH  12  13
ENDBRANCH   1  12
TORSDOF 3
