REMARK  9 active torsions:
REMARK  status: ('A' for Active; 'I' for Inactive)
REMARK    1  A    between atoms: O_14  and  S_1 
REMARK    2  A    between atoms: N_15  and  S_1 
REMARK    3  A    between atoms: C_5  and  C_4 
REMARK    4  A    between atoms: C_6  and  C_18 
REMARK    5  A    between atoms: N_7  and  C_13 
REMARK    6  A    between atoms: O_20  and  C_12 
REMARK    7  A    between atoms: C_26  and  O_14 
REMARK    8  A    between atoms: C_27  and  O_20 
REMARK    9  A    between atoms: O_35  and  C_28 
ROOT
ATOM      1  N   UNL d   1       2.575   2.262   7.275  0.00  0.00    -0.318 N 
ATOM      2  HN  UNL d   1       2.909   3.165   6.939  1.00  0.00     0.169 HD
ATOM      3  C   UNL d   1       2.888   1.633   8.387  0.00  0.00     0.185 A 
ATOM      4  C   UNL d   1       1.684   1.395   6.676  0.00  0.00     0.138 A 
ATOM      5  N   UNL d   1       1.443   0.283   7.391  0.00  0.00    -0.242 N 
ATOM      6  HN  UNL d   1       0.820  -0.490   7.160  1.00  0.00     0.196 HD
ATOM      7  O   UNL d   1       2.247   0.436   8.522  0.00  0.00    -0.217 OA
ENDROOT
BRANCH   3   8
ATOM      8  C   UNL d   1       3.642   2.113   9.538  0.00  0.00     0.053 A 
ATOM      9  C   UNL d   1       3.558   3.485   9.850  0.00  0.00     0.054 A 
ATOM     10  C   UNL d   1       4.201   3.998  10.984  0.00  0.00     0.104 A 
ATOM     11  C   UNL d   1       4.898   3.152  11.849  0.00  0.00     0.039 A 
ATOM     12  C   UNL d   1       4.992   1.796  11.543  0.00  0.00     0.041 A 
ATOM     13  C   UNL d   1       4.431   1.285  10.357  0.00  0.00     0.090 A 
BRANCH  10  14
ATOM     14  N   UNL d   1       4.144   5.438  11.270  0.00  0.00    -0.116 N 
ATOM     15  O   UNL d   1       3.453   6.144  10.524  0.00  0.00    -0.532 OA
ATOM     16  O   UNL d   1       4.799   5.858  12.233  0.00  0.00    -0.532 OA
ENDBRANCH  10  14
BRANCH  13  17
ATOM     17  O   UNL d   1       4.657  -0.027   9.972  0.00  0.00    -0.310 OA
BRANCH  17  18
ATOM     18  C   UNL d   1       5.915  -0.552  10.211  0.00  0.00     0.076 A 
ATOM     19  C   UNL d   1       5.984  -1.862  10.683  0.00  0.00     0.040 A 
ATOM     20  C   UNL d   1       7.221  -2.415  11.047  0.00  0.00     0.039 A 
ATOM     21  C   UNL d   1       8.389  -1.658  10.937  0.00  0.00     0.068 A 
ATOM     22  C   UNL d   1       8.318  -0.370  10.402  0.00  0.00     0.039 A 
ATOM     23  C   UNL d   1       7.093   0.173  10.011  0.00  0.00     0.040 A 
BRANCH  21  24
ATOM     24  O   UNL d   1       9.645  -2.041  11.315  0.00  0.00    -0.356 OA
ATOM     25  C   UNL d   1       9.797  -3.354  11.836  0.00  0.00     0.210 C 
ENDBRANCH  21  24
ENDBRANCH  17  18
ENDBRANCH  13  17
ENDBRANCH   3   8
BRANCH   4  26
ATOM     26  C   UNL d   1       1.079   1.677   5.378  0.00  0.00     0.010 A 
ATOM     27  C   UNL d   1       1.719   2.540   4.477  0.00  0.00     0.018 A 
ATOM     28  C   UNL d   1       1.169   2.782   3.214  0.00  0.00     0.039 A 
ATOM     29  C   UNL d   1      -0.038   2.186   2.842  0.00  0.00     0.090 A 
ATOM     30  C   UNL d   1      -0.687   1.332   3.732  0.00  0.00     0.039 A 
ATOM     31  C   UNL d   1      -0.131   1.082   4.995  0.00  0.00     0.018 A 
BRANCH  29  32
ATOM     32  O   UNL d   1      -0.477   2.474   1.575  0.00  0.00    -0.221 OA
BRANCH  32  33
ATOM     33  S   UNL d   1      -2.062   2.442   1.187  0.00  0.00     0.344 S 
ATOM     34  O   UNL d   1      -2.801   3.190   2.186  0.00  0.00    -0.180 OA
ATOM     35  O   UNL d   1      -2.427   1.081   0.860  0.00  0.00    -0.180 OA
BRANCH  33  36
ATOM     36  N   UNL d   1      -2.131   3.355  -0.256  0.00  0.00    -0.196 NA
ATOM     37  C   UNL d   1      -1.673   4.749  -0.113  0.00  0.00     0.131 C 
ATOM     38  C   UNL d   1      -1.588   2.688  -1.452  0.00  0.00     0.131 C 
ENDBRANCH  33  36
ENDBRANCH  32  33
ENDBRANCH  29  32
ENDBRANCH   4  26
TORSDOF 9
