REMARK  5 active torsions:
REMARK  status: ('A' for Active; 'I' for Inactive)
REMARK    1  A    between atoms: C_2  and  C_1 
REMARK    2  A    between atoms: C_11  and  N_3 
REMARK    3  A    between atoms: C_12  and  C_6 
REMARK    4  A    between atoms: C_14  and  N_7 
REMARK    5  A    between atoms: C_19  and  C_11 
ROOT
ATOM      1  C   UNL d   1      -0.422   1.210   0.228  0.00  0.00     0.021 A 
ATOM      2  N   UNL d   1       0.789  -0.683   0.636  0.00  0.00    -0.293 N 
ATOM      3  HN  UNL d   1       1.557  -1.327   0.830  1.00  0.00     0.187 HD
ATOM      4  C   UNL d   1       0.877   0.644   0.471  0.00  0.00     0.069 A 
ATOM      5  N   UNL d   1      -0.514  -1.000   0.493  0.00  0.00    -0.267 N 
ATOM      6  C   UNL d   1      -1.281   0.129   0.330  0.00  0.00     0.129 A 
ENDROOT
BRANCH   1   7
ATOM      7  C   UNL d   1      -0.741   2.635  -0.067  0.00  0.00     0.187 C 
ATOM      8  N   UNL d   1      -1.857   2.885  -0.959  0.00  0.00    -0.330 N 
ATOM      9  C   UNL d   1      -2.379   4.176  -0.825  0.00  0.00     0.230 C 
ATOM     10  O   UNL d   1      -3.043   4.760  -1.675  0.00  0.00    -0.272 OA
ATOM     11  C   UNL d   1      -2.002   4.823   0.492  0.00  0.00     0.179 C 
ATOM     12  S   UNL d   1      -1.158   3.550   1.438  0.00  0.00    -0.129 SA
BRANCH   8  13
ATOM     13  C   UNL d   1      -1.981   2.203  -2.242  0.00  0.00     0.166 C 
BRANCH  13  14
ATOM     14  C   UNL d   1      -3.229   1.344  -2.350  0.00  0.00    -0.040 A 
ATOM     15  C   UNL d   1      -4.507   1.872  -2.115  0.00  0.00     0.009 A 
ATOM     16  C   UNL d   1      -5.653   1.084  -2.256  0.00  0.00     0.001 A 
ATOM     17  C   UNL d   1      -5.537  -0.246  -2.649  0.00  0.00     0.000 A 
ATOM     18  C   UNL d   1      -4.278  -0.785  -2.902  0.00  0.00     0.001 A 
ATOM     19  C   UNL d   1      -3.131   0.004  -2.757  0.00  0.00     0.009 A 
ENDBRANCH  13  14
ENDBRANCH   8  13
ENDBRANCH   1   7
BRANCH   4  20
ATOM     20  C   UNL d   1       2.205   1.281   0.515  0.00  0.00    -0.007 A 
ATOM     21  C   UNL d   1       3.333   0.564   0.078  0.00  0.00     0.015 A 
ATOM     22  C   UNL d   1       4.608   1.143   0.088  0.00  0.00     0.024 A 
ATOM     23  C   UNL d   1       4.769   2.451   0.532  0.00  0.00     0.034 A 
ATOM     24  C   UNL d   1       3.672   3.171   0.991  0.00  0.00     0.024 A 
ATOM     25 CL   UNL d   1       6.327   3.177   0.527  0.00  0.00    -0.084 Cl
ATOM     26  C   UNL d   1       2.403   2.581   0.998  0.00  0.00     0.015 A 
ENDBRANCH   4  20
BRANCH   5  27
ATOM     27  C   UNL d   1      -0.921  -2.366   0.459  0.00  0.00     0.056 A 
ATOM     28  C   UNL d   1      -2.245  -2.727   0.180  0.00  0.00     0.031 A 
ATOM     29  C   UNL d   1      -2.593  -4.079   0.084  0.00  0.00     0.002 A 
ATOM     30  C   UNL d   1      -1.631  -5.072   0.272  0.00  0.00     0.000 A 
ATOM     31  C   UNL d   1      -0.317  -4.720   0.568  0.00  0.00     0.002 A 
ATOM     32  C   UNL d   1       0.039  -3.372   0.661  0.00  0.00     0.031 A 
ENDBRANCH   5  27
TORSDOF 5
