REMARK  7 active torsions:
REMARK  status: ('A' for Active; 'I' for Inactive)
REMARK    1  A    between atoms: C_8  and  C_2 
REMARK    2  A    between atoms: N_9  and  N_7 
REMARK    3  A    between atoms: O_15  and  C_8 
REMARK       I    between atoms: C_10  and  N_9 
REMARK    4  A    between atoms: C_16  and  C_10 
REMARK    5  A    between atoms: C_11  and  C_17 
REMARK    6  A    between atoms: O_18  and  C_11 
REMARK    7  A    between atoms: C_17  and  C_16 
ROOT
ATOM      1  C   UNL d   1       0.070  -1.244   0.057  0.00  0.00     0.155 A 
ATOM      2  C   UNL d   1      -0.577  -0.021  -0.126  0.00  0.00     0.101 A 
ATOM      3  N   UNL d   1       1.418  -0.936   0.097  0.00  0.00    -0.280 N 
ATOM      4  N   UNL d   1       1.679   0.371  -0.106  0.00  0.00    -0.307 N 
ATOM      5  HN  UNL d   1       2.588   0.835  -0.138  1.00  0.00     0.186 HD
ATOM      6  C   UNL d   1       0.476   0.913  -0.256  0.00  0.00     0.129 A 
ATOM      7  N   UNL d   1      -0.364  -2.522   0.200  0.00  0.00    -0.281 N 
ATOM      8  C   UNL d   1       2.546  -1.811   0.312  0.00  0.00     0.179 C 
ATOM      9  H   UNL d   1       0.252  -3.304   0.429  0.00  0.00     0.188 HD
ENDROOT
BRANCH   7  10
ATOM     10  N   UNL d   1      -1.692  -2.925   0.072  0.00  0.00    -0.268 N 
ATOM     11  C   UNL d   1      -2.100  -4.013   0.814  0.00  0.00     0.236 C 
ATOM     12  O   UNL d   1      -1.340  -4.713   1.489  0.00  0.00    -0.272 OA
ATOM     13  H   UNL d   1      -2.361  -2.239  -0.289  0.00  0.00     0.190 HD
BRANCH  11  14
ATOM     14  C   UNL d   1      -3.580  -4.303   0.710  0.00  0.00     0.115 C 
BRANCH  14  15
ATOM     15  C   UNL d   1      -4.054  -5.138   1.890  0.00  0.00     0.119 C 
BRANCH  15  16
ATOM     16  C   UNL d   1      -3.949  -4.352   3.172  0.00  0.00     0.139 C 
ATOM     17  O   UNL d   1      -4.860  -3.677   3.628  0.00  0.00    -0.650 OA
BRANCH  16  18
ATOM     18  O   UNL d   1      -2.735  -4.428   3.760  0.00  0.00    -0.776 OA
ATOM     19  H   UNL d   1      -2.057  -4.883   3.206  0.00  0.00     0.167 HD
ENDBRANCH  16  18
ENDBRANCH  15  16
ENDBRANCH  14  15
ENDBRANCH  11  14
ENDBRANCH   7  10
BRANCH   2  20
ATOM     20  C   UNL d   1      -2.002   0.236  -0.201  0.00  0.00     0.181 C 
ATOM     21  O   UNL d   1      -2.834  -0.608  -0.511  0.00  0.00    -0.646 OA
BRANCH  20  22
ATOM     22  O   UNL d   1      -2.376   1.503   0.114  0.00  0.00    -0.773 OA
ATOM     23  H   UNL d   1      -1.664   2.044   0.504  0.00  0.00     0.167 HD
ENDBRANCH  20  22
ENDBRANCH   2  20
TORSDOF 7
