REMARK  8 active torsions:
REMARK  status: ('A' for Active; 'I' for Inactive)
REMARK    1  A    between atoms: N_7  and  S_1 
REMARK    2  A    between atoms: C_10  and  S_1 
REMARK    3  A    between atoms: N_16  and  N_7 
REMARK    4  A    between atoms: C_8  and  C_12 
REMARK    5  A    between atoms: C_9  and  C_13 
REMARK    6  A    between atoms: C_11  and  S_25 
REMARK       I    between atoms: C_19  and  N_16 
REMARK    7  A    between atoms: C_28  and  C_19 
REMARK    8  A    between atoms: S_25  and  C_28 
ROOT
ATOM      1  N   UNL d   1       0.483  -2.711   1.010  0.00  0.00    -0.260 N 
ATOM      2  C   UNL d   1      -0.016  -3.634   1.934  0.00  0.00     0.246 C 
ATOM      3  O   UNL d   1      -0.910  -3.357   2.729  0.00  0.00    -0.271 OA
ATOM      4  H   UNL d   1       1.297  -2.910   0.428  0.00  0.00     0.190 HD
ENDROOT
BRANCH   1   5
ATOM      5  N   UNL d   1      -0.044  -1.347   0.949  0.00  0.00    -0.220 N 
ATOM      6  H   UNL d   1      -0.785  -1.083   1.606  0.00  0.00     0.200 HD
BRANCH   5   7
ATOM      7  S   UNL d   1       0.942  -0.165   0.237  0.00  0.00     0.276 S 
ATOM      8  O   UNL d   1       1.099  -0.512  -1.157  0.00  0.00    -0.199 OA
ATOM      9  O   UNL d   1       2.102  -0.007   1.091  0.00  0.00    -0.199 OA
BRANCH   7  10
ATOM     10  C   UNL d   1      -0.007   1.341   0.335  0.00  0.00     0.082 A 
ATOM     11  C   UNL d   1       0.122   2.169   1.458  0.00  0.00     0.041 A 
ATOM     12  C   UNL d   1      -0.510   3.424   1.488  0.00  0.00     0.050 A 
ATOM     13  C   UNL d   1      -1.262   3.836   0.372  0.00  0.00     0.032 A 
ATOM     14  C   UNL d   1      -1.372   3.026  -0.772  0.00  0.00     0.050 A 
ATOM     15  C   UNL d   1      -0.738   1.772  -0.781  0.00  0.00     0.041 A 
BRANCH  12  16
ATOM     16  C   UNL d   1      -0.379   4.350   2.679  0.00  0.00     0.417 C 
ATOM     17  F   UNL d   1       0.446   3.872   3.650  0.00  0.00    -0.166 F 
ATOM     18  F   UNL d   1       0.111   5.570   2.333  0.00  0.00    -0.166 F 
ATOM     19  F   UNL d   1      -1.576   4.582   3.283  0.00  0.00    -0.166 F 
ENDBRANCH  12  16
BRANCH  14  20
ATOM     20  C   UNL d   1      -2.134   3.536  -1.977  0.00  0.00     0.417 C 
ATOM     21  F   UNL d   1      -2.088   2.696  -3.046  0.00  0.00    -0.166 F 
ATOM     22  F   UNL d   1      -3.453   3.730  -1.706  0.00  0.00    -0.166 F 
ATOM     23  F   UNL d   1      -1.662   4.733  -2.418  0.00  0.00    -0.166 F 
ENDBRANCH  14  20
ENDBRANCH   7  10
ENDBRANCH   5   7
ENDBRANCH   1   5
BRANCH   2  24
ATOM     24  C   UNL d   1       0.677  -4.980   1.781  0.00  0.00     0.185 C 
BRANCH  24  25
ATOM     25  S   UNL d   1       0.239  -6.301   2.979  0.00  0.00    -0.102 SA
BRANCH  25  26
ATOM     26  C   UNL d   1       1.202  -7.628   2.261  0.00  0.00     0.084 A 
ATOM     27  C   UNL d   1       1.308  -8.940   2.790  0.00  0.00     0.039 A 
ATOM     28  C   UNL d   1       2.106  -9.785   2.014  0.00  0.00     0.089 A 
ATOM     29  C   UNL d   1       0.805  -9.688   3.941  0.00  0.00    -0.029 A 
ATOM     30  S   UNL d   1       2.246 -11.366   2.615  0.00  0.00    -0.075 SA
ATOM     31  N   UNL d   1       2.754  -9.494   0.875  0.00  0.00    -0.346 N 
ATOM     32  C   UNL d   1       1.241 -11.010   3.926  0.00  0.00    -0.008 A 
ATOM     33  C   UNL d   1       0.925 -12.069   4.935  0.00  0.00     0.047 C 
ATOM     34  C   UNL d   1      -0.315 -11.678   5.738  0.00  0.00     0.005 C 
ATOM     35  C   UNL d   1      -0.215 -10.222   6.213  0.00  0.00     0.005 C 
ATOM     36  C   UNL d   1      -0.109  -9.214   5.044  0.00  0.00     0.040 C 
ATOM     37  C   UNL d   1       2.577  -8.241   0.490  0.00  0.00     0.182 A 
ATOM     38  HN  UNL d   1       3.322 -10.167   0.361  1.00  0.00     0.167 HD
ATOM     39  N   UNL d   1       1.855  -7.311   1.113  0.00  0.00    -0.346 N 
ATOM     40  HN  UNL d   1       1.793  -6.367   0.730  1.00  0.00     0.167 HD
ENDBRANCH  25  26
ENDBRANCH  24  25
ENDBRANCH   2  24
TORSDOF 8
