REMARK  2 active torsions:
REMARK  status: ('A' for Active; 'I' for Inactive)
REMARK    1  A    between atoms: N_6  and  C_1 
REMARK       I    between atoms: C_7  and  N_6 
REMARK    2  A    between atoms: C_8  and  C_7 
ROOT
ATOM      1  C   UNL d   1       2.340  -0.543  -0.327  0.00  0.00     0.155 C 
ATOM      2  S   UNL d   1       2.253   1.174  -0.518  0.00  0.00    -0.011 SA
ATOM      3  C   UNL d   1       0.732   1.404   0.286  0.00  0.00     0.228 C 
ATOM      4  N   UNL d   1       1.333  -1.354  -0.301  0.00  0.00    -0.336 N 
ATOM      5  HN  UNL d   1       1.495  -2.359  -0.235  1.00  0.00     0.168 HD
ATOM      6  C   UNL d   1      -0.329   0.444  -0.025  0.00  0.00     0.048 A 
ATOM      7  C   UNL d   1       0.018  -0.865  -0.363  0.00  0.00     0.048 A 
ATOM      8  O   UNL d   1       0.521   2.377   1.000  0.00  0.00    -0.279 OA
ATOM      9  C   UNL d   1      -1.665   0.865   0.006  0.00  0.00     0.018 A 
ATOM     10  C   UNL d   1      -1.010  -1.750  -0.706  0.00  0.00     0.030 A 
ATOM     11  C   UNL d   1      -2.675  -0.026  -0.345  0.00  0.00     0.001 A 
ATOM     12  C   UNL d   1      -2.347  -1.331  -0.710  0.00  0.00     0.002 A 
ENDROOT
BRANCH   1  13
ATOM     13  N   UNL d   1       3.582  -1.132  -0.204  0.00  0.00    -0.303 N 
ATOM     14  C   UNL d   1       4.857  -0.580  -0.144  0.00  0.00     0.259 C 
ATOM     15  O   UNL d   1       5.137   0.602  -0.304  0.00  0.00    -0.267 OA
ATOM     16  H   UNL d   1       3.497  -2.130  -0.061  0.00  0.00     0.171 HD
BRANCH  14  17
ATOM     17  C   UNL d   1       5.989  -1.530   0.030  0.00  0.00     0.054 A 
ATOM     18  C   UNL d   1       5.966  -2.662   0.860  0.00  0.00     0.052 A 
ATOM     19  C   UNL d   1       7.081  -3.503   0.923  0.00  0.00     0.067 A 
ATOM     20 CL   UNL d   1       4.622  -3.068   1.866  0.00  0.00    -0.083 Cl
ATOM     21  C   UNL d   1       8.215  -3.207   0.176  0.00  0.00     0.118 A 
ATOM     22  C   UNL d   1       8.270  -2.074  -0.624  0.00  0.00     0.043 A 
ATOM     23  F   UNL d   1       9.273  -4.024   0.232  0.00  0.00    -0.206 F 
ATOM     24  C   UNL d   1       7.160  -1.233  -0.692  0.00  0.00     0.022 A 
ENDBRANCH  14  17
ENDBRANCH   1  13
TORSDOF 2
