REMARK  2 active torsions:
REMARK  status: ('A' for Active; 'I' for Inactive)
REMARK    1  A    between atoms: C_2  and  N_1 
REMARK    2  A    between atoms: C_6  and  C_3 
ROOT
ATOM      1  C   UNL d   1      -1.767  -0.182   0.016  0.00  0.00    -0.034 A 
ATOM      2  C   UNL d   1      -1.431  -1.539   0.084  0.00  0.00     0.011 A 
ATOM      3  C   UNL d   1      -2.809   0.231  -0.820  0.00  0.00     0.011 A 
ATOM      4  C   UNL d   1      -3.503  -0.706  -1.587  0.00  0.00     0.001 A 
ATOM      5  C   UNL d   1      -2.127  -2.474  -0.684  0.00  0.00     0.001 A 
ATOM      6  C   UNL d   1      -3.160  -2.057  -1.522  0.00  0.00     0.000 A 
ENDROOT
BRANCH   1   7
ATOM      7  C   UNL d   1      -1.010   0.794   0.798  0.00  0.00     0.042 C 
ATOM      8  C   UNL d   1       0.100   1.391   0.326  0.00  0.00     0.077 C 
ATOM      9  C   UNL d   1       0.727   1.239  -1.021  0.00  0.00     0.075 C 
BRANCH   8  10
ATOM     10  N   UNL d   1       0.796   2.293   1.238  0.00  0.00    -0.120 N 
ATOM     11  O   UNL d   1       0.128   2.880   2.103  0.00  0.00    -0.532 OA
ATOM     12  O   UNL d   1       2.019   2.414   1.091  0.00  0.00    -0.532 OA
ENDBRANCH   8  10
ENDBRANCH   1   7
TORSDOF 2
