REMARK  8 active torsions:
REMARK  status: ('A' for Active; 'I' for Inactive)
REMARK    1  A    between atoms: C_8  and  N_1 
REMARK    2  A    between atoms: C_11  and  C_2 
REMARK    3  A    between atoms: N_3  and  O_10 
REMARK    4  A    between atoms: C_5  and  C_16 
REMARK    5  A    between atoms: O_10  and  C_5 
REMARK    6  A    between atoms: C_7  and  C_12 
REMARK    7  A    between atoms: N_9  and  C_11 
REMARK    8  A    between atoms: O_24  and  C_15 
ROOT
ATOM      1  N   UNL d   1      -3.767   4.138  -0.332  0.00  0.00    -0.261 N 
ATOM      2  HN  UNL d   1      -3.754   4.294  -1.340  1.00  0.00     0.194 HD
ATOM      3  C   UNL d   1      -4.477   4.867   0.476  0.00  0.00     0.039 C 
ATOM      4  C   UNL d   1      -4.514   4.644   1.969  0.00  0.00     0.071 C 
ENDROOT
BRANCH   3   5
ATOM      5  C   UNL d   1      -5.301   5.967  -0.134  0.00  0.00    -0.011 A 
ATOM      6  C   UNL d   1      -5.692   5.839  -1.476  0.00  0.00     0.025 A 
ATOM      7  C   UNL d   1      -6.406   6.852  -2.166  0.00  0.00     0.004 A 
ATOM      8  C   UNL d   1      -6.725   8.024  -1.465  0.00  0.00     0.076 A 
ATOM      9  C   UNL d   1      -6.332   8.151  -0.120  0.00  0.00     0.038 A 
ATOM     10  C   UNL d   1      -5.630   7.136   0.546  0.00  0.00     0.016 A 
BRANCH   7  11
ATOM     11  C   UNL d   1      -6.657   6.618  -3.643  0.00  0.00     0.313 C 
BRANCH  11  12
ATOM     12  N   UNL d   1      -7.327   5.338  -3.943  0.00  0.00     0.092 N 
ATOM     13  C   UNL d   1      -7.498   5.149  -5.390  0.00  0.00     0.273 C 
ATOM     14  C   UNL d   1      -8.880   5.687  -5.710  0.00  0.00     0.032 C 
ATOM     15  C   UNL d   1      -9.688   5.389  -4.464  0.00  0.00     0.032 C 
ATOM     16  C   UNL d   1      -8.664   5.197  -3.353  0.00  0.00     0.273 C 
ENDBRANCH  11  12
ENDBRANCH   7  11
BRANCH   8  17
ATOM     17  O   UNL d   1      -7.268   9.171  -1.977  0.00  0.00    -0.355 OA
ATOM     18  C   UNL d   1      -8.449   9.059  -2.759  0.00  0.00     0.210 C 
ENDBRANCH   8  17
ENDBRANCH   3   5
BRANCH   1  19
ATOM     19  O   UNL d   1      -3.016   3.115   0.284  0.00  0.00    -0.195 OA
BRANCH  19  20
ATOM     20  C   UNL d   1      -2.369   2.421  -0.710  0.00  0.00     0.315 C 
ATOM     21  O   UNL d   1      -2.447   2.627  -1.916  0.00  0.00    -0.257 OA
BRANCH  20  22
ATOM     22  C   UNL d   1      -1.493   1.334  -0.189  0.00  0.00     0.041 A 
ATOM     23  C   UNL d   1      -1.406   0.973   1.161  0.00  0.00     0.020 A 
ATOM     24  C   UNL d   1      -0.545  -0.066   1.556  0.00  0.00     0.037 A 
ATOM     25  C   UNL d   1       0.228  -0.740   0.599  0.00  0.00     0.102 A 
ATOM     26  C   UNL d   1       0.142  -0.394  -0.753  0.00  0.00     0.037 A 
ATOM     27  C   UNL d   1      -0.716   0.640  -1.137  0.00  0.00     0.020 A 
BRANCH  25  28
ATOM     28  N   UNL d   1       1.140  -1.819   1.006  0.00  0.00    -0.116 N 
ATOM     29  O   UNL d   1       1.810  -2.374   0.127  0.00  0.00    -0.532 OA
ATOM     30  O   UNL d   1       1.184  -2.112   2.210  0.00  0.00    -0.532 OA
ENDBRANCH  25  28
ENDBRANCH  20  22
ENDBRANCH  19  20
ENDBRANCH   1  19
TORSDOF 8
