REMARK  3 active torsions:
REMARK  status: ('A' for Active; 'I' for Inactive)
REMARK    1  A    between atoms: C_4  and  N_1 
REMARK    2  A    between atoms: C_3  and  C_2 
REMARK       I    between atoms: N_5  and  C_3 
REMARK    3  A    between atoms: C_6  and  N_5 
ROOT
ATOM      1  C   UNL d   1       1.741   1.085   2.608  0.00  0.00     0.258 C 
ATOM      2  N   UNL d   1       2.137   1.415   3.897  0.00  0.00    -0.320 N 
ATOM      3  O   UNL d   1       2.276   1.465   1.574  0.00  0.00    -0.267 OA
ATOM      4  H   UNL d   1       1.741   0.926   4.686  0.00  0.00     0.169 HD
ENDROOT
BRANCH   1   5
ATOM      5  C   UNL d   1       0.562   0.177   2.460  0.00  0.00     0.065 A 
ATOM      6  C   UNL d   1       0.244  -0.904   3.286  0.00  0.00     0.118 A 
ATOM      7  C   UNL d   1      -0.922  -1.667   3.103  0.00  0.00     0.037 A 
ATOM      8  C   UNL d   1      -1.767  -1.374   2.036  0.00  0.00     0.002 A 
ATOM      9  C   UNL d   1      -1.440  -0.342   1.158  0.00  0.00     0.001 A 
ATOM     10  C   UNL d   1      -0.288   0.427   1.368  0.00  0.00     0.020 A 
BRANCH   6  11
ATOM     11  N   UNL d   1       1.139  -1.327   4.331  0.00  0.00    -0.115 N 
ATOM     12  O   UNL d   1       2.263  -1.720   3.997  0.00  0.00    -0.532 OA
ATOM     13  O   UNL d   1       0.734  -1.206   5.492  0.00  0.00    -0.532 OA
ENDBRANCH   6  11
ENDBRANCH   1   5
BRANCH   2  14
ATOM     14  C   UNL d   1       3.244   2.240   4.221  0.00  0.00     0.074 A 
ATOM     15  C   UNL d   1       3.723   3.292   3.426  0.00  0.00     0.146 A 
ATOM     16  C   UNL d   1       4.850   4.021   3.800  0.00  0.00     0.086 A 
ATOM     17  F   UNL d   1       3.056   3.708   2.341  0.00  0.00    -0.204 F 
ATOM     18  C   UNL d   1       5.500   3.707   4.983  0.00  0.00     0.119 A 
ATOM     19  C   UNL d   1       5.022   2.701   5.814  0.00  0.00     0.044 A 
ATOM     20  F   UNL d   1       6.594   4.392   5.340  0.00  0.00    -0.206 F 
ATOM     21  C   UNL d   1       3.886   1.978   5.442  0.00  0.00     0.036 A 
ENDBRANCH   2  14
TORSDOF 3
