REMARK  2 active torsions:
REMARK  status: ('A' for Active; 'I' for Inactive)
REMARK    1  A    between atoms: N_8  and  C_1 
REMARK    2  A    between atoms: C_4  and  C_7 
REMARK       I    between atoms: C_7  and  N_8 
ROOT
ATOM      1  C   UNL d   1       1.484   1.029  -0.364  0.00  0.00     0.138 A 
ATOM      2  N   UNL d   1       2.343   0.048  -0.094  0.00  0.00    -0.282 N 
ATOM      3  HN  UNL d   1       3.350   0.124   0.049  1.00  0.00     0.189 HD
ATOM      4  C   UNL d   1       0.166   0.519  -0.537  0.00  0.00     0.076 A 
ATOM      5  N   UNL d   1       1.592  -1.065  -0.051  0.00  0.00    -0.294 N 
ATOM      6  C   UNL d   1       0.252  -0.836  -0.220  0.00  0.00     0.067 A 
ATOM      7  C   UNL d   1      -1.093   1.047  -0.863  0.00  0.00     0.132 A 
ATOM      8  C   UNL d   1       2.235  -2.344   0.131  0.00  0.00     0.178 C 
ATOM      9  F   UNL d   1      -1.218   2.334  -1.219  0.00  0.00    -0.205 F 
ATOM     10  C   UNL d   1      -0.873  -1.668  -0.130  0.00  0.00     0.032 A 
ATOM     11  C   UNL d   1      -2.119  -1.100  -0.417  0.00  0.00     0.005 A 
ATOM     12  C   UNL d   1      -2.229   0.234  -0.808  0.00  0.00     0.043 A 
ENDROOT
BRANCH   1  13
ATOM     13  N   UNL d   1       1.813   2.373  -0.401  0.00  0.00    -0.306 N 
ATOM     14  C   UNL d   1       3.050   2.887  -0.041  0.00  0.00     0.267 C 
ATOM     15  O   UNL d   1       4.047   2.204   0.175  0.00  0.00    -0.267 OA
ATOM     16  H   UNL d   1       1.045   3.004  -0.576  0.00  0.00     0.170 HD
BRANCH  14  17
ATOM     17  C   UNL d   1       3.108   4.333   0.098  0.00  0.00     0.114 A 
ATOM     18  C   UNL d   1       4.181   5.155   0.435  0.00  0.00     0.046 A 
ATOM     19  N   UNL d   1       3.867   6.511   0.519  0.00  0.00    -0.298 N 
ATOM     20  C   UNL d   1       5.590   4.779   0.730  0.00  0.00     0.071 C 
ATOM     21  N   UNL d   1       2.595   6.744   0.254  0.00  0.00    -0.269 N 
ATOM     22  HN  UNL d   1       4.541   7.238   0.757  1.00  0.00     0.187 HD
ATOM     23  S   UNL d   1       1.746   5.356  -0.098  0.00  0.00     0.009 SA
ATOM     24  HN  UNL d   1       2.177   7.674   0.265  1.00  0.00     0.195 HD
ENDBRANCH  14  17
ENDBRANCH   1  13
TORSDOF 2
