REMARK  3 active torsions:
REMARK  status: ('A' for Active; 'I' for Inactive)
REMARK    1  A    between atoms: C_7  and  C_3 
REMARK    2  A    between atoms: O_20  and  C_10 
REMARK    3  A    between atoms: O_22  and  C_19 
ROOT
ATOM      1  C   UNL d   1      -1.265   0.667  -0.081  0.00  0.00     0.031 A 
ATOM      2  C   UNL d   1       1.247   0.659  -0.092  0.00  0.00     0.031 A 
ATOM      3  C   UNL d   1      -0.007   1.505  -0.277  0.00  0.00     0.100 A 
ATOM      4  C   UNL d   1      -1.210  -0.650   0.192  0.00  0.00     0.065 A 
ATOM      5  C   UNL d   1       1.188  -0.653   0.201  0.00  0.00     0.065 A 
ATOM      6  O   UNL d   1      -0.012  -1.331   0.322  0.00  0.00    -0.318 OA
ATOM      7  C   UNL d   1       2.593   1.306  -0.180  0.00  0.00     0.159 C 
ATOM      8  C   UNL d   1      -2.609   1.322  -0.137  0.00  0.00     0.159 C 
ATOM      9  C   UNL d   1      -2.403  -1.535   0.409  0.00  0.00     0.075 C 
ATOM     10  C   UNL d   1       2.380  -1.532   0.456  0.00  0.00     0.075 C 
ATOM     11  C   UNL d   1      -3.708  -0.954  -0.161  0.00  0.00    -0.035 C 
ATOM     12  C   UNL d   1       3.695  -0.958  -0.100  0.00  0.00    -0.035 C 
ATOM     13  C   UNL d   1      -3.825   0.513   0.278  0.00  0.00     0.092 C 
ATOM     14  C   UNL d   1       3.796   0.519   0.307  0.00  0.00     0.092 C 
ATOM     15  O   UNL d   1      -2.729   2.497  -0.474  0.00  0.00    -0.293 OA
ATOM     16  O   UNL d   1       2.719   2.446  -0.617  0.00  0.00    -0.293 OA
ATOM     17  C   UNL d   1      -4.894  -1.762   0.390  0.00  0.00     0.015 C 
ATOM     18  C   UNL d   1      -3.725  -1.052  -1.701  0.00  0.00     0.015 C 
ATOM     19  C   UNL d   1       3.740  -1.093  -1.636  0.00  0.00     0.015 C 
ATOM     20  C   UNL d   1       4.876  -1.747   0.490  0.00  0.00     0.015 C 
ENDROOT
BRANCH   3  21
ATOM     21  C   UNL d   1       0.010   2.720   0.656  0.00  0.00    -0.009 A 
ATOM     22  C   UNL d   1       0.061   2.631   2.060  0.00  0.00     0.106 A 
ATOM     23  C   UNL d   1       0.096   3.792   2.840  0.00  0.00     0.101 A 
ATOM     24  C   UNL d   1       0.077   5.047   2.209  0.00  0.00     0.039 A 
ATOM     25  C   UNL d   1       0.025   5.153   0.820  0.00  0.00     0.003 A 
ATOM     26  C   UNL d   1      -0.004   3.996   0.052  0.00  0.00     0.011 A 
BRANCH  22  27
ATOM     27  O   UNL d   1       0.089   1.415   2.691  0.00  0.00    -0.357 OA
ATOM     28  H   UNL d   1      -0.071   0.691   2.072  0.00  0.00     0.217 HD
ENDBRANCH  22  27
BRANCH  23  29
ATOM     29  O   UNL d   1       0.148   3.895   4.209  0.00  0.00    -0.353 OA
ATOM     30  C   UNL d   1       0.176   2.694   4.966  0.00  0.00     0.210 C 
ENDBRANCH  23  29
ENDBRANCH   3  21
TORSDOF 3
