REMARK  7 active torsions:
REMARK  status: ('A' for Active; 'I' for Inactive)
REMARK    1  A    between atoms: N_4  and  C_1 
REMARK    2  A    between atoms: C_2  and  C_7 
REMARK    3  A    between atoms: C_3  and  C_6 
REMARK       I    between atoms: C_5  and  N_4 
REMARK       I    between atoms: N_11  and  C_5 
REMARK    4  A    between atoms: C_10  and  N_11 
REMARK    5  A    between atoms: C_25  and  C_13 
REMARK    6  A    between atoms: S_18  and  C_25 
REMARK    7  A    between atoms: C_26  and  S_18 
ROOT
ATOM      1  N   UNL d   1      -0.584   2.239  -0.127  0.00  0.00    -0.289 N 
ATOM      2  C   UNL d   1       0.281   3.300  -0.207  0.00  0.00     0.326 C 
ATOM      3  N   UNL d   1       1.471   3.197   0.461  0.00  0.00    -0.309 N 
ATOM      4  O   UNL d   1      -0.065   4.249  -0.910  0.00  0.00    -0.247 OA
ATOM      5  H   UNL d   1      -1.423   2.367  -0.673  0.00  0.00     0.172 HD
ATOM      6  H   UNL d   1       1.587   2.338   0.989  0.00  0.00     0.170 HD
ENDROOT
BRANCH   1   7
ATOM      7  C   UNL d   1      -0.454   1.087   0.596  0.00  0.00     0.151 A 
ATOM      8  O   UNL d   1       0.638   0.910   1.380  0.00  0.00    -0.297 OA
ATOM      9  C   UNL d   1       0.466  -0.247   2.083  0.00  0.00     0.065 A 
ATOM     10  C   UNL d   1      -0.697  -0.863   1.667  0.00  0.00     0.038 A 
ATOM     11  C   UNL d   1      -1.291   0.001   0.710  0.00  0.00     0.059 A 
BRANCH   9  12
ATOM     12  C   UNL d   1       1.494  -0.582   3.114  0.00  0.00     0.144 C 
BRANCH  12  13
ATOM     13  S   UNL d   1       2.215   0.947   3.829  0.00  0.00    -0.123 SA
BRANCH  13  14
ATOM     14  C   UNL d   1       3.337   0.349   5.072  0.00  0.00     0.001 A 
ATOM     15  C   UNL d   1       4.523   1.072   5.264  0.00  0.00     0.020 A 
ATOM     16  C   UNL d   1       5.397   0.749   6.304  0.00  0.00     0.025 A 
ATOM     17  C   UNL d   1       5.086  -0.301   7.162  0.00  0.00     0.034 A 
ATOM     18  C   UNL d   1       3.917  -1.036   6.978  0.00  0.00     0.025 A 
ATOM     19 CL   UNL d   1       6.133  -0.673   8.474  0.00  0.00    -0.084 Cl
ATOM     20  C   UNL d   1       3.042  -0.710   5.935  0.00  0.00     0.020 A 
ENDBRANCH  13  14
ENDBRANCH  12  13
ENDBRANCH   9  12
ENDBRANCH   1   7
BRANCH   3  21
ATOM     21  C   UNL d   1       2.580   4.060   0.394  0.00  0.00     0.037 A 
ATOM     22  C   UNL d   1       2.557   5.305  -0.235  0.00  0.00     0.045 A 
ATOM     23  C   UNL d   1       3.724   6.078  -0.361  0.00  0.00     0.050 A 
ATOM     24  C   UNL d   1       4.927   5.591   0.172  0.00  0.00     0.032 A 
ATOM     25  C   UNL d   1       4.969   4.351   0.826  0.00  0.00     0.050 A 
ATOM     26  C   UNL d   1       3.783   3.607   0.951  0.00  0.00     0.045 A 
BRANCH  23  27
ATOM     27  C   UNL d   1       3.661   7.404  -1.083  0.00  0.00     0.417 C 
ATOM     28  F   UNL d   1       4.884   7.972  -1.270  0.00  0.00    -0.166 F 
ATOM     29  F   UNL d   1       3.110   7.298  -2.325  0.00  0.00    -0.166 F 
ATOM     30  F   UNL d   1       2.918   8.329  -0.416  0.00  0.00    -0.166 F 
ENDBRANCH  23  27
BRANCH  25  31
ATOM     31  C   UNL d   1       6.264   3.796   1.369  0.00  0.00     0.417 C 
ATOM     32  F   UNL d   1       7.363   4.499   0.977  0.00  0.00    -0.166 F 
ATOM     33  F   UNL d   1       6.296   3.776   2.729  0.00  0.00    -0.166 F 
ATOM     34  F   UNL d   1       6.486   2.511   0.972  0.00  0.00    -0.166 F 
ENDBRANCH  25  31
ENDBRANCH   3  21
TORSDOF 7
