REMARK  5 active torsions:
REMARK  status: ('A' for Active; 'I' for Inactive)
REMARK    1  A    between atoms: N_18  and  C_3 
REMARK    2  A    between atoms: N_10  and  C_5 
REMARK    3  A    between atoms: C_8  and  N_10 
REMARK    4  A    between atoms: N_12  and  C_8 
REMARK    5  A    between atoms: C_16  and  N_12 
ROOT
ATOM      1  C   UNL d   1      -0.453  -0.969   0.015  0.00  0.00    -0.039 A 
ATOM      2  C   UNL d   1      -0.610   0.429  -0.039  0.00  0.00    -0.021 A 
ATOM      3  C   UNL d   1       0.511   1.245  -0.181  0.00  0.00     0.021 A 
ATOM      4  C   UNL d   1      -2.074   0.822   0.057  0.00  0.00    -0.017 C 
ATOM      5  C   UNL d   1       1.962  -0.766  -0.188  0.00  0.00     0.042 A 
ATOM      6  C   UNL d   1       1.790   0.646  -0.319  0.00  0.00    -0.014 A 
ATOM      7  C   UNL d   1      -1.786  -1.677   0.161  0.00  0.00    -0.019 C 
ATOM      8  C   UNL d   1       0.816  -1.558  -0.031  0.00  0.00     0.038 A 
ATOM      9  C   UNL d   1      -2.777  -0.541  -0.185  0.00  0.00     0.027 C 
ATOM     10  C   UNL d   1      -2.428   1.400   1.434  0.00  0.00     0.020 C 
ATOM     11  C   UNL d   1      -2.538   1.792  -1.046  0.00  0.00     0.020 C 
ATOM     12  C   UNL d   1       2.966   1.552  -0.622  0.00  0.00     0.052 C 
ATOM     13  C   UNL d   1      -2.010  -2.200   1.587  0.00  0.00     0.020 C 
ATOM     14  C   UNL d   1      -1.968  -2.833  -0.833  0.00  0.00     0.020 C 
ENDROOT
BRANCH   5  15
ATOM     15  N   UNL d   1       3.305  -1.263  -0.211  0.00  0.00    -0.333 N 
ATOM     16  H   UNL d   1       3.971  -0.558  -0.440  0.00  0.00     0.168 HD
BRANCH  15  17
ATOM     17  C   UNL d   1       3.898  -2.448   0.097  0.00  0.00     0.176 C 
ATOM     18  S   UNL d   1       3.183  -3.858   0.651  0.00  0.00    -0.041 SA
BRANCH  17  19
ATOM     19  N   UNL d   1       5.262  -2.566  -0.072  0.00  0.00    -0.333 N 
ATOM     20  H   UNL d   1       5.518  -3.533   0.115  0.00  0.00     0.168 HD
BRANCH  19  21
ATOM     21  C   UNL d   1       6.353  -1.770  -0.499  0.00  0.00     0.035 A 
ATOM     22  C   UNL d   1       6.382  -0.388  -0.664  0.00  0.00     0.055 A 
ATOM     23  C   UNL d   1       7.521   0.255  -1.190  0.00  0.00     0.058 A 
ATOM     24 CL   UNL d   1       7.439   1.972  -1.403  0.00  0.00    -0.082 Cl
ATOM     25  C   UNL d   1       8.661  -0.477  -1.525  0.00  0.00     0.055 A 
ATOM     26  C   UNL d   1       8.675  -1.848  -1.291  0.00  0.00     0.028 A 
ATOM     27 CL   UNL d   1      10.067   0.243  -2.219  0.00  0.00    -0.083 Cl
ATOM     28  C   UNL d   1       7.537  -2.482  -0.776  0.00  0.00     0.031 A 
ENDBRANCH  19  21
ENDBRANCH  17  19
ENDBRANCH  15  17
ENDBRANCH   5  15
BRANCH   3  29
ATOM     29  N   UNL d   1       0.450   2.632   0.080  0.00  0.00    -0.302 NA
ATOM     30  H   UNL d   1      -0.468   3.029  -0.061  0.00  0.00     0.124 HD
ATOM     31  H   UNL d   1       0.732   2.801   1.045  0.00  0.00     0.124 HD
ENDBRANCH   3  29
TORSDOF 5
