REMARK  4 active torsions:
REMARK  status: ('A' for Active; 'I' for Inactive)
REMARK    1  A    between atoms: N_3  and  S_1 
REMARK    2  A    between atoms: C_11  and  S_1 
REMARK    3  A    between atoms: N_6  and  N_3 
REMARK    4  A    between atoms: C_4  and  N_6 
ROOT
ATOM      1  N   UNL d   1       1.033  -1.621   2.013  0.00  0.00    -0.275 N 
ATOM      2  H   UNL d   1       1.679  -2.170   1.450  0.00  0.00     0.189 HD
ENDROOT
BRANCH   1   3
ATOM      3  C   UNL d   1       1.000  -1.844   3.390  0.00  0.00     0.134 A 
ATOM      4  C   UNL d   1       1.698  -2.910   3.986  0.00  0.00     0.044 A 
ATOM      5  C   UNL d   1       1.613  -2.997   5.367  0.00  0.00     0.088 A 
ATOM      6  C   UNL d   1       2.516  -3.969   3.459  0.00  0.00     0.025 A 
ATOM      7  S   UNL d   1       2.500  -4.310   6.001  0.00  0.00    -0.083 SA
ATOM      8  N   UNL d   1       0.932  -2.172   6.178  0.00  0.00    -0.346 N 
ATOM      9  C   UNL d   1       3.011  -4.796   4.444  0.00  0.00     0.053 A 
ATOM     10  C   UNL d   1       0.304  -1.204   5.507  0.00  0.00     0.182 A 
ATOM     11  HN  UNL d   1       0.899  -2.274   7.193  1.00  0.00     0.167 HD
ATOM     12  N   UNL d   1       0.297  -0.995   4.180  0.00  0.00    -0.337 N 
ATOM     13  HN  UNL d   1      -0.225  -0.217   3.777  1.00  0.00     0.168 HD
ENDBRANCH   1   3
BRANCH   1  14
ATOM     14  N   UNL d   1       0.418  -0.465   1.374  0.00  0.00    -0.221 N 
ATOM     15  H   UNL d   1      -0.094   0.200   1.962  0.00  0.00     0.200 HD
BRANCH  14  16
ATOM     16  S   UNL d   1       0.987   0.031  -0.137  0.00  0.00     0.276 S 
ATOM     17  O   UNL d   1       0.788  -1.060  -1.068  0.00  0.00    -0.199 OA
ATOM     18  O   UNL d   1       2.302   0.608   0.058  0.00  0.00    -0.199 OA
BRANCH  16  19
ATOM     19  C   UNL d   1      -0.136   1.339  -0.543  0.00  0.00     0.081 A 
ATOM     20  C   UNL d   1       0.183   2.657  -0.201  0.00  0.00     0.027 A 
ATOM     21  C   UNL d   1      -0.690   3.687  -0.555  0.00  0.00     0.025 A 
ATOM     22  C   UNL d   1      -1.864   3.395  -1.253  0.00  0.00     0.034 A 
ATOM     23  C   UNL d   1      -2.173   2.080  -1.605  0.00  0.00     0.025 A 
ATOM     24 CL   UNL d   1      -2.936   4.668  -1.689  0.00  0.00    -0.084 Cl
ATOM     25  C   UNL d   1      -1.305   1.044  -1.253  0.00  0.00     0.027 A 
ENDBRANCH  16  19
ENDBRANCH  14  16
ENDBRANCH   1  14
TORSDOF 4
