REMARK  2 active torsions:
REMARK  status: ('A' for Active; 'I' for Inactive)
REMARK    1  A    between atoms: C_12  and  C_9 
REMARK    2  A    between atoms: C_14  and  C_10 
ROOT
ATOM      1  N   UNL d   1      -1.732   0.515  -0.013  0.00  0.00    -0.270 N 
ATOM      2  N   UNL d   1      -0.390  -1.409  -0.030  0.00  0.00    -0.289 N 
ATOM      3  C   UNL d   1       0.700   0.768  -0.062  0.00  0.00     0.088 A 
ATOM      4  C   UNL d   1       0.783  -0.623  -0.041  0.00  0.00     0.128 A 
ATOM      5  C   UNL d   1      -1.661  -0.870   0.042  0.00  0.00     0.332 C 
ATOM      6  C   UNL d   1      -0.646   1.333  -0.286  0.00  0.00     0.266 C 
ATOM      7  N   UNL d   1       1.966  -1.284  -0.013  0.00  0.00    -0.341 N 
ATOM      8  HN  UNL d   1       1.985  -2.304  -0.035  1.00  0.00     0.167 HD
ATOM      9  C   UNL d   1       1.887   1.531   0.060  0.00  0.00    -0.004 A 
ATOM     10  C   UNL d   1       3.116  -0.583   0.045  0.00  0.00     0.044 A 
ATOM     11  C   UNL d   1       3.095   0.807   0.117  0.00  0.00     0.043 A 
ATOM     12  O   UNL d   1      -2.667  -1.574   0.132  0.00  0.00    -0.246 OA
ATOM     13  O   UNL d   1      -0.785   2.467  -0.739  0.00  0.00    -0.267 OA
ATOM     14  C   UNL d   1      -3.043   1.143  -0.023  0.00  0.00     0.164 C 
ATOM     15  C   UNL d   1      -0.226  -2.858   0.003  0.00  0.00     0.163 C 
ENDROOT
BRANCH   9  16
ATOM     16  C   UNL d   1       1.966   3.022   0.138  0.00  0.00    -0.025 A 
ATOM     17  C   UNL d   1       1.048   3.790   0.879  0.00  0.00     0.015 A 
ATOM     18  C   UNL d   1       1.089   5.189   0.876  0.00  0.00     0.043 A 
ATOM     19  C   UNL d   1       2.103   5.844   0.196  0.00  0.00     0.116 A 
ATOM     20  C   UNL d   1       3.077   5.126  -0.479  0.00  0.00     0.043 A 
ATOM     21  F   UNL d   1       2.143   7.183   0.189  0.00  0.00    -0.206 F 
ATOM     22  C   UNL d   1       2.998   3.730  -0.520  0.00  0.00     0.015 A 
ENDBRANCH   9  16
BRANCH  10  23
ATOM     23  C   UNL d   1       4.369  -1.366  -0.009  0.00  0.00    -0.006 A 
ATOM     24  C   UNL d   1       4.422  -2.591  -0.701  0.00  0.00     0.056 A 
ATOM     25  C   UNL d   1       5.614  -3.308  -0.796  0.00  0.00     0.117 A 
ATOM     26  F   UNL d   1       5.634  -4.464  -1.473  0.00  0.00    -0.206 F 
ATOM     27  C   UNL d   1       6.782  -2.842  -0.210  0.00  0.00     0.042 A 
ATOM     28  C   UNL d   1       6.757  -1.642   0.492  0.00  0.00     0.004 A 
ATOM     29  C   UNL d   1       5.563  -0.918   0.594  0.00  0.00     0.014 A 
ENDBRANCH  10  23
TORSDOF 2
