REMARK  5 active torsions:
REMARK  status: ('A' for Active; 'I' for Inactive)
REMARK    1  A    between atoms: C_6  and  C_1 
REMARK    2  A    between atoms: C_7  and  C_2 
REMARK    3  A    between atoms: N_9  and  C_3 
REMARK    4  A    between atoms: O_10  and  C_6 
REMARK    5  A    between atoms: C_13  and  O_10 
ROOT
ATOM      1  C   UNL d   1       0.109   1.561   0.112  0.00  0.00     0.084 A 
ATOM      2  C   UNL d   1      -1.313   1.277  -0.017  0.00  0.00    -0.000 A 
ATOM      3  C   UNL d   1       0.861   0.393   0.071  0.00  0.00     0.085 A 
ATOM      4  C   UNL d   1      -1.543  -0.081  -0.138  0.00  0.00     0.065 A 
ATOM      5  S   UNL d   1      -0.114  -1.001  -0.090  0.00  0.00    -0.083 SA
ENDROOT
BRANCH   2   6
ATOM      6  C   UNL d   1      -2.439   2.218  -0.083  0.00  0.00    -0.024 A 
ATOM      7  C   UNL d   1      -2.349   3.390  -0.847  0.00  0.00     0.012 A 
ATOM      8  C   UNL d   1      -3.412   4.295  -0.898  0.00  0.00     0.001 A 
ATOM      9  C   UNL d   1      -4.592   4.025  -0.210  0.00  0.00     0.000 A 
ATOM     10  C   UNL d   1      -4.707   2.853   0.533  0.00  0.00     0.001 A 
ATOM     11  C   UNL d   1      -3.636   1.958   0.603  0.00  0.00     0.012 A 
ENDBRANCH   2   6
BRANCH   1  12
ATOM     12  C   UNL d   1       0.696   2.893   0.281  0.00  0.00     0.297 C 
ATOM     13  O   UNL d   1       0.121   3.824   0.835  0.00  0.00    -0.259 OA
BRANCH  12  14
ATOM     14  O   UNL d   1       1.932   3.010  -0.297  0.00  0.00    -0.318 OA
BRANCH  14  15
ATOM     15  C   UNL d   1       2.484   4.335  -0.310  0.00  0.00     0.174 C 
ATOM     16  C   UNL d   1       3.187   4.634   0.999  0.00  0.00     0.034 C 
ENDBRANCH  14  15
ENDBRANCH  12  14
ENDBRANCH   1  12
BRANCH   3  17
ATOM     17  N   UNL d   1       2.203   0.248   0.158  0.00  0.00    -0.393 N 
ATOM     18  H   UNL d   1       2.802   1.046  -0.049  0.00  0.00     0.156 HD
ATOM     19  H   UNL d   1       2.610  -0.644  -0.109  0.00  0.00     0.156 HD
ENDBRANCH   3  17
TORSDOF 5
