REMARK  12 active torsions:
REMARK  status: ('A' for Active; 'I' for Inactive)
REMARK    1  A    between atoms: C_10  and  N_1 
REMARK    2  A    between atoms: C_5  and  C_2 
REMARK    3  A    between atoms: C_14  and  C_10 
REMARK    4  A    between atoms: C_23  and  C_14 
REMARK    5  A    between atoms: C_16  and  C_17 
REMARK    6  A    between atoms: C_17  and  C_22 
REMARK    7  A    between atoms: C_18  and  C_24 
REMARK    8  A    between atoms: C_19  and  C_18 
REMARK    9  A    between atoms: C_20  and  C_19 
REMARK   10  A    between atoms: C_21  and  C_20 
REMARK   11  A    between atoms: C_22  and  C_21 
REMARK   12  A    between atoms: C_24  and  C_23 
ROOT
ATOM      1  N   UNL d   1      -3.765  -3.322   3.739  0.00  0.00    -0.334 N 
ATOM      2  C   UNL d   1      -5.188  -3.498   3.954  0.00  0.00     0.184 C 
ATOM      3  S   UNL d   1      -5.479  -3.253   5.722  0.00  0.00    -0.129 SA
ATOM      4  C   UNL d   1      -2.958  -3.277   4.868  0.00  0.00     0.230 C 
ATOM      5  C   UNL d   1      -3.740  -3.465   6.148  0.00  0.00     0.179 C 
ATOM      6  O   UNL d   1      -1.738  -3.155   4.849  0.00  0.00    -0.273 OA
ENDROOT
BRANCH   1   7
ATOM      7  C   UNL d   1      -3.184  -3.421   2.401  0.00  0.00     0.127 C 
BRANCH   7   8
ATOM      8  C   UNL d   1      -2.375  -4.702   2.242  0.00  0.00     0.020 C 
BRANCH   8   9
ATOM      9  C   UNL d   1      -1.680  -4.820   0.891  0.00  0.00     0.002 C 
BRANCH   9  10
ATOM     10  C   UNL d   1      -0.725  -6.015   0.880  0.00  0.00     0.000 C 
BRANCH  10  11
ATOM     11  C   UNL d   1      -1.390  -7.370   1.162  0.00  0.00     0.000 C 
BRANCH  11  12
ATOM     12  C   UNL d   1      -2.495  -7.747   0.171  0.00  0.00     0.000 C 
BRANCH  12  13
ATOM     13  C   UNL d   1      -1.934  -7.920  -1.236  0.00  0.00     0.000 C 
BRANCH  13  14
ATOM     14  C   UNL d   1      -3.010  -8.238  -2.266  0.00  0.00     0.000 C 
BRANCH  14  15
ATOM     15  C   UNL d   1      -2.352  -8.421  -3.634  0.00  0.00     0.000 C 
BRANCH  15  16
ATOM     16  C   UNL d   1      -3.374  -8.727  -4.718  0.00  0.00    -0.000 C 
BRANCH  16  17
ATOM     17  C   UNL d   1      -2.681  -8.932  -6.064  0.00  0.00    -0.005 C 
ATOM     18  C   UNL d   1      -3.688  -9.255  -7.155  0.00  0.00     0.005 C 
ENDBRANCH  16  17
ENDBRANCH  15  16
ENDBRANCH  14  15
ENDBRANCH  13  14
ENDBRANCH  12  13
ENDBRANCH  11  12
ENDBRANCH  10  11
ENDBRANCH   9  10
ENDBRANCH   8   9
ENDBRANCH   7   8
ENDBRANCH   1   7
BRANCH   2  19
ATOM     19  C   UNL d   1      -6.029  -2.581   3.104  0.00  0.00    -0.010 A 
ATOM     20  C   UNL d   1      -7.087  -3.089   2.355  0.00  0.00     0.097 A 
ATOM     21  N   UNL d   1      -7.826  -2.362   1.488  0.00  0.00    -0.375 N 
ATOM     22  C   UNL d   1      -7.510  -1.054   1.368  0.00  0.00     0.087 A 
ATOM     23  HN  UNL d   1      -8.586  -2.780   0.951  1.00  0.00     0.164 HD
ATOM     24  C   UNL d   1      -6.501  -0.438   2.087  0.00  0.00     0.018 A 
ATOM     25  C   UNL d   1      -5.757  -1.211   2.972  0.00  0.00     0.013 A 
ENDBRANCH   2  19
TORSDOF 12
