REMARK  4 active torsions:
REMARK  status: ('A' for Active; 'I' for Inactive)
REMARK    1  A    between atoms: N_3  and  C_1 
REMARK    2  A    between atoms: C_2  and  C_4 
REMARK    3  A    between atoms: N_7  and  N_3 
REMARK       I    between atoms: C_4  and  N_7 
REMARK    4  A    between atoms: N_15  and  C_11 
ROOT
ATOM      1  C   UNL d   1       0.143   5.128  -0.036  0.00  0.00     0.268 C 
ATOM      2  N   UNL d   1      -0.155   3.794  -0.267  0.00  0.00    -0.282 N 
ATOM      3  O   UNL d   1      -0.717   5.966   0.227  0.00  0.00    -0.266 OA
ATOM      4  H   UNL d   1       0.510   3.223  -0.794  0.00  0.00     0.184 HD
ENDROOT
BRANCH   2   5
ATOM      5  N   UNL d   1      -1.515   3.453  -0.389  0.00  0.00    -0.200 NA
ATOM      6  H   UNL d   1      -2.093   4.196   0.037  0.00  0.00     0.153 HD
BRANCH   5   7
ATOM      7  C   UNL d   1      -1.857   2.176   0.151  0.00  0.00     0.071 A 
ATOM      8  C   UNL d   1      -3.070   2.036   0.867  0.00  0.00     0.060 A 
ATOM      9  C   UNL d   1      -3.522   0.795   1.326  0.00  0.00     0.049 A 
ATOM     10 CL   UNL d   1      -4.054   3.420   1.217  0.00  0.00    -0.082 Cl
ATOM     11  C   UNL d   1      -2.774  -0.344   1.066  0.00  0.00     0.037 A 
ATOM     12  C   UNL d   1      -1.584  -0.255   0.354  0.00  0.00     0.049 A 
ATOM     13 CL   UNL d   1      -3.334  -1.880   1.601  0.00  0.00    -0.084 Cl
ATOM     14  C   UNL d   1      -1.136   0.989  -0.114  0.00  0.00     0.060 A 
ATOM     15 CL   UNL d   1       0.303   0.954  -1.081  0.00  0.00    -0.082 Cl
ENDBRANCH   5   7
ENDBRANCH   2   5
BRANCH   1  16
ATOM     16  C   UNL d   1       1.583   5.505  -0.129  0.00  0.00     0.054 A 
ATOM     17  C   UNL d   1       2.630   4.640   0.249  0.00  0.00     0.021 A 
ATOM     18  C   UNL d   1       3.951   5.088   0.091  0.00  0.00     0.024 A 
ATOM     19  C   UNL d   1       4.229   6.392  -0.324  0.00  0.00     0.002 A 
ATOM     20  C   UNL d   1       3.189   7.257  -0.645  0.00  0.00     0.001 A 
ATOM     21  C   UNL d   1       1.869   6.815  -0.553  0.00  0.00     0.019 A 
BRANCH  17  22
ATOM     22  N   UNL d   1       2.430   3.283   0.581  0.00  0.00    -0.302 NA
ATOM     23  H   UNL d   1       1.541   3.112   1.049  0.00  0.00     0.124 HD
ATOM     24  H   UNL d   1       3.201   2.876   1.100  0.00  0.00     0.124 HD
ENDBRANCH  17  22
ENDBRANCH   1  16
TORSDOF 4
