REMARK  2 active torsions:
REMARK  status: ('A' for Active; 'I' for Inactive)
REMARK    1  A    between atoms: C_3  and  N_1 
REMARK    2  A    between atoms: N_2  and  C_7 
ROOT
ATOM      1  C   UNL d   1       0.055   2.320  -0.008  0.00  0.00     0.048 A 
ATOM      2  C   UNL d   1      -0.621   3.037   0.993  0.00  0.00     0.066 A 
ATOM      3  C   UNL d   1      -0.527   4.439   1.054  0.00  0.00     0.105 A 
ATOM      4  C   UNL d   1       0.787   3.054  -0.957  0.00  0.00     0.030 A 
ATOM      5  C   UNL d   1       0.204   5.150   0.098  0.00  0.00     0.036 A 
ATOM      6  C   UNL d   1       0.854   4.452  -0.913  0.00  0.00     0.005 A 
ENDROOT
BRANCH   1   7
ATOM      7  N   UNL d   1       0.024   0.897  -0.044  0.00  0.00    -0.245 N 
ATOM      8  C   UNL d   1      -0.907   0.104   0.570  0.00  0.00     0.255 A 
ATOM      9  C   UNL d   1      -0.538  -1.293   0.317  0.00  0.00     0.080 A 
ATOM     10  O   UNL d   1      -1.915   0.390   1.193  0.00  0.00    -0.268 OA
ATOM     11  C   UNL d   1       0.564  -1.295  -0.428  0.00  0.00     0.080 A 
ATOM     12  C   UNL d   1       0.941   0.101  -0.675  0.00  0.00     0.255 A 
ATOM     13  O   UNL d   1       1.947   0.380  -1.307  0.00  0.00    -0.268 OA
ENDBRANCH   1   7
BRANCH   3  14
ATOM     14  N   UNL d   1      -1.172   5.165   2.156  0.00  0.00    -0.116 N 
ATOM     15  O   UNL d   1      -1.760   4.501   3.021  0.00  0.00    -0.532 OA
ATOM     16  O   UNL d   1      -1.076   6.400   2.165  0.00  0.00    -0.532 OA
ENDBRANCH   3  14
TORSDOF 2
