REMARK  5 active torsions:
REMARK  status: ('A' for Active; 'I' for Inactive)
REMARK    1  A    between atoms: S_10  and  C_1 
REMARK    2  A    between atoms: C_7  and  C_3 
REMARK    3  A    between atoms: O_17  and  C_7 
REMARK    4  A    between atoms: C_15  and  S_10 
REMARK    5  A    between atoms: C_25  and  O_17 
ROOT
ATOM      1  C   UNL d   1       1.338  -1.438  -0.093  0.00  0.00     0.036 A 
ATOM      2  C   UNL d   1       0.073  -0.776   0.004  0.00  0.00     0.015 A 
ATOM      3  C   UNL d   1       2.510  -0.671  -0.205  0.00  0.00     0.072 A 
ATOM      4  C   UNL d   1       0.074   0.641   0.029  0.00  0.00     0.083 A 
ATOM      5  N   UNL d   1       1.214   1.355  -0.012  0.00  0.00    -0.362 N 
ATOM      6  HN  UNL d   1       1.189   2.373   0.042  1.00  0.00     0.165 HD
ATOM      7  C   UNL d   1       2.391   0.705  -0.126  0.00  0.00     0.107 A 
ATOM      8  C   UNL d   1      -1.150   1.314   0.090  0.00  0.00     0.146 A 
ATOM      9  C   UNL d   1      -2.373   0.655   0.116  0.00  0.00     0.086 A 
ATOM     10  C   UNL d   1      -1.185  -1.436   0.054  0.00  0.00     0.057 A 
ATOM     11  C   UNL d   1      -2.377  -0.723   0.099  0.00  0.00     0.120 A 
ATOM     12  F   UNL d   1      -1.170   2.658   0.108  0.00  0.00    -0.204 F 
ATOM     13  F   UNL d   1      -3.542  -1.383   0.112  0.00  0.00    -0.206 F 
ENDROOT
BRANCH   1  14
ATOM     14  S   UNL d   1       1.430  -3.234   0.049  0.00  0.00    -0.089 SA
BRANCH  14  15
ATOM     15  C   UNL d   1       1.113  -3.839  -1.605  0.00  0.00     0.005 A 
ATOM     16  C   UNL d   1       1.016  -3.026  -2.740  0.00  0.00     0.020 A 
ATOM     17  C   UNL d   1       0.762  -3.585  -3.999  0.00  0.00     0.025 A 
ATOM     18  C   UNL d   1       0.608  -4.961  -4.128  0.00  0.00     0.034 A 
ATOM     19  C   UNL d   1       0.716  -5.786  -3.014  0.00  0.00     0.025 A 
ATOM     20 CL   UNL d   1       0.283  -5.643  -5.673  0.00  0.00    -0.084 Cl
ATOM     21  C   UNL d   1       0.970  -5.226  -1.757  0.00  0.00     0.020 A 
ENDBRANCH  14  15
ENDBRANCH   1  14
BRANCH   3  22
ATOM     22  C   UNL d   1       3.875  -1.175  -0.454  0.00  0.00     0.296 C 
ATOM     23  O   UNL d   1       4.878  -0.660   0.014  0.00  0.00    -0.259 OA
BRANCH  22  24
ATOM     24  O   UNL d   1       3.833  -2.154  -1.384  0.00  0.00    -0.318 OA
BRANCH  24  25
ATOM     25  C   UNL d   1       5.087  -2.689  -1.830  0.00  0.00     0.174 C 
ATOM     26  C   UNL d   1       5.680  -3.633  -0.800  0.00  0.00     0.034 C 
ENDBRANCH  24  25
ENDBRANCH  22  24
ENDBRANCH   3  22
TORSDOF 5
