REMARK  4 active torsions:
REMARK  status: ('A' for Active; 'I' for Inactive)
REMARK    1  A    between atoms: N_8  and  C_1 
REMARK    2  A    between atoms: C_10  and  N_8 
REMARK    3  A    between atoms: C_9  and  C_10 
REMARK    4  A    between atoms: O_14  and  C_9 
ROOT
ATOM      1  C   UNL d   1      -0.755   2.265  -1.175  0.00  0.00     0.186 C 
ATOM      2  N   UNL d   1       1.367   1.746  -2.291  0.00  0.00    -0.296 N 
ATOM      3  C   UNL d   1       0.617   1.570  -1.165  0.00  0.00     0.292 C 
ATOM      4  N   UNL d   1      -1.216   2.781  -2.279  0.00  0.00    -0.279 N 
ATOM      5  HN  UNL d   1      -2.145   3.201  -2.312  1.00  0.00     0.189 HD
ATOM      6  C   UNL d   1       0.867   2.299  -3.423  0.00  0.00     0.193 C 
ATOM      7  N   UNL d   1      -0.422   2.746  -3.387  0.00  0.00    -0.274 N 
ATOM      8  S   UNL d   1       1.786   2.413  -4.805  0.00  0.00    -0.039 SA
ATOM      9  O   UNL d   1       0.954   0.893  -0.204  0.00  0.00    -0.264 OA
ATOM     10  H   UNL d   1       2.284   1.327  -2.313  0.00  0.00     0.171 HD
ATOM     11  H   UNL d   1      -0.810   3.173  -4.225  0.00  0.00     0.189 HD
ENDROOT
BRANCH   1  12
ATOM     12  N   UNL d   1      -1.447   2.308   0.019  0.00  0.00    -0.357 N 
ATOM     13  H   UNL d   1      -1.060   1.723   0.766  0.00  0.00     0.162 HD
BRANCH  12  14
ATOM     14  C   UNL d   1      -2.900   2.490   0.088  0.00  0.00     0.179 C 
ATOM     15  C   UNL d   1      -3.247   3.973   0.002  0.00  0.00     0.043 C 
BRANCH  14  16
ATOM     16  C   UNL d   1      -3.432   1.907   1.405  0.00  0.00     0.281 C 
ATOM     17  O   UNL d   1      -2.736   1.325   2.234  0.00  0.00    -0.263 OA
BRANCH  16  18
ATOM     18  O   UNL d   1      -4.779   2.091   1.506  0.00  0.00    -0.325 OA
ATOM     19  C   UNL d   1      -5.363   1.621   2.722  0.00  0.00     0.213 C 
ENDBRANCH  16  18
ENDBRANCH  14  16
ENDBRANCH  12  14
ENDBRANCH   1  12
TORSDOF 4
