REMARK  5 active torsions:
REMARK  status: ('A' for Active; 'I' for Inactive)
REMARK    1  A    between atoms: C_8  and  C_1 
REMARK    2  A    between atoms: C_6  and  O_10 
REMARK    3  A    between atoms: C_7  and  C_8 
REMARK       I    between atoms: N_9  and  C_7 
REMARK    4  A    between atoms: C_15  and  N_9 
REMARK    5  A    between atoms: O_10  and  C_16 
ROOT
ATOM      1  C   UNL d   1       3.209  -2.463   0.977  0.00  0.00     0.226 C 
ATOM      2  N   UNL d   1       4.321  -2.521   0.142  0.00  0.00    -0.327 N 
ATOM      3  O   UNL d   1       3.234  -2.266   2.186  0.00  0.00    -0.273 OA
ATOM      4  H   UNL d   1       4.138  -2.590  -0.853  0.00  0.00     0.169 HD
ENDROOT
BRANCH   1   5
ATOM      5  C   UNL d   1       1.884  -2.688   0.268  0.00  0.00     0.145 C 
BRANCH   5   6
ATOM      6  C   UNL d   1       1.473  -1.585  -0.655  0.00  0.00    -0.007 C 
ATOM      7  C   UNL d   1       0.579  -1.706  -1.710  0.00  0.00     0.057 C 
ATOM      8  O   UNL d   1       0.522  -0.551  -2.426  0.00  0.00    -0.314 OA
ATOM      9  C   UNL d   1      -0.308  -2.790  -2.184  0.00  0.00     0.077 C 
ATOM     10  C   UNL d   1       1.297   0.359  -1.782  0.00  0.00     0.086 A 
ATOM     11  C   UNL d   1       1.843  -0.200  -0.632  0.00  0.00     0.007 A 
ATOM     12  C   UNL d   1       1.507   1.673  -2.197  0.00  0.00     0.038 A 
ATOM     13  C   UNL d   1       2.586   0.643   0.217  0.00  0.00     0.015 A 
ATOM     14  C   UNL d   1       2.791   1.980  -0.156  0.00  0.00     0.001 A 
ATOM     15  C   UNL d   1       2.280   2.478  -1.356  0.00  0.00     0.003 A 
ENDBRANCH   5   6
ENDBRANCH   1   5
BRANCH   2  16
ATOM     16  C   UNL d   1       5.674  -2.365   0.519  0.00  0.00     0.034 A 
ATOM     17  C   UNL d   1       6.107  -2.271   1.844  0.00  0.00     0.032 A 
ATOM     18  C   UNL d   1       7.465  -2.095   2.158  0.00  0.00     0.039 A 
ATOM     19  C   UNL d   1       8.419  -2.045   1.147  0.00  0.00     0.078 A 
ATOM     20  C   UNL d   1       7.992  -2.140  -0.180  0.00  0.00     0.039 A 
ATOM     21  C   UNL d   1       6.635  -2.304  -0.495  0.00  0.00     0.032 A 
BRANCH  19  22
ATOM     22  O   UNL d   1       9.768  -1.926   1.298  0.00  0.00    -0.255 OA
BRANCH  22  23
ATOM     23  C   UNL d   1      10.316  -1.947   2.605  0.00  0.00     0.530 C 
ATOM     24  F   UNL d   1       9.808  -2.946   3.359  0.00  0.00    -0.144 F 
ATOM     25  F   UNL d   1      11.650  -2.149   2.505  0.00  0.00    -0.144 F 
ATOM     26  F   UNL d   1      10.116  -0.766   3.226  0.00  0.00    -0.144 F 
ENDBRANCH  22  23
ENDBRANCH  19  22
ENDBRANCH   2  16
TORSDOF 5
