REMARK  2 active torsions:
REMARK  status: ('A' for Active; 'I' for Inactive)
REMARK    1  A    between atoms: C_2  and  C_1 
REMARK       I    between atoms: N_3  and  C_2 
REMARK    2  A    between atoms: C_4  and  N_3 
ROOT
ATOM      1  C   UNL d   1      -0.465   1.778   1.627  0.00  0.00     0.062 A 
ATOM      2  C   UNL d   1      -0.377   2.795   2.593  0.00  0.00     0.069 A 
ATOM      3  N   UNL d   1       0.128   2.516   3.820  0.00  0.00    -0.363 N 
ATOM      4  HN  UNL d   1       0.425   1.571   4.063  1.00  0.00     0.165 HD
ATOM      5  C   UNL d   1      -0.803   4.093   2.243  0.00  0.00    -0.007 A 
ATOM      6  C   UNL d   1      -1.000   2.038   0.361  0.00  0.00     0.032 A 
ATOM      7  C   UNL d   1      -1.432   3.321   0.034  0.00  0.00     0.003 A 
ATOM      8  C   UNL d   1       0.227   3.526   4.712  0.00  0.00     0.088 A 
ATOM      9  C   UNL d   1      -1.328   4.349   0.966  0.00  0.00     0.014 A 
ATOM     10  C   UNL d   1      -0.675   5.113   3.194  0.00  0.00     0.015 A 
ATOM     11  C   UNL d   1      -0.151   4.829   4.449  0.00  0.00     0.018 A 
ENDROOT
BRANCH   1  12
ATOM     12  N   UNL d   1       0.020   0.507   2.023  0.00  0.00    -0.321 N 
ATOM     13  C   UNL d   1       0.267  -0.609   1.229  0.00  0.00     0.277 C 
ATOM     14  O   UNL d   1       0.126  -0.609   0.004  0.00  0.00    -0.268 OA
ATOM     15  H   UNL d   1       0.301   0.483   3.006  0.00  0.00     0.169 HD
BRANCH  13  16
ATOM     16  C   UNL d   1       0.833  -1.833   1.995  0.00  0.00     0.269 C 
ATOM     17 CL   UNL d   1       0.020  -2.008   3.579  0.00  0.00    -0.073 Cl
ATOM     18 CL   UNL d   1       2.578  -1.559   2.250  0.00  0.00    -0.073 Cl
ATOM     19 CL   UNL d   1       0.584  -3.327   1.054  0.00  0.00    -0.073 Cl
ENDBRANCH  13  16
ENDBRANCH   1  12
TORSDOF 2
