REMARK  4 active torsions:
REMARK  status: ('A' for Active; 'I' for Inactive)
REMARK    1  A    between atoms: C_4  and  C_1 
REMARK    2  A    between atoms: C_8  and  C_4 
REMARK    3  A    between atoms: C_9  and  C_4 
REMARK    4  A    between atoms: N_7  and  C_9 
ROOT
ATOM      1  C   UNL d   1       3.290  -0.038   0.858  0.00  0.00     0.065 C 
ENDROOT
BRANCH   1   2
ATOM      2  C   UNL d   1       2.121  -0.033  -0.161  0.00  0.00     0.146 A 
ATOM      3  C   UNL d   1       1.279   1.234  -0.094  0.00  0.00     0.172 A 
ATOM      4  C   UNL d   1       1.176   1.811  -1.435  0.00  0.00     0.024 A 
ATOM      5  O   UNL d   1       0.797   1.736   0.904  0.00  0.00    -0.291 OA
ATOM      6  C   UNL d   1       0.494   2.942  -1.844  0.00  0.00     0.016 A 
ATOM      7  C   UNL d   1       1.912   1.047  -2.327  0.00  0.00     0.024 A 
ATOM      8  C   UNL d   1       0.575   3.292  -3.196  0.00  0.00     0.001 A 
ATOM      9  C   UNL d   1       1.332   2.519  -4.098  0.00  0.00     0.001 A 
ATOM     10  C   UNL d   1       2.012   1.379  -3.665  0.00  0.00     0.016 A 
ATOM     11  C   UNL d   1       2.489  -0.102  -1.636  0.00  0.00     0.172 A 
ATOM     12  O   UNL d   1       3.090  -0.989  -2.209  0.00  0.00    -0.291 OA
ENDBRANCH   1   2
BRANCH   1  13
ATOM     13  C   UNL d   1       4.108  -1.341   0.764  0.00  0.00    -0.008 A 
ATOM     14  C   UNL d   1       5.255  -1.510  -0.046  0.00  0.00     0.042 A 
ATOM     15 CL   UNL d   1       5.920  -0.270  -1.053  0.00  0.00    -0.084 Cl
ATOM     16  C   UNL d   1       5.940  -2.735  -0.101  0.00  0.00     0.024 A 
ATOM     17  C   UNL d   1       5.513  -3.824   0.645  0.00  0.00     0.003 A 
ATOM     18  C   UNL d   1       4.391  -3.695   1.449  0.00  0.00     0.024 A 
ATOM     19  C   UNL d   1       3.693  -2.480   1.503  0.00  0.00     0.042 A 
ATOM     20 CL   UNL d   1       2.286  -2.478   2.519  0.00  0.00    -0.084 Cl
ENDBRANCH   1  13
BRANCH   1  21
ATOM     21  C   UNL d   1       4.046   1.307   0.934  0.00  0.00     0.212 C 
BRANCH  21  22
ATOM     22  N   UNL d   1       5.154   1.268   1.954  0.00  0.00    -0.155 N 
ATOM     23  O   UNL d   1       4.927   0.714   3.036  0.00  0.00    -0.537 OA
ATOM     24  O   UNL d   1       6.205   1.846   1.650  0.00  0.00    -0.537 OA
ENDBRANCH  21  22
ENDBRANCH   1  21
TORSDOF 4
