REMARK  7 active torsions:
REMARK  status: ('A' for Active; 'I' for Inactive)
REMARK    1  A    between atoms: N_2  and  C_1 
REMARK    2  A    between atoms: C_3  and  N_2 
REMARK    3  A    between atoms: C_4  and  C_6 
REMARK    4  A    between atoms: O_11  and  C_4 
REMARK    5  A    between atoms: C_6  and  C_10 
REMARK    6  A    between atoms: O_12  and  C_7 
REMARK    7  A    between atoms: C_10  and  N_8 
ROOT
ATOM      1  C   UNL d   1       1.452  -0.107   0.531  0.00  0.00     0.172 C 
ATOM      2  S   UNL d   1       3.064  -0.319   0.129  0.00  0.00    -0.041 SA
ATOM      3  N   UNL d   1       0.831  -1.211   1.033  0.00  0.00    -0.366 N 
ATOM      4  H   UNL d   1       1.472  -1.988   1.161  0.00  0.00     0.161 HD
ENDROOT
BRANCH   1   5
ATOM      5  N   UNL d   1       0.680   1.014   0.380  0.00  0.00    -0.331 N 
ATOM      6  H   UNL d   1      -0.261   0.835   0.065  0.00  0.00     0.168 HD
BRANCH   5   7
ATOM      7  C   UNL d   1       1.106   2.357   0.205  0.00  0.00     0.068 A 
ATOM      8  C   UNL d   1       0.309   3.251  -0.532  0.00  0.00     0.095 A 
ATOM      9  C   UNL d   1       0.762   4.549  -0.798  0.00  0.00     0.039 A 
ATOM     10  C   UNL d   1       1.986   4.984  -0.287  0.00  0.00     0.003 A 
ATOM     11  C   UNL d   1       2.744   4.131   0.509  0.00  0.00     0.002 A 
ATOM     12  C   UNL d   1       2.295   2.834   0.768  0.00  0.00     0.032 A 
BRANCH   8  13
ATOM     13  O   UNL d   1      -0.857   2.863  -1.145  0.00  0.00    -0.354 OA
ATOM     14  C   UNL d   1      -1.945   2.720  -0.231  0.00  0.00     0.210 C 
ENDBRANCH   8  13
ENDBRANCH   5   7
ENDBRANCH   1   5
BRANCH   3  15
ATOM     15  C   UNL d   1      -0.563  -1.461   1.373  0.00  0.00     0.132 C 
BRANCH  15  16
ATOM     16  C   UNL d   1      -1.172  -2.390   0.331  0.00  0.00     0.129 C 
BRANCH  16  17
ATOM     17  C   UNL d   1      -2.584  -2.760   0.679  0.00  0.00     0.140 C 
ATOM     18  O   UNL d   1      -3.222  -2.295   1.615  0.00  0.00    -0.650 OA
BRANCH  17  19
ATOM     19  O   UNL d   1      -3.107  -3.673  -0.171  0.00  0.00    -0.776 OA
ATOM     20  H   UNL d   1      -2.495  -3.961  -0.876  0.00  0.00     0.167 HD
ENDBRANCH  17  19
ENDBRANCH  16  17
ENDBRANCH  15  16
ENDBRANCH   3  15
TORSDOF 7
