REMARK  4 active torsions:
REMARK  status: ('A' for Active; 'I' for Inactive)
REMARK    1  A    between atoms: C_5  and  C_1 
REMARK    2  A    between atoms: N_14  and  C_2 
REMARK    3  A    between atoms: C_7  and  C_21 
REMARK       I    between atoms: C_15  and  N_14 
REMARK       I    between atoms: N_20  and  C_15 
REMARK    4  A    between atoms: N_16  and  N_20 
ROOT
ATOM      1  N   UNL d   1       4.060  -3.779   0.266  0.00  0.00    -0.205 NA
ATOM      2  C   UNL d   1       3.622  -2.492   0.459  0.00  0.00     0.317 C 
ATOM      3  N   UNL d   1       2.855  -1.930  -0.550  0.00  0.00    -0.256 N 
ATOM      4  O   UNL d   1       4.045  -1.887   1.450  0.00  0.00    -0.252 OA
ATOM      5  H   UNL d   1       4.621  -3.950   1.097  0.00  0.00     0.138 HD
ATOM      6  H   UNL d   1       2.263  -2.570  -1.068  0.00  0.00     0.191 HD
ENDROOT
BRANCH   1   7
ATOM      7  C   UNL d   1       3.206  -4.870   0.042  0.00  0.00     0.078 C 
ATOM      8  C   UNL d   1       3.154  -5.787  -1.072  0.00  0.00     0.092 C 
ATOM      9  N   UNL d   1       2.286  -6.778  -0.792  0.00  0.00    -0.258 N 
ATOM     10  O   UNL d   1       1.908  -6.626   0.508  0.00  0.00    -0.240 OA
ATOM     11  HN  UNL d   1       1.970  -7.506  -1.433  1.00  0.00     0.195 HD
ATOM     12  C   UNL d   1       2.541  -5.556   1.042  0.00  0.00     0.096 C 
ATOM     13  C   UNL d   1       2.466  -5.480   2.513  0.00  0.00     0.081 C 
BRANCH   8  14
ATOM     14  C   UNL d   1       3.961  -5.912  -2.301  0.00  0.00     0.038 A 
ATOM     15  C   UNL d   1       5.370  -5.823  -2.279  0.00  0.00     0.048 A 
ATOM     16 CL   UNL d   1       6.308  -5.457  -0.865  0.00  0.00    -0.083 Cl
ATOM     17  C   UNL d   1       6.139  -6.137  -3.412  0.00  0.00     0.025 A 
ATOM     18  C   UNL d   1       5.537  -6.602  -4.574  0.00  0.00     0.003 A 
ATOM     19  C   UNL d   1       4.154  -6.707  -4.622  0.00  0.00     0.025 A 
ATOM     20  C   UNL d   1       3.370  -6.343  -3.513  0.00  0.00     0.048 A 
ATOM     21 CL   UNL d   1       1.654  -6.461  -3.757  0.00  0.00    -0.083 Cl
ENDBRANCH   8  14
ENDBRANCH   1   7
BRANCH   3  22
ATOM     22  N   UNL d   1       2.392  -0.615  -0.546  0.00  0.00    -0.307 N 
ATOM     23  C   UNL d   1       3.205   0.319  -0.136  0.00  0.00     0.119 C 
ATOM     24  HN  UNL d   1       1.446  -0.390  -0.855  1.00  0.00     0.186 HD
BRANCH  23  25
ATOM     25  C   UNL d   1       2.890   1.798  -0.011  0.00  0.00    -0.006 C 
ATOM     26  C   UNL d   1       1.797   2.398  -0.687  0.00  0.00    -0.043 C 
ATOM     27  C   UNL d   1       1.719   3.820  -0.785  0.00  0.00    -0.049 C 
ATOM     28  C   UNL d   1       0.696   1.578  -1.318  0.00  0.00     0.049 C 
ATOM     29  C   UNL d   1       0.723   4.470  -1.730  0.00  0.00     0.049 C 
ATOM     30  C   UNL d   1       2.542   4.644   0.024  0.00  0.00    -0.049 C 
ATOM     31  C   UNL d   1       3.499   4.038   0.866  0.00  0.00    -0.049 C 
ATOM     32  C   UNL d   1       2.321   6.144  -0.002  0.00  0.00     0.049 C 
ATOM     33  C   UNL d   1       3.750   2.628   0.767  0.00  0.00    -0.043 C 
ATOM     34  C   UNL d   1       4.295   4.859   1.865  0.00  0.00     0.049 C 
ATOM     35  C   UNL d   1       4.896   2.078   1.595  0.00  0.00     0.049 C 
ENDBRANCH  23  25
ENDBRANCH   3  22
TORSDOF 4
