REMARK  4 active torsions:
REMARK  status: ('A' for Active; 'I' for Inactive)
REMARK    1  A    between atoms: C_8  and  C_3 
REMARK    2  A    between atoms: C_9  and  C_4 
REMARK    3  A    between atoms: O_12  and  C_8 
REMARK    4  A    between atoms: C_17  and  O_12 
ROOT
ATOM      1  N   UNL d   1       1.303   0.107  -0.120  0.00  0.00    -0.314 N 
ATOM      2  HN  UNL d   1       2.311   0.228  -0.212  1.00  0.00     0.170 HD
ATOM      3  C   UNL d   1       0.606  -1.015  -0.059  0.00  0.00     0.247 A 
ATOM      4  C   UNL d   1       0.322   1.073  -0.028  0.00  0.00     0.138 A 
ATOM      5  N   UNL d   1      -0.922   0.575   0.068  0.00  0.00    -0.242 N 
ATOM      6  HN  UNL d   1      -1.801   1.088   0.140  1.00  0.00     0.196 HD
ATOM      7  O   UNL d   1      -0.733  -0.804   0.046  0.00  0.00    -0.211 OA
ENDROOT
BRANCH   4   8
ATOM      8  C   UNL d   1       0.628   2.500  -0.025  0.00  0.00     0.010 A 
ATOM      9  C   UNL d   1       1.956   2.944  -0.140  0.00  0.00     0.022 A 
ATOM     10  C   UNL d   1       2.259   4.313  -0.149  0.00  0.00    -0.061 A 
ATOM     11  C   UNL d   1       3.675   4.790  -0.278  0.00  0.00     0.048 C 
ATOM     12  C   UNL d   1       1.220   5.243  -0.033  0.00  0.00     0.007 A 
ATOM     13  C   UNL d   1      -0.101   4.816   0.088  0.00  0.00     0.002 A 
ATOM     14  C   UNL d   1      -0.396   3.451   0.091  0.00  0.00     0.015 A 
ENDBRANCH   4   8
BRANCH   3  15
ATOM     15  C   UNL d   1       1.095  -2.367   0.013  0.00  0.00     0.337 C 
ATOM     16  O   UNL d   1       0.403  -3.372   0.141  0.00  0.00    -0.255 OA
BRANCH  15  17
ATOM     17  O   UNL d   1       2.458  -2.368   0.027  0.00  0.00    -0.315 OA
BRANCH  17  18
ATOM     18  C   UNL d   1       3.063  -3.531   0.608  0.00  0.00     0.175 C 
ATOM     19  C   UNL d   1       3.160  -3.302   2.105  0.00  0.00     0.034 C 
ENDBRANCH  17  18
ENDBRANCH  15  17
ENDBRANCH   3  15
TORSDOF 4
