REMARK  2 active torsions:
REMARK  status: ('A' for Active; 'I' for Inactive)
REMARK       I    between atoms: C_2  and  N_1 
REMARK       I    between atoms: C_3  and  N_1 
REMARK       I    between atoms: N_5  and  C_2 
REMARK    1  A    between atoms: C_4  and  C_3 
REMARK    2  A    between atoms: C_10  and  N_5 
ROOT
ATOM      1  N   UNL d   1       1.255  -0.281   0.019  0.00  0.00    -0.275 N 
ATOM      2  C   UNL d   1       0.424  -1.067  -0.747  0.00  0.00     0.327 C 
ATOM      3  C   UNL d   1       2.618  -0.397   0.215  0.00  0.00     0.259 C 
ATOM      4  N   UNL d   1       1.030  -2.056  -1.472  0.00  0.00    -0.309 N 
ATOM      5  O   UNL d   1      -0.774  -0.793  -0.731  0.00  0.00    -0.247 OA
ATOM      6  O   UNL d   1       3.285  -1.307  -0.270  0.00  0.00    -0.267 OA
ATOM      7  H   UNL d   1       0.734   0.476   0.430  0.00  0.00     0.173 HD
ATOM      8  H   UNL d   1       2.009  -2.225  -1.240  0.00  0.00     0.170 HD
ENDROOT
BRANCH   3   9
ATOM      9  C   UNL d   1       3.284   0.645   1.060  0.00  0.00     0.034 A 
ATOM     10  C   UNL d   1       4.689   0.634   1.102  0.00  0.00     0.044 A 
ATOM     11  C   UNL d   1       5.382   1.581   1.859  0.00  0.00     0.073 A 
ATOM     12 CL   UNL d   1       7.101   1.548   1.886  0.00  0.00    -0.081 Cl
ATOM     13  C   UNL d   1       4.677   2.540   2.580  0.00  0.00     0.138 A 
ATOM     14  C   UNL d   1       3.287   2.556   2.562  0.00  0.00     0.045 A 
ATOM     15  F   UNL d   1       5.322   3.463   3.308  0.00  0.00    -0.204 F 
ATOM     16  C   UNL d   1       2.586   1.608   1.806  0.00  0.00     0.020 A 
ENDBRANCH   3   9
BRANCH   4  17
ATOM     17  C   UNL d   1       0.467  -2.811  -2.521  0.00  0.00     0.038 A 
ATOM     18  C   UNL d   1      -0.812  -2.574  -3.034  0.00  0.00     0.056 A 
ATOM     19  C   UNL d   1      -1.273  -3.285  -4.143  0.00  0.00     0.074 A 
ATOM     20 CL   UNL d   1      -2.833  -2.934  -4.783  0.00  0.00    -0.081 Cl
ATOM     21  C   UNL d   1      -0.464  -4.248  -4.735  0.00  0.00     0.138 A 
ATOM     22  C   UNL d   1       0.800  -4.518  -4.219  0.00  0.00     0.046 A 
ATOM     23  F   UNL d   1      -0.879  -4.923  -5.817  0.00  0.00    -0.204 F 
ATOM     24  C   UNL d   1       1.266  -3.800  -3.114  0.00  0.00     0.032 A 
ENDBRANCH   4  17
TORSDOF 2
