REMARK  3 active torsions:
REMARK  status: ('A' for Active; 'I' for Inactive)
REMARK    1  A    between atoms: C_13  and  C_3 
REMARK    2  A    between atoms: C_15  and  C_4 
REMARK    3  A    between atoms: C_7  and  C_14 
ROOT
ATOM      1  N   UNL d   1       1.402  -0.599  -0.021  0.00  0.00    -0.349 N 
ATOM      2  HN  UNL d   1       2.286  -1.107  -0.036  1.00  0.00     0.166 HD
ATOM      3  C   UNL d   1       0.209  -1.161  -0.030  0.00  0.00     0.084 A 
ATOM      4  C   UNL d   1       1.284   0.783   0.011  0.00  0.00     0.050 A 
ATOM      5  S   UNL d   1      -1.113  -0.052   0.041  0.00  0.00    -0.081 SA
ATOM      6  C   UNL d   1      -0.014   1.252   0.035  0.00  0.00     0.082 A 
ENDROOT
BRANCH   3   7
ATOM      7  C   UNL d   1      -0.037  -2.612  -0.051  0.00  0.00    -0.002 A 
ATOM      8  C   UNL d   1       0.875  -3.480   0.564  0.00  0.00     0.015 A 
ATOM      9  C   UNL d   1       0.662  -4.866   0.567  0.00  0.00     0.014 A 
ATOM     10  C   UNL d   1      -0.464  -5.412  -0.063  0.00  0.00    -0.008 A 
ATOM     11  C   UNL d   1      -1.367  -4.550  -0.694  0.00  0.00     0.014 A 
ATOM     12  C   UNL d   1      -1.157  -3.168  -0.688  0.00  0.00     0.015 A 
BRANCH  10  13
ATOM     13  C   UNL d   1      -0.701  -6.847  -0.108  0.00  0.00     0.063 A 
ATOM     14  N   UNL d   1      -1.357  -7.431  -1.188  0.00  0.00    -0.292 N 
ATOM     15  N   UNL d   1      -1.469  -8.741  -1.050  0.00  0.00    -0.061 NA
ATOM     16  HN  UNL d   1      -1.710  -6.910  -1.990  1.00  0.00     0.183 HD
ATOM     17  S   UNL d   1      -0.811  -9.301   0.382  0.00  0.00    -0.010 SA
ATOM     18  C   UNL d   1      -0.331  -7.733   0.889  0.00  0.00     0.096 A 
ENDBRANCH  10  13
ENDBRANCH   3   7
BRANCH   4  19
ATOM     19  C   UNL d   1       2.449   1.661  -0.021  0.00  0.00    -0.009 A 
ATOM     20  C   UNL d   1       3.611   1.257  -0.686  0.00  0.00     0.014 A 
ATOM     21  C   UNL d   1       4.716   2.111  -0.768  0.00  0.00     0.007 A 
ATOM     22  C   UNL d   1       4.679   3.379  -0.174  0.00  0.00    -0.062 A 
ATOM     23  C   UNL d   1       3.526   3.777   0.508  0.00  0.00     0.007 A 
ATOM     24  C   UNL d   1       5.868   4.289  -0.266  0.00  0.00     0.048 C 
ATOM     25  C   UNL d   1       2.423   2.925   0.587  0.00  0.00     0.014 A 
ENDBRANCH   4  19
TORSDOF 3
