REMARK  3 active torsions:
REMARK  status: ('A' for Active; 'I' for Inactive)
REMARK    1  A    between atoms: C_2  and  C_1 
REMARK       I    between atoms: N_10  and  C_2 
REMARK    2  A    between atoms: C_3  and  N_11 
REMARK    3  A    between atoms: C_6  and  C_7 
ROOT
ATOM      1  C   UNL d   1      -0.099   2.508  -0.317  0.00  0.00     0.258 C 
ATOM      2  N   UNL d   1      -1.317   3.189  -0.364  0.00  0.00    -0.346 N 
ATOM      3  N   UNL d   1      -3.826   4.552  -0.296  0.00  0.00    -0.265 NA
ATOM      4  O   UNL d   1       0.231   1.857   0.673  0.00  0.00    -0.267 OA
ATOM      5  C   UNL d   1      -2.215   3.044   0.797  0.00  0.00     0.141 C 
ATOM      6  C   UNL d   1      -1.538   4.432  -1.126  0.00  0.00     0.141 C 
ATOM      7  C   UNL d   1      -3.697   3.269   0.425  0.00  0.00     0.117 C 
ATOM      8  C   UNL d   1      -3.018   4.578  -1.528  0.00  0.00     0.117 C 
ENDROOT
BRANCH   3   9
ATOM      9  C   UNL d   1      -5.139   5.011  -0.453  0.00  0.00     0.104 A 
ATOM     10  N   UNL d   1      -5.711   4.934  -1.682  0.00  0.00    -0.354 N 
ATOM     11  C   UNL d   1      -6.927   5.503  -1.868  0.00  0.00     0.105 A 
ATOM     12  HN  UNL d   1      -5.235   4.459  -2.449  1.00  0.00     0.166 HD
ATOM     13  C   UNL d   1      -7.633   6.172  -0.881  0.00  0.00     0.065 A 
ATOM     14  C   UNL d   1      -7.060   6.224   0.389  0.00  0.00     0.044 A 
ATOM     15  C   UNL d   1      -5.810   5.644   0.611  0.00  0.00     0.073 A 
ATOM     16 CL   UNL d   1      -5.104   5.844   2.178  0.00  0.00    -0.081 Cl
BRANCH  13  17
ATOM     17  C   UNL d   1      -8.933   6.837  -1.208  0.00  0.00     0.418 C 
ATOM     18  F   UNL d   1      -9.494   7.478  -0.145  0.00  0.00    -0.166 F 
ATOM     19  F   UNL d   1      -8.802   7.777  -2.183  0.00  0.00    -0.166 F 
ATOM     20  F   UNL d   1      -9.872   5.960  -1.655  0.00  0.00    -0.166 F 
ENDBRANCH  13  17
ENDBRANCH   3   9
BRANCH   1  21
ATOM     21  C   UNL d   1       0.787   2.563  -1.468  0.00  0.00     0.087 A 
ATOM     22  C   UNL d   1       0.472   2.502  -2.816  0.00  0.00     0.090 A 
ATOM     23  O   UNL d   1       1.616   2.569  -3.549  0.00  0.00    -0.242 OA
ATOM     24  C   UNL d   1      -0.767   2.357  -3.603  0.00  0.00     0.080 C 
ATOM     25  N   UNL d   1       2.707   2.603  -2.708  0.00  0.00    -0.265 N 
ATOM     26  C   UNL d   1       2.211   2.551  -1.467  0.00  0.00     0.047 A 
ATOM     27  HN  UNL d   1       3.689   2.657  -2.977  1.00  0.00     0.194 HD
ATOM     28  C   UNL d   1       3.134   2.491  -0.307  0.00  0.00     0.071 C 
ENDBRANCH   1  21
TORSDOF 3
