REMARK  5 active torsions:
REMARK  status: ('A' for Active; 'I' for Inactive)
REMARK    1  A    between atoms: C_7  and  C_3 
REMARK    2  A    between atoms: C_9  and  C_4 
REMARK    3  A    between atoms: C_8  and  C_7 
REMARK    4  A    between atoms: N_14  and  C_8 
REMARK    5  A    between atoms: O_16  and  N_10 
ROOT
ATOM      1  N   UNL d   1       3.987  -4.390  -0.046  0.00  0.00    -0.353 N 
ATOM      2  HN  UNL d   1       3.923  -3.372  -0.058  1.00  0.00     0.166 HD
ATOM      3  C   UNL d   1       2.954  -5.210  -0.052  0.00  0.00     0.057 A 
ATOM      4  C   UNL d   1       5.174  -5.110  -0.022  0.00  0.00     0.049 A 
ATOM      5  S   UNL d   1       3.346  -6.882  -0.107  0.00  0.00    -0.086 SA
ATOM      6  C   UNL d   1       5.014  -6.482  -0.072  0.00  0.00     0.081 A 
ENDROOT
BRANCH   3   7
ATOM      7  C   UNL d   1       1.529  -4.762  -0.001  0.00  0.00     0.136 C 
BRANCH   7   8
ATOM      8  C   UNL d   1       1.040  -4.435  -1.402  0.00  0.00     0.081 C 
ATOM      9  N   UNL d   1       0.022  -5.108  -1.861  0.00  0.00    -0.262 N 
ATOM     10  HN  UNL d   1      -0.464  -5.845  -1.350  1.00  0.00     0.195 HD
BRANCH   9  11
ATOM     11  O   UNL d   1      -0.316  -4.678  -3.156  0.00  0.00    -0.289 OA
ATOM     12  H   UNL d   1      -1.152  -5.154  -3.317  0.00  0.00     0.244 HD
ENDBRANCH   9  11
BRANCH   8  13
ATOM     13  N   UNL d   1       1.665  -3.439  -2.116  0.00  0.00    -0.290 NA
ATOM     14  H   UNL d   1       2.659  -3.321  -1.930  0.00  0.00     0.125 HD
ATOM     15  H   UNL d   1       1.428  -3.484  -3.102  0.00  0.00     0.125 HD
ENDBRANCH   8  13
ENDBRANCH   7   8
ENDBRANCH   3   7
BRANCH   4  16
ATOM     16  C   UNL d   1       6.467  -4.431   0.010  0.00  0.00    -0.009 A 
ATOM     17  C   UNL d   1       7.613  -5.033   0.554  0.00  0.00     0.017 A 
ATOM     18  C   UNL d   1       8.839  -4.359   0.549  0.00  0.00     0.043 A 
ATOM     19  C   UNL d   1       8.919  -3.083   0.005  0.00  0.00     0.116 A 
ATOM     20  C   UNL d   1       7.796  -2.461  -0.523  0.00  0.00     0.043 A 
ATOM     21  F   UNL d   1      10.096  -2.443  -0.007  0.00  0.00    -0.206 F 
ATOM     22  C   UNL d   1       6.571  -3.132  -0.516  0.00  0.00     0.017 A 
ENDBRANCH   4  16
TORSDOF 5
