REMARK  4 active torsions:
REMARK  status: ('A' for Active; 'I' for Inactive)
REMARK    1  A    between atoms: N_2  and  C_1 
REMARK    2  A    between atoms: N_6  and  C_3 
REMARK    3  A    between atoms: C_4  and  C_7 
REMARK    4  A    between atoms: N_8  and  N_6 
REMARK       I    between atoms: C_11  and  N_8 
ROOT
ATOM      1  C   UNL d   1       1.451  -0.119   0.249  0.00  0.00     0.131 A 
ATOM      2  C   UNL d   1       0.572  -1.228   0.163  0.00  0.00     0.083 A 
ATOM      3  C   UNL d   1       0.974   1.207   0.316  0.00  0.00     0.054 A 
ATOM      4  C   UNL d   1      -0.397   1.472   0.348  0.00  0.00     0.050 A 
ATOM      5  C   UNL d   1      -0.799  -0.922   0.286  0.00  0.00     0.034 A 
ATOM      6  C   UNL d   1      -1.279   0.390   0.378  0.00  0.00     0.019 A 
ENDROOT
BRANCH   2   7
ATOM      7  N   UNL d   1       0.985  -2.557  -0.080  0.00  0.00    -0.292 N 
ATOM      8  C   UNL d   1       0.031  -3.665   0.005  0.00  0.00     0.178 C 
BRANCH   7   9
ATOM      9  N   UNL d   1       1.982  -2.745  -1.064  0.00  0.00    -0.268 N 
ATOM     10  C   UNL d   1       1.937  -2.154  -2.318  0.00  0.00     0.232 C 
ATOM     11  O   UNL d   1       1.069  -1.380  -2.716  0.00  0.00    -0.272 OA
ATOM     12  C   UNL d   1       3.086  -2.569  -3.202  0.00  0.00     0.119 C 
ATOM     13  H   UNL d   1       2.797  -3.264  -0.743  0.00  0.00     0.190 HD
ENDBRANCH   7   9
ENDBRANCH   2   7
BRANCH   1  14
ATOM     14  N   UNL d   1       2.910  -0.291   0.308  0.00  0.00    -0.113 N 
ATOM     15  O   UNL d   1       3.377  -1.286   0.890  0.00  0.00    -0.532 OA
ATOM     16  O   UNL d   1       3.606   0.608  -0.187  0.00  0.00    -0.532 OA
ENDBRANCH   1  14
BRANCH   4  17
ATOM     17  C   UNL d   1      -0.939   2.884   0.343  0.00  0.00     0.417 C 
ATOM     18  F   UNL d   1       0.033   3.836   0.282  0.00  0.00    -0.166 F 
ATOM     19  F   UNL d   1      -1.763   3.119  -0.710  0.00  0.00    -0.166 F 
ATOM     20  F   UNL d   1      -1.666   3.162   1.461  0.00  0.00    -0.166 F 
ENDBRANCH   4  17
TORSDOF 4
