REMARK  4 active torsions:
REMARK  status: ('A' for Active; 'I' for Inactive)
REMARK    1  A    between atoms: N_4  and  C_1 
REMARK       I    between atoms: C_3  and  N_4 
REMARK    2  A    between atoms: C_6  and  C_3 
REMARK    3  A    between atoms: C_18  and  C_7 
REMARK    4  A    between atoms: C_11  and  C_13 
ROOT
ATOM      1  C   UNL d   1       0.430  -0.892   0.183  0.00  0.00     0.172 A 
ATOM      2  C   UNL d   1       1.696  -0.339   0.208  0.00  0.00     0.098 A 
ATOM      3  O   UNL d   1      -0.499   0.102   0.321  0.00  0.00    -0.291 OA
ATOM      4  C   UNL d   1       0.184   1.280   0.444  0.00  0.00     0.089 A 
ATOM      5  C   UNL d   1       1.542   1.042   0.463  0.00  0.00     0.065 A 
ATOM      6  C   UNL d   1       2.915  -1.030  -0.028  0.00  0.00     0.104 C 
ATOM      7  N   UNL d   1       3.894  -1.611  -0.255  0.00  0.00    -0.191 NA
ENDROOT
BRANCH   1   8
ATOM      8  N   UNL d   1       0.040  -2.200  -0.004  0.00  0.00    -0.302 N 
ATOM      9  C   UNL d   1      -1.265  -2.647   0.108  0.00  0.00     0.259 C 
ATOM     10  O   UNL d   1      -2.247  -1.961   0.375  0.00  0.00    -0.267 OA
ATOM     11  H   UNL d   1       0.771  -2.860  -0.232  0.00  0.00     0.171 HD
BRANCH   9  12
ATOM     12  C   UNL d   1      -1.441  -4.114  -0.125  0.00  0.00     0.054 A 
ATOM     13  C   UNL d   1      -2.562  -4.628  -0.784  0.00  0.00     0.021 A 
ATOM     14  N   UNL d   1      -2.697  -5.957  -1.065  0.00  0.00    -0.355 N 
ATOM     15  C   UNL d   1      -3.702  -3.769  -1.250  0.00  0.00     0.069 C 
ATOM     16  C   UNL d   1      -1.727  -6.827  -0.668  0.00  0.00     0.117 A 
ATOM     17  HN  UNL d   1      -3.518  -6.296  -1.566  1.00  0.00     0.166 HD
ATOM     18  C   UNL d   1      -0.613  -6.389   0.043  0.00  0.00     0.035 A 
ATOM     19  C   UNL d   1      -0.472  -5.027   0.318  0.00  0.00     0.021 A 
BRANCH  16  20
ATOM     20  C   UNL d   1      -1.846  -8.306  -1.023  0.00  0.00     0.432 C 
ATOM     21  F   UNL d   1      -2.963  -8.633  -1.731  0.00  0.00    -0.165 F 
ATOM     22  F   UNL d   1      -0.791  -8.739  -1.777  0.00  0.00    -0.165 F 
ATOM     23  F   UNL d   1      -1.853  -9.110   0.081  0.00  0.00    -0.165 F 
ENDBRANCH  16  20
ENDBRANCH   9  12
ENDBRANCH   1   8
BRANCH   4  24
ATOM     24  C   UNL d   1      -0.571   2.520   0.387  0.00  0.00    -0.002 A 
ATOM     25  C   UNL d   1      -0.207   3.611   1.189  0.00  0.00     0.014 A 
ATOM     26  C   UNL d   1      -0.754   4.876   0.957  0.00  0.00     0.001 A 
ATOM     27  C   UNL d   1      -1.668   5.059  -0.079  0.00  0.00     0.000 A 
ATOM     28  C   UNL d   1      -2.070   3.972  -0.854  0.00  0.00     0.001 A 
ATOM     29  C   UNL d   1      -1.534   2.705  -0.613  0.00  0.00     0.014 A 
ENDBRANCH   4  24
TORSDOF 4
