REMARK  5 active torsions:
REMARK  status: ('A' for Active; 'I' for Inactive)
REMARK    1  A    between atoms: C_8  and  N_1 
REMARK    2  A    between atoms: C_9  and  C_2 
REMARK    3  A    between atoms: S_12  and  C_5 
REMARK    4  A    between atoms: C_17  and  S_12 
REMARK    5  A    between atoms: C_14  and  C_17 
ROOT
ATOM      1  N   UNL d   1      -0.340  -1.332   0.011  0.00  0.00    -0.279 N 
ATOM      2  C   UNL d   1       0.902  -0.706   0.118  0.00  0.00     0.109 A 
ATOM      3  N   UNL d   1       0.743   0.600   0.183  0.00  0.00    -0.286 N 
ATOM      4  HN  UNL d   1       1.485   1.287   0.313  1.00  0.00     0.188 HD
ATOM      5  C   UNL d   1      -1.232  -0.267  -0.039  0.00  0.00     0.167 A 
ATOM      6  N   UNL d   1      -0.590   0.874   0.046  0.00  0.00    -0.278 N 
ATOM      7  HN  UNL d   1      -1.011   1.802   0.014  1.00  0.00     0.189 HD
ENDROOT
BRANCH   1   8
ATOM      8  C   UNL d   1      -0.585  -2.738  -0.004  0.00  0.00     0.044 A 
ATOM      9  C   UNL d   1       0.246  -3.601   0.727  0.00  0.00     0.054 A 
ATOM     10  C   UNL d   1       0.062  -4.983   0.661  0.00  0.00     0.036 A 
ATOM     11 CL   UNL d   1       1.133  -6.024   1.516  0.00  0.00    -0.084 Cl
ATOM     12  C   UNL d   1      -0.970  -5.522  -0.098  0.00  0.00     0.024 A 
ATOM     13  C   UNL d   1      -1.822  -4.671  -0.799  0.00  0.00     0.004 A 
ATOM     14  C   UNL d   1      -1.629  -3.285  -0.760  0.00  0.00     0.030 A 
ENDBRANCH   1   8
BRANCH   2  15
ATOM     15  C   UNL d   1       2.286  -1.361   0.076  0.00  0.00     0.055 A 
ATOM     16  C   UNL d   1       3.229  -1.061   1.223  0.00  0.00     0.013 A 
ATOM     17  C   UNL d   1       3.519  -0.510  -0.135  0.00  0.00     0.013 A 
ENDBRANCH   2  15
BRANCH   5  18
ATOM     18  S   UNL d   1      -2.963  -0.394   0.075  0.00  0.00    -0.092 SA
BRANCH  18  19
ATOM     19  C   UNL d   1      -3.492   1.045  -0.901  0.00  0.00     0.087 C 
BRANCH  19  20
ATOM     20  C   UNL d   1      -4.992   1.129  -0.850  0.00  0.00    -0.005 A 
ATOM     21  C   UNL d   1      -5.873   0.066  -1.467  0.00  0.00     0.006 A 
ATOM     22  C   UNL d   1      -5.789   1.424  -2.101  0.00  0.00     0.006 A 
ENDBRANCH  19  20
ENDBRANCH  18  19
ENDBRANCH   5  18
TORSDOF 5
