REMARK  8 active torsions:
REMARK  status: ('A' for Active; 'I' for Inactive)
REMARK    1  A    between atoms: C_6  and  C_1 
REMARK    2  A    between atoms: C_12  and  N_2 
REMARK    3  A    between atoms: C_8  and  C_4 
REMARK    4  A    between atoms: O_13  and  C_6 
REMARK    5  A    between atoms: C_7  and  C_15 
REMARK    6  A    between atoms: C_24  and  C_12 
REMARK    7  A    between atoms: C_15  and  S_18 
REMARK    8  A    between atoms: S_18  and  C_24 
ROOT
ATOM      1  C   UNL d   1      -0.435   1.193   0.193  0.00  0.00     0.062 A 
ATOM      2  N   UNL d   1       0.816  -0.684   0.083  0.00  0.00    -0.348 N 
ATOM      3  C   UNL d   1       0.867   0.705   0.124  0.00  0.00     0.025 A 
ATOM      4  C   UNL d   1      -0.502  -1.113   0.172  0.00  0.00     0.046 A 
ATOM      5  C   UNL d   1      -1.273   0.039   0.256  0.00  0.00     0.050 A 
ATOM      6  C   UNL d   1       2.132   1.501   0.047  0.00  0.00     0.069 C 
ENDROOT
BRANCH   2   7
ATOM      7  C   UNL d   1       1.983  -1.524  -0.176  0.00  0.00     0.139 C 
BRANCH   7   8
ATOM      8  C   UNL d   1       2.825  -1.766   1.077  0.00  0.00     0.094 C 
BRANCH   8   9
ATOM      9  S   UNL d   1       4.274  -2.824   0.732  0.00  0.00    -0.163 SA
BRANCH   9  10
ATOM     10  C   UNL d   1       5.266  -1.634  -0.222  0.00  0.00     0.117 C 
BRANCH  10  11
ATOM     11  C   UNL d   1       6.531  -2.234  -0.764  0.00  0.00     0.011 A 
ATOM     12  C   UNL d   1       6.493  -2.880  -2.007  0.00  0.00     0.125 A 
ATOM     13  F   UNL d   1       5.330  -2.981  -2.668  0.00  0.00    -0.205 F 
ATOM     14  C   UNL d   1       7.637  -3.404  -2.601  0.00  0.00     0.043 A 
ATOM     15  C   UNL d   1       8.861  -3.295  -1.950  0.00  0.00     0.005 A 
ATOM     16  C   UNL d   1       8.923  -2.680  -0.699  0.00  0.00     0.024 A 
ATOM     17  C   UNL d   1       7.765  -2.160  -0.105  0.00  0.00     0.044 A 
ATOM     18 CL   UNL d   1       7.932  -1.415   1.445  0.00  0.00    -0.084 Cl
ENDBRANCH  10  11
ENDBRANCH   9  10
ENDBRANCH   8   9
ENDBRANCH   7   8
ENDBRANCH   2   7
BRANCH   4  19
ATOM     19  C   UNL d   1      -0.985  -2.508   0.076  0.00  0.00    -0.009 A 
ATOM     20  C   UNL d   1      -2.146  -2.790  -0.661  0.00  0.00     0.014 A 
ATOM     21  C   UNL d   1      -2.605  -4.103  -0.818  0.00  0.00     0.001 A 
ATOM     22  C   UNL d   1      -1.901  -5.159  -0.249  0.00  0.00     0.000 A 
ATOM     23  C   UNL d   1      -0.766  -4.899   0.510  0.00  0.00     0.001 A 
ATOM     24  C   UNL d   1      -0.331  -3.582   0.692  0.00  0.00     0.014 A 
ENDBRANCH   4  19
BRANCH   1  25
ATOM     25  C   UNL d   1      -0.797   2.615   0.180  0.00  0.00     0.178 C 
ATOM     26  O   UNL d   1       0.018   3.528   0.155  0.00  0.00    -0.646 OA
BRANCH  25  27
ATOM     27  O   UNL d   1      -2.128   2.879   0.173  0.00  0.00    -0.773 OA
ATOM     28  H   UNL d   1      -2.672   2.074   0.168  0.00  0.00     0.167 HD
ENDBRANCH  25  27
ENDBRANCH   1  25
TORSDOF 8
