REMARK  6 active torsions:
REMARK  status: ('A' for Active; 'I' for Inactive)
REMARK    1  A    between atoms: C_8  and  C_1 
REMARK    2  A    between atoms: N_6  and  C_2 
REMARK    3  A    between atoms: O_12  and  C_8 
REMARK    4  A    between atoms: N_9  and  O_12 
REMARK    5  A    between atoms: C_16  and  C_11 
REMARK    6  A    between atoms: N_19  and  C_11 
ROOT
ATOM      1  C   UNL d   1       1.669   0.688  -0.002  0.00  0.00     0.320 C 
ATOM      2  O   UNL d   1       0.869   1.383   0.612  0.00  0.00    -0.257 OA
ENDROOT
BRANCH   1   3
ATOM      3  C   UNL d   1       1.550  -0.764  -0.056  0.00  0.00     0.104 A 
ATOM      4  C   UNL d   1       0.407  -1.546   0.093  0.00  0.00     0.145 A 
ATOM      5  N   UNL d   1       0.829  -2.853   0.134  0.00  0.00    -0.280 N 
ATOM      6  C   UNL d   1       0.070  -4.083   0.180  0.00  0.00     0.179 C 
ATOM      7  N   UNL d   1       2.166  -2.969  -0.030  0.00  0.00    -0.307 N 
ATOM      8  C   UNL d   1       2.592  -1.711  -0.144  0.00  0.00     0.129 A 
ATOM      9  HN  UNL d   1       2.722  -3.824  -0.059  1.00  0.00     0.186 HD
BRANCH   4  10
ATOM     10  N   UNL d   1      -0.925  -1.123   0.151  0.00  0.00    -0.317 N 
ATOM     11  C   UNL d   1      -1.464  -0.047  -0.529  0.00  0.00     0.098 A 
ATOM     12  C   UNL d   1      -2.812   0.039  -0.267  0.00  0.00     0.019 A 
ATOM     13  C   UNL d   1      -3.128  -1.010   0.617  0.00  0.00     0.019 A 
ATOM     14  C   UNL d   1      -1.960  -1.701   0.862  0.00  0.00     0.098 A 
ENDBRANCH   4  10
ENDBRANCH   1   3
BRANCH   1  15
ATOM     15  O   UNL d   1       2.777   1.165  -0.681  0.00  0.00    -0.193 OA
BRANCH  15  16
ATOM     16  N   UNL d   1       2.784   2.580  -0.605  0.00  0.00    -0.246 N 
ATOM     17  C   UNL d   1       3.734   3.124  -1.304  0.00  0.00     0.109 C 
ATOM     18  HN  UNL d   1       2.112   3.117  -0.056  1.00  0.00     0.196 HD
BRANCH  17  19
ATOM     19  C   UNL d   1       3.830   4.624  -1.300  0.00  0.00     0.004 A 
ATOM     20  C   UNL d   1       3.338   5.354  -0.210  0.00  0.00     0.015 A 
ATOM     21  C   UNL d   1       3.456   6.746  -0.185  0.00  0.00     0.001 A 
ATOM     22  C   UNL d   1       4.054   7.416  -1.251  0.00  0.00     0.000 A 
ATOM     23  C   UNL d   1       4.527   6.698  -2.349  0.00  0.00     0.001 A 
ATOM     24  C   UNL d   1       4.416   5.304  -2.376  0.00  0.00     0.015 A 
ENDBRANCH  17  19
BRANCH  17  25
ATOM     25  N   UNL d   1       4.665   2.409  -2.021  0.00  0.00    -0.286 NA
ATOM     26  H   UNL d   1       4.699   1.433  -1.754  0.00  0.00     0.125 HD
ATOM     27  H   UNL d   1       5.589   2.827  -2.063  0.00  0.00     0.125 HD
ENDBRANCH  17  25
ENDBRANCH  15  16
ENDBRANCH   1  15
TORSDOF 6
