REMARK  3 active torsions:
REMARK  status: ('A' for Active; 'I' for Inactive)
REMARK    1  A    between atoms: C_2  and  N_1 
REMARK    2  A    between atoms: S_4  and  C_3 
REMARK    3  A    between atoms: C_9  and  S_4 
ROOT
ATOM      1  C   UNL d   1      -1.393   4.144  -2.573  0.00  0.00     0.136 A 
ATOM      2  C   UNL d   1      -1.854   3.323  -1.551  0.00  0.00     0.108 A 
ATOM      3  N   UNL d   1      -3.020   3.607  -0.909  0.00  0.00    -0.358 N 
ATOM      4  HN  UNL d   1      -3.364   3.006  -0.159  1.00  0.00     0.166 HD
ATOM      5  C   UNL d   1      -2.107   5.290  -2.946  0.00  0.00     0.040 A 
ATOM      6  C   UNL d   1      -3.713   4.706  -1.292  0.00  0.00     0.089 A 
ATOM      7  C   UNL d   1      -3.299   5.572  -2.291  0.00  0.00     0.020 A 
ENDROOT
BRANCH   2   8
ATOM      8  S   UNL d   1      -1.076   1.808  -1.038  0.00  0.00    -0.070 SA
BRANCH   8   9
ATOM      9  C   UNL d   1      -0.156   2.306   0.404  0.00  0.00     0.007 A 
ATOM     10  C   UNL d   1      -0.767   2.363   1.661  0.00  0.00     0.019 A 
ATOM     11  C   UNL d   1      -0.001   2.583   2.810  0.00  0.00     0.008 A 
ATOM     12  C   UNL d   1       1.387   2.745   2.722  0.00  0.00    -0.062 A 
ATOM     13  C   UNL d   1       1.989   2.727   1.459  0.00  0.00     0.008 A 
ATOM     14  C   UNL d   1       2.211   2.904   3.966  0.00  0.00     0.048 C 
ATOM     15  C   UNL d   1       1.224   2.504   0.310  0.00  0.00     0.019 A 
ENDBRANCH   8   9
ENDBRANCH   2   8
BRANCH   1  16
ATOM     16  N   UNL d   1      -0.192   3.831  -3.301  0.00  0.00    -0.113 N 
ATOM     17  O   UNL d   1      -0.181   2.793  -3.974  0.00  0.00    -0.532 OA
ATOM     18  O   UNL d   1       0.722   4.668  -3.256  0.00  0.00    -0.532 OA
ENDBRANCH   1  16
TORSDOF 3
