REMARK  4 active torsions:
REMARK  status: ('A' for Active; 'I' for Inactive)
REMARK    1  A    between atoms: C_3  and  C_1 
REMARK       I    between atoms: N_5  and  C_1 
REMARK    2  A    between atoms: C_2  and  N_5 
REMARK    3  A    between atoms: C_4  and  C_6 
REMARK    4  A    between atoms: O_14  and  C_4 
ROOT
ATOM      1  C   UNL d   1      -3.155  -0.284   0.670  0.00  0.00     0.245 C 
ATOM      2  N   UNL d   1      -2.009   0.046  -0.008  0.00  0.00    -0.324 N 
ATOM      3  O   UNL d   1      -3.894   0.446   1.323  0.00  0.00    -0.268 OA
ATOM      4  H   UNL d   1      -1.545  -0.680  -0.540  0.00  0.00     0.169 HD
ENDROOT
BRANCH   2   5
ATOM      5  C   UNL d   1      -1.366   1.303   0.009  0.00  0.00     0.035 A 
ATOM      6  C   UNL d   1      -1.764   2.357   0.835  0.00  0.00     0.036 A 
ATOM      7  C   UNL d   1      -1.072   3.575   0.839  0.00  0.00    -0.059 A 
ATOM      8  C   UNL d   1      -1.496   4.689   1.752  0.00  0.00     0.048 C 
ATOM      9  C   UNL d   1       0.022   3.740  -0.015  0.00  0.00     0.013 A 
ATOM     10  C   UNL d   1       0.436   2.699  -0.853  0.00  0.00    -0.059 A 
ATOM     11  C   UNL d   1      -0.256   1.480  -0.827  0.00  0.00     0.036 A 
ATOM     12  C   UNL d   1       1.613   2.904  -1.762  0.00  0.00     0.048 C 
ENDBRANCH   2   5
BRANCH   1  13
ATOM     13  C   UNL d   1      -3.475  -1.719   0.611  0.00  0.00     0.081 C 
ATOM     14  C   UNL d   1      -3.728  -2.444   1.710  0.00  0.00     0.086 C 
BRANCH  14  15
ATOM     15  C   UNL d   1      -3.669  -2.089   3.143  0.00  0.00     0.165 C 
ATOM     16  O   UNL d   1      -3.497  -2.965   3.978  0.00  0.00    -0.647 OA
BRANCH  15  17
ATOM     17  O   UNL d   1      -3.837  -0.803   3.482  0.00  0.00    -0.773 OA
ATOM     18  H   UNL d   1      -4.053  -0.180   2.749  0.00  0.00     0.167 HD
ENDBRANCH  15  17
ENDBRANCH  14  15
ENDBRANCH   1  13
TORSDOF 4
