REMARK  3 active torsions:
REMARK  status: ('A' for Active; 'I' for Inactive)
REMARK    1  A    between atoms: N_9  and  C_6 
REMARK    2  A    between atoms: C_15  and  N_9 
REMARK    3  A    between atoms: C_14  and  C_15 
ROOT
ATOM      1  C   UNL d   1      -2.462  -0.729  -0.007  0.00  0.00     0.098 A 
ATOM      2  C   UNL d   1      -1.319  -1.671   0.010  0.00  0.00     0.199 A 
ATOM      3  C   UNL d   1      -1.916   0.659  -0.029  0.00  0.00     0.199 A 
ATOM      4  C   UNL d   1      -0.114  -0.839  -0.003  0.00  0.00     0.029 A 
ATOM      5  C   UNL d   1      -0.457   0.509  -0.015  0.00  0.00     0.029 A 
ATOM      6  C   UNL d   1      -3.752  -1.101  -0.008  0.00  0.00     0.108 C 
ATOM      7  N   UNL d   1      -5.697   0.624  -0.047  0.00  0.00    -0.190 NA
ATOM      8  C   UNL d   1      -4.801  -0.120  -0.030  0.00  0.00     0.112 C 
ATOM      9  O   UNL d   1      -1.346  -2.889   0.025  0.00  0.00    -0.286 OA
ATOM     10  O   UNL d   1      -2.517   1.712  -0.043  0.00  0.00    -0.286 OA
ATOM     11  C   UNL d   1       1.205  -1.256   0.001  0.00  0.00     0.016 A 
ATOM     12  C   UNL d   1       0.510   1.500  -0.013  0.00  0.00     0.016 A 
ATOM     13  C   UNL d   1       1.850   1.099  -0.005  0.00  0.00     0.001 A 
ATOM     14  C   UNL d   1       2.194  -0.268  -0.000  0.00  0.00     0.001 A 
ENDROOT
BRANCH   6  15
ATOM     15  N   UNL d   1      -4.266  -2.395   0.094  0.00  0.00    -0.279 NA
ATOM     16  H   UNL d   1      -3.830  -2.905   0.863  0.00  0.00     0.128 HD
BRANCH  15  17
ATOM     17  C   UNL d   1      -4.360  -3.301  -1.057  0.00  0.00     0.133 C 
BRANCH  17  18
ATOM     18  C   UNL d   1      -5.719  -3.937  -1.041  0.00  0.00    -0.030 A 
ATOM     19  C   UNL d   1      -5.889  -5.315  -0.962  0.00  0.00     0.096 A 
ATOM     20  N   UNL d   1      -7.095  -5.926  -0.883  0.00  0.00    -0.375 N 
ATOM     21  C   UNL d   1      -8.184  -5.126  -0.880  0.00  0.00     0.087 A 
ATOM     22  HN  UNL d   1      -7.177  -6.941  -0.828  1.00  0.00     0.164 HD
ATOM     23  C   UNL d   1      -8.127  -3.748  -0.981  0.00  0.00     0.018 A 
ATOM     24  C   UNL d   1      -6.876  -3.151  -1.075  0.00  0.00     0.011 A 
ENDBRANCH  17  18
ENDBRANCH  15  17
ENDBRANCH   6  15
TORSDOF 3
