REMARK  8 active torsions:
REMARK  status: ('A' for Active; 'I' for Inactive)
REMARK    1  A    between atoms: N_7  and  C_1 
REMARK    2  A    between atoms: C_6  and  C_5 
REMARK    3  A    between atoms: C_9  and  C_6 
REMARK    4  A    between atoms: C_14  and  N_7 
REMARK       I    between atoms: N_10  and  C_9 
REMARK    5  A    between atoms: C_17  and  N_10 
REMARK    6  A    between atoms: C_18  and  C_12 
REMARK    7  A    between atoms: C_28  and  C_21 
REMARK    8  A    between atoms: C_29  and  C_28 
ROOT
ATOM      1  C   UNL d   1       1.048   1.035   0.580  0.00  0.00     0.148 C 
ATOM      2  N   UNL d   1       1.313  -0.125   1.224  0.00  0.00    -0.306 N 
ATOM      3  C   UNL d   1       0.300  -1.028   1.310  0.00  0.00     0.238 C 
ATOM      4  S   UNL d   1      -0.681   1.315   0.595  0.00  0.00    -0.079 SA
ATOM      5  C   UNL d   1      -1.002  -0.484   0.733  0.00  0.00     0.156 C 
ATOM      6  O   UNL d   1       0.473  -2.167   1.712  0.00  0.00    -0.272 OA
ATOM      7  H   UNL d   1       2.251  -0.419   1.453  0.00  0.00     0.171 HD
ENDROOT
BRANCH   1   8
ATOM      8  N   UNL d   1       1.887   1.811  -0.016  0.00  0.00    -0.337 N 
ATOM      9  HN  UNL d   1       1.570   2.705  -0.390  1.00  0.00     0.168 HD
BRANCH   8  10
ATOM     10  C   UNL d   1       3.240   1.437  -0.157  0.00  0.00     0.034 C 
ATOM     11  C   UNL d   1       3.614   0.151  -0.564  0.00  0.00     0.030 C 
ATOM     12  C   UNL d   1       4.958  -0.231  -0.624  0.00  0.00     0.010 C 
ATOM     13  C   UNL d   1       5.982   0.686  -0.355  0.00  0.00    -0.054 C 
ATOM     14  C   UNL d   1       5.604   2.012  -0.112  0.00  0.00     0.010 C 
ATOM     15  C   UNL d   1       4.250   2.379   0.015  0.00  0.00     0.030 C 
BRANCH  13  16
ATOM     16  C   UNL d   1       7.424   0.178  -0.348  0.00  0.00     0.018 C 
ATOM     17  C   UNL d   1       7.637  -0.910   0.730  0.00  0.00     0.009 C 
ATOM     18  C   UNL d   1       7.635  -0.326   2.142  0.00  0.00     0.001 C 
ATOM     19  C   UNL d   1       8.690   0.762   2.311  0.00  0.00     0.000 C 
ATOM     20  C   UNL d   1       8.667   1.815   1.208  0.00  0.00     0.001 C 
ATOM     21  C   UNL d   1       8.542   1.226  -0.201  0.00  0.00     0.009 C 
ENDBRANCH  13  16
ENDBRANCH   8  10
ENDBRANCH   1   8
BRANCH   5  22
ATOM     22  C   UNL d   1      -2.145  -0.945   1.615  0.00  0.00     0.128 C 
BRANCH  22  23
ATOM     23  C   UNL d   1      -3.564  -0.755   1.129  0.00  0.00     0.223 C 
ATOM     24  N   UNL d   1      -3.956   0.544   0.867  0.00  0.00    -0.327 N 
ATOM     25  H   UNL d   1      -3.233   1.247   0.749  0.00  0.00     0.169 HD
ATOM     26  O   UNL d   1      -4.291  -1.746   1.061  0.00  0.00    -0.273 OA
BRANCH  24  27
ATOM     27  C   UNL d   1      -5.285   0.946   0.567  0.00  0.00     0.034 A 
ATOM     28  C   UNL d   1      -6.393   0.126   0.795  0.00  0.00     0.030 A 
ATOM     29  C   UNL d   1      -7.671   0.509   0.385  0.00  0.00     0.009 A 
ATOM     30  C   UNL d   1      -7.878   1.735  -0.252  0.00  0.00    -0.058 A 
ATOM     31  C   UNL d   1      -6.789   2.606  -0.384  0.00  0.00     0.009 A 
ATOM     32  C   UNL d   1      -5.503   2.214   0.021  0.00  0.00     0.030 A 
BRANCH  30  33
ATOM     33  C   UNL d   1      -9.254   2.074  -0.772  0.00  0.00     0.038 C 
BRANCH  33  34
ATOM     34  C   UNL d   1      -9.305   2.418  -2.267  0.00  0.00     0.000 C 
ATOM     35  C   UNL d   1      -8.829   1.289  -3.173  0.00  0.00     0.005 C 
ENDBRANCH  33  34
ENDBRANCH  30  33
ENDBRANCH  24  27
ENDBRANCH  22  23
ENDBRANCH   5  22
TORSDOF 8
