REMARK  5 active torsions:
REMARK  status: ('A' for Active; 'I' for Inactive)
REMARK    1  A    between atoms: C_9  and  C_1 
REMARK    2  A    between atoms: C_8  and  C_2 
REMARK    3  A    between atoms: C_7  and  C_3 
REMARK    4  A    between atoms: O_18  and  C_8 
REMARK    5  A    between atoms: O_19  and  C_9 
ROOT
ATOM      1  C   UNL d   1      -1.278  -1.003   0.102  0.00  0.00     0.052 C 
ATOM      2  C   UNL d   1       1.290  -1.006   0.109  0.00  0.00     0.052 C 
ATOM      3  C   UNL d   1       0.009  -1.830  -0.123  0.00  0.00     0.102 C 
ATOM      4  C   UNL d   1      -1.225   0.351   0.076  0.00  0.00     0.018 C 
ATOM      5  C   UNL d   1       1.230   0.348   0.098  0.00  0.00     0.018 C 
ATOM      6  N   UNL d   1       0.006   0.981  -0.041  0.00  0.00    -0.362 N 
ATOM      7  C   UNL d   1      -2.393   1.306   0.131  0.00  0.00     0.069 C 
ATOM      8  C   UNL d   1       2.425   1.265   0.206  0.00  0.00     0.069 C 
ATOM      9  H   UNL d   1       0.005   1.996   0.038  0.00  0.00     0.165 HD
ENDROOT
BRANCH   3  10
ATOM     10  C   UNL d   1       0.019  -2.425  -1.547  0.00  0.00    -0.023 A 
ATOM     11  C   UNL d   1      -0.047  -3.807  -1.812  0.00  0.00     0.043 A 
ATOM     12  C   UNL d   1      -0.053  -4.283  -3.129  0.00  0.00     0.048 A 
ATOM     13 CL   UNL d   1      -0.114  -4.997  -0.559  0.00  0.00    -0.084 Cl
ATOM     14  C   UNL d   1       0.017  -3.392  -4.195  0.00  0.00     0.035 A 
ATOM     15  C   UNL d   1       0.089  -2.024  -3.964  0.00  0.00     0.024 A 
ATOM     16 CL   UNL d   1       0.019  -3.982  -5.811  0.00  0.00    -0.084 Cl
ATOM     17  C   UNL d   1       0.085  -1.547  -2.654  0.00  0.00     0.011 A 
ENDBRANCH   3  10
BRANCH   2  18
ATOM     18  C   UNL d   1       2.586  -1.711   0.342  0.00  0.00     0.291 C 
ATOM     19  O   UNL d   1       3.660  -1.154   0.519  0.00  0.00    -0.260 OA
BRANCH  18  20
ATOM     20  O   UNL d   1       2.420  -3.054   0.362  0.00  0.00    -0.323 OA
ATOM     21  C   UNL d   1       3.632  -3.779   0.594  0.00  0.00     0.213 C 
ENDBRANCH  18  20
ENDBRANCH   2  18
BRANCH   1  22
ATOM     22  C   UNL d   1      -2.510  -1.810   0.322  0.00  0.00     0.291 C 
ATOM     23  O   UNL d   1      -2.674  -2.931  -0.130  0.00  0.00    -0.260 OA
BRANCH  22  24
ATOM     24  O   UNL d   1      -3.380  -1.180   1.152  0.00  0.00    -0.323 OA
ATOM     25  C   UNL d   1      -4.603  -1.885   1.382  0.00  0.00     0.213 C 
ENDBRANCH  22  24
ENDBRANCH   1  22
TORSDOF 5
