REMARK  9 active torsions:
REMARK  status: ('A' for Active; 'I' for Inactive)
REMARK    1  A    between atoms: C_2  and  C_1 
REMARK       I    between atoms: N_3  and  C_1 
REMARK    2  A    between atoms: C_9  and  N_3 
REMARK    3  A    between atoms: O_12  and  C_4 
REMARK    4  A    between atoms: O_14  and  C_5 
REMARK    5  A    between atoms: O_13  and  C_6 
REMARK    6  A    between atoms: O_15  and  C_11 
REMARK    7  A    between atoms: C_19  and  O_15 
REMARK    8  A    between atoms: O_16  and  C_21 
REMARK    9  A    between atoms: C_21  and  C_19 
ROOT
ATOM      1  C   UNL d   1       1.070   0.837  -0.092  0.00  0.00     0.256 C 
ATOM      2  N   UNL d   1       0.290   0.405   0.973  0.00  0.00    -0.321 N 
ATOM      3  O   UNL d   1       2.258   1.135  -0.026  0.00  0.00    -0.267 OA
ATOM      4  H   UNL d   1      -0.679   0.683   0.928  0.00  0.00     0.169 HD
ENDROOT
BRANCH   1   5
ATOM      5  C   UNL d   1       0.365   0.955  -1.398  0.00  0.00     0.037 A 
ATOM      6  C   UNL d   1       0.827   1.874  -2.347  0.00  0.00     0.057 A 
ATOM      7  C   UNL d   1       0.240   1.960  -3.622  0.00  0.00     0.105 A 
ATOM      8  C   UNL d   1      -0.827   1.090  -3.954  0.00  0.00     0.135 A 
ATOM      9  C   UNL d   1      -1.261   0.150  -2.995  0.00  0.00     0.105 A 
ATOM     10  C   UNL d   1      -0.685   0.100  -1.722  0.00  0.00     0.057 A 
BRANCH   7  11
ATOM     11  O   UNL d   1       0.660   2.856  -4.569  0.00  0.00    -0.353 OA
ATOM     12  C   UNL d   1       1.714   3.755  -4.250  0.00  0.00     0.210 C 
ENDBRANCH   7  11
BRANCH   8  13
ATOM     13  O   UNL d   1      -1.537   1.076  -5.128  0.00  0.00    -0.351 OA
ATOM     14  C   UNL d   1      -1.132   1.873  -6.228  0.00  0.00     0.210 C 
ENDBRANCH   8  13
BRANCH   9  15
ATOM     15  O   UNL d   1      -2.288  -0.754  -3.159  0.00  0.00    -0.353 OA
ATOM     16  C   UNL d   1      -2.282  -1.455  -4.400  0.00  0.00     0.210 C 
ENDBRANCH   9  15
ENDBRANCH   1   5
BRANCH   2  17
ATOM     17  C   UNL d   1       0.866   0.227   2.248  0.00  0.00     0.068 A 
ATOM     18  C   UNL d   1       0.714   1.124   3.316  0.00  0.00     0.095 A 
ATOM     19  C   UNL d   1       1.388   0.863   4.520  0.00  0.00     0.039 A 
ATOM     20  C   UNL d   1       2.127  -0.307   4.693  0.00  0.00     0.003 A 
ATOM     21  C   UNL d   1       2.226  -1.223   3.651  0.00  0.00     0.002 A 
ATOM     22  C   UNL d   1       1.615  -0.945   2.428  0.00  0.00     0.032 A 
BRANCH  18  23
ATOM     23  O   UNL d   1       0.062   2.330   3.310  0.00  0.00    -0.347 OA
BRANCH  23  24
ATOM     24  C   UNL d   1      -1.193   2.352   2.647  0.00  0.00     0.201 C 
BRANCH  24  25
ATOM     25  C   UNL d   1      -2.109   3.377   3.302  0.00  0.00     0.193 C 
BRANCH  25  26
ATOM     26  O   UNL d   1      -3.368   3.330   2.630  0.00  0.00    -0.394 OA
ATOM     27  C   UNL d   1      -4.276   4.297   3.136  0.00  0.00     0.201 C 
ENDBRANCH  25  26
ENDBRANCH  24  25
ENDBRANCH  23  24
ENDBRANCH  18  23
ENDBRANCH   2  17
TORSDOF 9
