REMARK  6 active torsions:
REMARK  status: ('A' for Active; 'I' for Inactive)
REMARK    1  A    between atoms: N_7  and  C_1 
REMARK       I    between atoms: C_12  and  N_2 
REMARK    2  A    between atoms: C_14  and  C_6 
REMARK    3  A    between atoms: N_8  and  N_7 
REMARK       I    between atoms: C_13  and  N_7 
REMARK    4  A    between atoms: C_10  and  C_15 
REMARK    5  A    between atoms: C_11  and  C_16 
REMARK    6  A    between atoms: C_32  and  C_17 
ROOT
ATOM      1  C   UNL d   1       0.222  -1.082   0.216  0.00  0.00     0.186 A 
ATOM      2  N   UNL d   1       1.384   0.754  -0.231  0.00  0.00    -0.240 N 
ATOM      3  S   UNL d   1      -0.955   0.107   0.718  0.00  0.00    -0.058 SA
ATOM      4  N   UNL d   1       1.370  -0.623  -0.188  0.00  0.00    -0.272 N 
ATOM      5  HN  UNL d   1       2.164  -1.211  -0.441  1.00  0.00     0.189 HD
ATOM      6  C   UNL d   1       0.178   1.443   0.216  0.00  0.00     0.213 A 
ATOM      7  C   UNL d   1       2.563   1.447  -0.447  0.00  0.00     0.235 C 
ATOM      8  O   UNL d   1       2.649   2.671  -0.338  0.00  0.00    -0.272 OA
ATOM      9  C   UNL d   1       3.788   0.621  -0.769  0.00  0.00     0.119 C 
ENDROOT
BRANCH   1  10
ATOM     10  N   UNL d   1      -0.059  -2.446   0.361  0.00  0.00    -0.200 N 
ATOM     11  C   UNL d   1      -1.315  -2.982   0.037  0.00  0.00     0.240 C 
ATOM     12  O   UNL d   1      -2.266  -2.331  -0.404  0.00  0.00    -0.272 OA
ATOM     13  C   UNL d   1      -1.496  -4.478   0.206  0.00  0.00     0.119 C 
BRANCH  10  14
ATOM     14  N   UNL d   1       0.978  -3.369   0.546  0.00  0.00    -0.300 N 
ATOM     15  C   UNL d   1       2.001  -3.017   1.260  0.00  0.00     0.119 C 
ATOM     16  HN  UNL d   1       0.929  -4.298   0.128  1.00  0.00     0.186 HD
BRANCH  15  17
ATOM     17  C   UNL d   1       3.125  -3.946   1.506  0.00  0.00    -0.019 A 
ATOM     18  C   UNL d   1       3.076  -5.265   1.048  0.00  0.00     0.013 A 
ATOM     19  C   UNL d   1       4.140  -6.133   1.305  0.00  0.00     0.017 A 
ATOM     20  C   UNL d   1       5.266  -5.691   2.018  0.00  0.00     0.048 A 
ATOM     21  C   UNL d   1       5.301  -4.363   2.476  0.00  0.00     0.017 A 
ATOM     22  C   UNL d   1       4.235  -3.493   2.223  0.00  0.00     0.013 A 
BRANCH  20  23
ATOM     23  C   UNL d   1       6.429  -6.617   2.292  0.00  0.00     0.417 C 
ATOM     24  F   UNL d   1       6.253  -7.874   1.798  0.00  0.00    -0.166 F 
ATOM     25  F   UNL d   1       7.592  -6.162   1.751  0.00  0.00    -0.166 F 
ATOM     26  F   UNL d   1       6.669  -6.770   3.624  0.00  0.00    -0.166 F 
ENDBRANCH  20  23
ENDBRANCH  15  17
ENDBRANCH  10  14
ENDBRANCH   1  10
BRANCH   6  27
ATOM     27  C   UNL d   1      -0.501   2.342  -0.803  0.00  0.00    -0.023 A 
ATOM     28  C   UNL d   1      -1.217   3.465  -0.350  0.00  0.00     0.011 A 
ATOM     29  C   UNL d   1      -1.961   4.250  -1.235  0.00  0.00     0.017 A 
ATOM     30  C   UNL d   1      -2.011   3.931  -2.598  0.00  0.00     0.047 A 
ATOM     31  C   UNL d   1      -1.267   2.836  -3.062  0.00  0.00     0.017 A 
ATOM     32  C   UNL d   1      -0.524   2.047  -2.175  0.00  0.00     0.011 A 
BRANCH  30  33
ATOM     33  C   UNL d   1      -2.881   4.742  -3.527  0.00  0.00     0.417 C 
ATOM     34  F   UNL d   1      -2.859   4.306  -4.818  0.00  0.00    -0.166 F 
ATOM     35  F   UNL d   1      -4.192   4.726  -3.154  0.00  0.00    -0.166 F 
ATOM     36  F   UNL d   1      -2.524   6.055  -3.572  0.00  0.00    -0.166 F 
ENDBRANCH  30  33
ENDBRANCH   6  27
TORSDOF 6
