REMARK  4 active torsions:
REMARK  status: ('A' for Active; 'I' for Inactive)
REMARK    1  A    between atoms: N_8  and  C_3 
REMARK    2  A    between atoms: N_9  and  C_4 
REMARK    3  A    between atoms: N_7  and  C_5 
REMARK       I    between atoms: C_6  and  N_7 
REMARK    4  A    between atoms: C_10  and  C_6 
ROOT
ATOM      1  N   UNL d   1      -1.220   0.066   0.080  0.00  0.00    -0.331 N 
ATOM      2  HN  UNL d   1      -2.240   0.101   0.083  1.00  0.00     0.168 HD
ATOM      3  C   UNL d   1      -0.492   1.207   0.139  0.00  0.00     0.111 A 
ATOM      4  C   UNL d   1      -0.569  -1.127   0.018  0.00  0.00     0.104 A 
ATOM      5  C   UNL d   1       0.924   1.183   0.139  0.00  0.00     0.074 A 
ATOM      6  C   UNL d   1       0.826  -1.188   0.020  0.00  0.00     0.051 A 
ATOM      7  C   UNL d   1       1.583  -0.030   0.070  0.00  0.00     0.037 A 
ENDROOT
BRANCH   5   8
ATOM      8  N   UNL d   1       1.632   2.395   0.283  0.00  0.00    -0.320 N 
ATOM      9  C   UNL d   1       2.792   2.688  -0.404  0.00  0.00     0.256 C 
ATOM     10  O   UNL d   1       3.363   1.960  -1.207  0.00  0.00    -0.267 OA
ATOM     11  H   UNL d   1       1.064   3.166   0.608  0.00  0.00     0.169 HD
BRANCH   9  12
ATOM     12  C   UNL d   1       3.297   4.064  -0.190  0.00  0.00     0.032 A 
ATOM     13  C   UNL d   1       3.366   4.603   1.098  0.00  0.00     0.017 A 
ATOM     14  C   UNL d   1       3.914   5.872   1.285  0.00  0.00     0.007 A 
ATOM     15  C   UNL d   1       4.391   6.609   0.192  0.00  0.00    -0.062 A 
ATOM     16  C   UNL d   1       4.288   6.073  -1.098  0.00  0.00     0.007 A 
ATOM     17  C   UNL d   1       5.027   7.949   0.420  0.00  0.00     0.048 C 
ATOM     18  C   UNL d   1       3.751   4.799  -1.289  0.00  0.00     0.017 A 
ENDBRANCH   9  12
ENDBRANCH   5   8
BRANCH   3  19
ATOM     19  N   UNL d   1      -1.106   2.474   0.211  0.00  0.00    -0.263 NA
ATOM     20  C   UNL d   1      -2.486   2.514   0.714  0.00  0.00     0.123 C 
ATOM     21  C   UNL d   1      -2.790   3.987   1.069  0.00  0.00     0.182 C 
ATOM     22  O   UNL d   1      -2.607   4.870  -0.059  0.00  0.00    -0.389 OA
ATOM     23  C   UNL d   1      -1.281   4.749  -0.606  0.00  0.00     0.182 C 
ATOM     24  C   UNL d   1      -0.986   3.295  -1.016  0.00  0.00     0.123 C 
ENDBRANCH   3  19
BRANCH   4  25
ATOM     25  N   UNL d   1      -1.276  -2.303  -0.160  0.00  0.00    -0.363 N 
ATOM     26  C   UNL d   1      -0.947  -3.518   0.598  0.00  0.00     0.150 C 
ATOM     27  C   UNL d   1      -1.261  -4.734  -0.288  0.00  0.00     0.187 C 
ATOM     28  O   UNL d   1      -2.638  -4.730  -0.708  0.00  0.00    -0.388 OA
ATOM     29  C   UNL d   1      -2.942  -3.523  -1.436  0.00  0.00     0.187 C 
ATOM     30  C   UNL d   1      -2.673  -2.256  -0.596  0.00  0.00     0.150 C 
ENDBRANCH   4  25
TORSDOF 4
