REMARK  5 active torsions:
REMARK  status: ('A' for Active; 'I' for Inactive)
REMARK    1  A    between atoms: C_3  and  C_1 
REMARK       I    between atoms: N_8  and  C_3 
REMARK    2  A    between atoms: C_9  and  C_5 
REMARK    3  A    between atoms: C_7  and  O_11 
REMARK    4  A    between atoms: C_14  and  N_8 
REMARK    5  A    between atoms: O_11  and  C_18 
ROOT
ATOM      1  C   UNL d   1       0.255  -2.620   0.265  0.00  0.00     0.258 C 
ATOM      2  N   UNL d   1      -0.780  -3.538   0.330  0.00  0.00    -0.323 N 
ATOM      3  O   UNL d   1       1.445  -2.912   0.212  0.00  0.00    -0.267 OA
ATOM      4  H   UNL d   1      -1.721  -3.173   0.320  0.00  0.00     0.169 HD
ENDROOT
BRANCH   1   5
ATOM      5  C   UNL d   1      -0.180  -1.219   0.238  0.00  0.00     0.064 A 
ATOM      6  C   UNL d   1      -1.481  -0.646   0.392  0.00  0.00     0.057 A 
ATOM      7  C   UNL d   1      -1.355   0.726   0.268  0.00  0.00     0.087 A 
ATOM      8  O   UNL d   1      -0.043   1.030   0.060  0.00  0.00    -0.314 OA
ATOM      9  C   UNL d   1       0.666  -0.132   0.045  0.00  0.00     0.065 A 
ATOM     10  C   UNL d   1       2.119   0.037  -0.175  0.00  0.00     0.077 C 
BRANCH   7  11
ATOM     11  C   UNL d   1      -2.280   1.853   0.322  0.00  0.00    -0.002 A 
ATOM     12  C   UNL d   1      -3.638   1.652   0.620  0.00  0.00     0.016 A 
ATOM     13  C   UNL d   1      -4.531   2.729   0.676  0.00  0.00     0.024 A 
ATOM     14  C   UNL d   1      -4.074   4.021   0.433  0.00  0.00     0.034 A 
ATOM     15  C   UNL d   1      -2.733   4.245   0.133  0.00  0.00     0.024 A 
ATOM     16 CL   UNL d   1      -5.169   5.344   0.506  0.00  0.00    -0.084 Cl
ATOM     17  C   UNL d   1      -1.844   3.166   0.079  0.00  0.00     0.016 A 
ENDBRANCH   7  11
ENDBRANCH   1   5
BRANCH   2  18
ATOM     18  C   UNL d   1      -0.673  -4.946   0.315  0.00  0.00     0.035 A 
ATOM     19  C   UNL d   1       0.535  -5.644   0.365  0.00  0.00     0.032 A 
ATOM     20  C   UNL d   1       0.564  -7.047   0.322  0.00  0.00     0.039 A 
ATOM     21  C   UNL d   1      -0.622  -7.772   0.253  0.00  0.00     0.078 A 
ATOM     22  C   UNL d   1      -1.832  -7.077   0.192  0.00  0.00     0.039 A 
ATOM     23  C   UNL d   1      -1.861  -5.679   0.232  0.00  0.00     0.032 A 
BRANCH  21  24
ATOM     24  O   UNL d   1      -0.752  -9.128   0.245  0.00  0.00    -0.255 OA
BRANCH  24  25
ATOM     25  C   UNL d   1       0.394  -9.921   0.507  0.00  0.00     0.530 C 
ATOM     26  F   UNL d   1       1.102  -9.463   1.561  0.00  0.00    -0.144 F 
ATOM     27  F   UNL d   1      -0.014 -11.177   0.800  0.00  0.00    -0.144 F 
ATOM     28  F   UNL d   1       1.189  -9.978  -0.581  0.00  0.00    -0.144 F 
ENDBRANCH  24  25
ENDBRANCH  21  24
ENDBRANCH   2  18
TORSDOF 5
