REMARK  0 active torsions:
REMARK  status: ('A' for Active; 'I' for Inactive)
ROOT
ATOM      1  C   UNL d   1      -0.930   0.542  -0.006  0.00  0.00     0.093 A 
ATOM      2  C   UNL d   1       0.511   0.468  -0.014  0.00  0.00     0.020 A 
ATOM      3  N   UNL d   1      -1.703   1.620  -0.136  0.00  0.00    -0.239 N 
ATOM      4  HN  UNL d   1      -1.411   2.589  -0.260  1.00  0.00     0.197 HD
ATOM      5  C   UNL d   1      -1.732  -0.596   0.155  0.00  0.00     0.064 A 
ATOM      6  O   UNL d   1      -3.012   1.117  -0.063  0.00  0.00    -0.156 OA
ATOM      7  N   UNL d   1      -3.020  -0.275   0.126  0.00  0.00    -0.244 N 
ATOM      8  HN  UNL d   1      -3.826  -0.893   0.219  1.00  0.00     0.196 HD
ATOM      9  C   UNL d   1       1.085  -0.808  -0.091  0.00  0.00     0.038 A 
ATOM     10  N   UNL d   1       2.424  -0.974  -0.077  0.00  0.00    -0.304 N 
ATOM     11  HN  UNL d   1       2.826  -1.908  -0.149  1.00  0.00     0.186 HD
ATOM     12  N   UNL d   1       3.237   0.118   0.034  0.00  0.00    -0.312 N 
ATOM     13  HN  UNL d   1       4.250   0.000   0.058  1.00  0.00     0.186 HD
ATOM     14  C   UNL d   1      -1.167  -1.950   0.365  0.00  0.00     0.067 C 
ATOM     15  C   UNL d   1       0.226  -2.045  -0.292  0.00  0.00     0.065 C 
ATOM     16  C   UNL d   1       1.337   1.578   0.089  0.00  0.00     0.034 A 
ATOM     17  C   UNL d   1       2.698   1.354   0.113  0.00  0.00     0.108 A 
ENDROOT
TORSDOF 0
