REMARK  7 active torsions:
REMARK  status: ('A' for Active; 'I' for Inactive)
REMARK    1  A    between atoms: C_7  and  C_1 
REMARK    2  A    between atoms: C_4  and  C_8 
REMARK    3  A    between atoms: C_5  and  C_9 
REMARK    4  A    between atoms: O_19  and  C_7 
REMARK    5  A    between atoms: C_12  and  C_13 
REMARK    6  A    between atoms: N_27  and  C_13 
REMARK    7  A    between atoms: N_14  and  O_19 
ROOT
ATOM      1  C   UNL d   1      -3.617   3.071  -0.033  0.00  0.00     0.109 C 
ATOM      2  N   UNL d   1      -2.437   2.560  -0.230  0.00  0.00    -0.246 N 
ATOM      3  HN  UNL d   1      -1.615   3.100  -0.501  1.00  0.00     0.196 HD
ENDROOT
BRANCH   1   4
ATOM      4  C   UNL d   1      -3.803   4.552  -0.215  0.00  0.00     0.005 A 
ATOM      5  C   UNL d   1      -2.907   5.285  -1.004  0.00  0.00     0.031 A 
ATOM      6  C   UNL d   1      -3.120   6.655  -1.249  0.00  0.00     0.049 A 
ATOM      7  C   UNL d   1      -4.240   7.285  -0.680  0.00  0.00     0.032 A 
ATOM      8  C   UNL d   1      -5.140   6.570   0.125  0.00  0.00     0.049 A 
ATOM      9  C   UNL d   1      -4.903   5.205   0.362  0.00  0.00     0.031 A 
BRANCH   6  10
ATOM     10  C   UNL d   1      -2.168   7.423  -2.139  0.00  0.00     0.417 C 
ATOM     11  F   UNL d   1      -2.535   8.723  -2.321  0.00  0.00    -0.166 F 
ATOM     12  F   UNL d   1      -0.901   7.458  -1.648  0.00  0.00    -0.166 F 
ATOM     13  F   UNL d   1      -2.081   6.886  -3.387  0.00  0.00    -0.166 F 
ENDBRANCH   6  10
BRANCH   8  14
ATOM     14  C   UNL d   1      -6.363   7.236   0.714  0.00  0.00     0.417 C 
ATOM     15  F   UNL d   1      -6.519   8.530   0.323  0.00  0.00    -0.166 F 
ATOM     16  F   UNL d   1      -7.512   6.597   0.359  0.00  0.00    -0.166 F 
ATOM     17  F   UNL d   1      -6.347   7.251   2.074  0.00  0.00    -0.166 F 
ENDBRANCH   8  14
ENDBRANCH   1   4
BRANCH   1  18
ATOM     18  N   UNL d   1      -4.719   2.313   0.301  0.00  0.00    -0.286 NA
ATOM     19  H   UNL d   1      -5.605   2.630  -0.079  0.00  0.00     0.125 HD
ATOM     20  H   UNL d   1      -4.574   1.326   0.129  0.00  0.00     0.125 HD
ENDBRANCH   1  18
BRANCH   2  21
ATOM     21  O   UNL d   1      -2.437   1.158  -0.021  0.00  0.00    -0.193 OA
BRANCH  21  22
ATOM     22  C   UNL d   1      -1.190   0.621  -0.273  0.00  0.00     0.319 C 
ATOM     23  O   UNL d   1      -0.212   1.250  -0.665  0.00  0.00    -0.257 OA
BRANCH  22  24
ATOM     24  C   UNL d   1      -1.142  -0.815  -0.042  0.00  0.00     0.096 A 
ATOM     25  C   UNL d   1      -2.143  -1.658   0.399  0.00  0.00     0.090 A 
ATOM     26  O   UNL d   1      -1.668  -2.929   0.473  0.00  0.00    -0.242 OA
ATOM     27  C   UNL d   1      -3.557  -1.497   0.787  0.00  0.00     0.080 C 
ATOM     28  N   UNL d   1      -0.347  -2.956   0.088  0.00  0.00    -0.265 N 
ATOM     29  C   UNL d   1      -0.030  -1.693  -0.217  0.00  0.00     0.047 A 
ATOM     30  HN  UNL d   1       0.264  -3.772   0.044  1.00  0.00     0.194 HD
ATOM     31  C   UNL d   1       1.345  -1.377  -0.676  0.00  0.00     0.071 C 
ENDBRANCH  22  24
ENDBRANCH  21  22
ENDBRANCH   2  21
TORSDOF 7
