REMARK  10 active torsions:
REMARK  status: ('A' for Active; 'I' for Inactive)
REMARK    1  A    between atoms: C_7  and  C_1 
REMARK    2  A    between atoms: N_6  and  C_2 
REMARK    3  A    between atoms: N_3  and  C_4 
REMARK       I    between atoms: C_5  and  N_3 
REMARK    4  A    between atoms: C_4  and  N_6 
REMARK    5  A    between atoms: C_12  and  C_5 
REMARK    6  A    between atoms: O_17  and  C_7 
REMARK    7  A    between atoms: C_21  and  C_20 
REMARK    8  A    between atoms: C_23  and  C_21 
REMARK    9  A    between atoms: C_25  and  C_23 
REMARK   10  A    between atoms: C_24  and  C_25 
ROOT
ATOM      1  N   UNL d   1       1.086   3.253   1.865  0.00  0.00    -0.299 N 
ATOM      2  C   UNL d   1      -0.038   2.702   1.251  0.00  0.00     0.257 C 
ATOM      3  O   UNL d   1      -0.919   3.451   0.823  0.00  0.00    -0.267 OA
ATOM      4  H   UNL d   1       0.909   4.238   2.026  0.00  0.00     0.171 HD
ENDROOT
BRANCH   1   5
ATOM      5  C   UNL d   1       2.457   3.081   1.631  0.00  0.00     0.179 C 
ATOM      6  S   UNL d   1       3.185   2.064   0.535  0.00  0.00    -0.040 SA
BRANCH   5   7
ATOM      7  N   UNL d   1       3.246   3.953   2.353  0.00  0.00    -0.332 N 
ATOM      8  H   UNL d   1       4.163   4.170   1.960  0.00  0.00     0.168 HD
BRANCH   7   9
ATOM      9  C   UNL d   1       3.145   4.170   3.737  0.00  0.00     0.058 A 
ATOM     10  C   UNL d   1       3.882   5.124   4.418  0.00  0.00     0.106 A 
ATOM     11  S   UNL d   1       3.644   4.993   6.124  0.00  0.00    -0.094 SA
ATOM     12  C   UNL d   1       2.520   3.736   5.949  0.00  0.00     0.053 A 
ATOM     13  C   UNL d   1       2.317   3.407   4.628  0.00  0.00     0.038 A 
BRANCH  10  14
ATOM     14  C   UNL d   1       4.764   6.152   3.883  0.00  0.00     0.302 C 
ATOM     15  O   UNL d   1       5.211   6.173   2.744  0.00  0.00    -0.259 OA
BRANCH  14  16
ATOM     16  O   UNL d   1       4.984   7.131   4.814  0.00  0.00    -0.322 OA
ATOM     17  C   UNL d   1       5.741   8.266   4.401  0.00  0.00     0.213 C 
ENDBRANCH  14  16
ENDBRANCH  10  14
ENDBRANCH   7   9
ENDBRANCH   5   7
ENDBRANCH   1   5
BRANCH   2  18
ATOM     18  C   UNL d   1      -0.183   1.232   1.125  0.00  0.00     0.032 C 
ATOM     19  C   UNL d   1       0.467   0.352   1.996  0.00  0.00     0.017 C 
ATOM     20  C   UNL d   1       0.445  -1.017   1.740  0.00  0.00     0.008 C 
ATOM     21  C   UNL d   1      -0.238  -1.524   0.626  0.00  0.00    -0.058 C 
ATOM     22  C   UNL d   1      -1.046  -0.658  -0.122  0.00  0.00     0.008 C 
ATOM     23  C   UNL d   1      -1.002   0.716   0.112  0.00  0.00     0.017 C 
BRANCH  21  24
ATOM     24  C   UNL d   1      -0.016  -2.959   0.211  0.00  0.00     0.038 C 
BRANCH  24  25
ATOM     25  C   UNL d   1       0.276  -3.169  -1.288  0.00  0.00     0.005 C 
BRANCH  25  26
ATOM     26  C   UNL d   1       1.253  -2.185  -1.950  0.00  0.00    -0.000 C 
BRANCH  26  27
ATOM     27  C   UNL d   1       2.643  -2.130  -1.317  0.00  0.00    -0.005 C 
ATOM     28  C   UNL d   1       3.470  -1.013  -1.936  0.00  0.00     0.005 C 
ENDBRANCH  26  27
ENDBRANCH  25  26
ENDBRANCH  24  25
ENDBRANCH  21  24
ENDBRANCH   2  18
TORSDOF 10
