REMARK  5 active torsions:
REMARK  status: ('A' for Active; 'I' for Inactive)
REMARK    1  A    between atoms: S_3  and  C_1 
REMARK    2  A    between atoms: N_5  and  C_2 
REMARK    3  A    between atoms: C_10  and  S_3 
REMARK    4  A    between atoms: S_18  and  C_4 
REMARK       I    between atoms: C_9  and  N_5 
REMARK    5  A    between atoms: C_11  and  C_9 
ROOT
ATOM      1  C   UNL d   1       0.788   0.837  -0.355  0.00  0.00     0.144 C 
ATOM      2  C   UNL d   1       0.992  -0.495  -0.055  0.00  0.00     0.148 C 
ATOM      3  C   UNL d   1      -0.585   1.054  -0.148  0.00  0.00     0.110 C 
ATOM      4  N   UNL d   1      -0.257  -1.021   0.136  0.00  0.00    -0.283 N 
ATOM      5  N   UNL d   1      -1.230  -0.085   0.123  0.00  0.00    -0.291 N 
ATOM      6  HN  UNL d   1      -2.229  -0.217   0.284  1.00  0.00     0.187 HD
ATOM      7  H   UNL d   1      -0.508  -1.989   0.323  0.00  0.00     0.188 HD
ENDROOT
BRANCH   2   8
ATOM      8  N   UNL d   1       2.232  -1.122   0.021  0.00  0.00    -0.306 N 
ATOM      9  C   UNL d   1       2.403  -2.527  -0.166  0.00  0.00     0.257 C 
ATOM     10  O   UNL d   1       1.435  -3.215  -0.441  0.00  0.00    -0.267 OA
ATOM     11  H   UNL d   1       3.047  -0.501   0.047  0.00  0.00     0.170 HD
BRANCH   9  12
ATOM     12  C   UNL d   1       3.801  -3.036  -0.124  0.00  0.00     0.034 A 
ATOM     13  C   UNL d   1       4.777  -2.438   0.687  0.00  0.00     0.042 A 
ATOM     14  C   UNL d   1       6.099  -2.907   0.657  0.00  0.00     0.056 A 
ATOM     15 CL   UNL d   1       7.246  -2.122   1.683  0.00  0.00    -0.083 Cl
ATOM     16  C   UNL d   1       6.453  -3.970  -0.183  0.00  0.00     0.055 A 
ATOM     17  C   UNL d   1       5.470  -4.585  -0.965  0.00  0.00     0.026 A 
ATOM     18 CL   UNL d   1       8.071  -4.556  -0.311  0.00  0.00    -0.083 Cl
ATOM     19  C   UNL d   1       4.149  -4.127  -0.931  0.00  0.00     0.019 A 
ENDBRANCH   9  12
ENDBRANCH   2   8
BRANCH   1  20
ATOM     20  S   UNL d   1       2.001   1.930  -0.840  0.00  0.00     0.213 S 
ATOM     21  O   UNL d   1       1.790   3.124  -0.042  0.00  0.00    -0.217 OA
ATOM     22  O   UNL d   1       3.213   1.137  -0.684  0.00  0.00    -0.217 OA
BRANCH  20  23
ATOM     23  C   UNL d   1       1.873   2.347  -2.556  0.00  0.00     0.064 A 
ATOM     24  C   UNL d   1       0.756   2.054  -3.343  0.00  0.00     0.025 A 
ATOM     25  C   UNL d   1       0.763   2.393  -4.711  0.00  0.00     0.025 A 
ATOM     26  C   UNL d   1       1.880   3.007  -5.274  0.00  0.00     0.034 A 
ATOM     27  C   UNL d   1       2.997   3.288  -4.496  0.00  0.00     0.025 A 
ATOM     28 CL   UNL d   1       1.888   3.393  -6.950  0.00  0.00    -0.084 Cl
ATOM     29  C   UNL d   1       2.994   2.960  -3.136  0.00  0.00     0.025 A 
ENDBRANCH  20  23
ENDBRANCH   1  20
BRANCH   3  30
ATOM     30  S   UNL d   1      -1.429   2.580  -0.262  0.00  0.00    -0.114 SA
ATOM     31  C   UNL d   1      -2.974   2.258   0.616  0.00  0.00     0.097 C 
ENDBRANCH   3  30
TORSDOF 5
