REMARK  4 active torsions:
REMARK  status: ('A' for Active; 'I' for Inactive)
REMARK    1  A    between atoms: C_8  and  C_2 
REMARK    2  A    between atoms: N_9  and  C_5 
REMARK    3  A    between atoms: C_12  and  N_9 
REMARK    4  A    between atoms: C_11  and  C_12 
ROOT
ATOM      1  S   UNL d   1       3.093   4.944  -0.077  0.00  0.00    -0.033 SA
ATOM      2  C   UNL d   1       1.619   4.029  -0.074  0.00  0.00     0.097 A 
ATOM      3  N   UNL d   1       1.857   2.725  -0.033  0.00  0.00    -0.291 N 
ATOM      4  HN  UNL d   1       1.118   2.022  -0.021  1.00  0.00     0.187 HD
ATOM      5  C   UNL d   1       3.973   3.471  -0.023  0.00  0.00     0.161 A 
ATOM      6  N   UNL d   1       3.202   2.409  -0.007  0.00  0.00    -0.279 N 
ATOM      7  HN  UNL d   1       3.557   1.454   0.020  1.00  0.00     0.189 HD
ENDROOT
BRANCH   5   8
ATOM      8  N   UNL d   1       5.324   3.493  -0.008  0.00  0.00    -0.369 N 
ATOM      9  H   UNL d   1       5.805   4.381   0.008  0.00  0.00     0.161 HD
BRANCH   8  10
ATOM     10  C   UNL d   1       6.097   2.265   0.024  0.00  0.00     0.130 C 
BRANCH  10  11
ATOM     11  C   UNL d   1       7.625   2.542  -0.007  0.00  0.00    -0.035 C 
ATOM     12  C   UNL d   1       8.062   3.350   1.228  0.00  0.00     0.016 C 
ATOM     13  C   UNL d   1       8.383   1.199  -0.002  0.00  0.00     0.016 C 
ATOM     14  C   UNL d   1       8.013   3.306  -1.286  0.00  0.00     0.016 C 
ENDBRANCH  10  11
ENDBRANCH   8  10
ENDBRANCH   5   8
BRANCH   2  15
ATOM     15  C   UNL d   1       0.325   4.682  -0.116  0.00  0.00    -0.031 C 
ATOM     16  C   UNL d   1      -0.761   3.871  -0.097  0.00  0.00    -0.021 C 
ATOM     17  C   UNL d   1      -2.203   4.281  -0.135  0.00  0.00     0.036 C 
ATOM     18  C   UNL d   1       0.104   6.180  -0.180  0.00  0.00     0.050 C 
ENDBRANCH   2  15
TORSDOF 4
