REMARK  3 active torsions:
REMARK  status: ('A' for Active; 'I' for Inactive)
REMARK    1  A    between atoms: N_11  and  C_2 
REMARK    2  A    between atoms: C_13  and  N_11 
REMARK    3  A    between atoms: C_14  and  N_11 
ROOT
ATOM      1  C   UNL d   1      -1.359  -0.617  -0.939  0.00  0.00     0.070 A 
ATOM      2  C   UNL d   1      -0.690  -1.499  -0.062  0.00  0.00     0.103 A 
ATOM      3  N   UNL d   1      -0.086  -0.943   1.017  0.00  0.00    -0.342 N 
ATOM      4  HN  UNL d   1       0.431  -1.527   1.674  1.00  0.00     0.167 HD
ATOM      5  S   UNL d   1      -2.173  -0.924  -2.433  0.00  0.00    -0.096 SA
ATOM      6  C   UNL d   1      -1.386   0.747  -0.648  0.00  0.00     0.054 A 
ATOM      7  C   UNL d   1      -2.580   0.719  -2.648  0.00  0.00     0.053 A 
ATOM      8  C   UNL d   1      -2.090   1.504  -1.632  0.00  0.00     0.038 A 
ATOM      9  N   UNL d   1      -0.799   1.278   0.448  0.00  0.00    -0.351 N 
ATOM     10  HN  UNL d   1      -0.831   2.273   0.670  1.00  0.00     0.166 HD
ATOM     11  C   UNL d   1      -0.172   0.380   1.213  0.00  0.00     0.182 A 
ENDROOT
BRANCH   2  12
ATOM     12  N   UNL d   1      -0.582  -2.881  -0.288  0.00  0.00    -0.269 NA
BRANCH  12  13
ATOM     13  C   UNL d   1       0.600  -3.527   0.306  0.00  0.00     0.092 C 
ATOM     14  C   UNL d   1       1.881  -3.144  -0.418  0.00  0.00     0.021 C 
ENDBRANCH  12  13
BRANCH  12  15
ATOM     15  C   UNL d   1      -1.851  -3.609  -0.111  0.00  0.00     0.092 C 
ATOM     16  C   UNL d   1      -2.179  -3.910   1.347  0.00  0.00     0.021 C 
ENDBRANCH  12  15
ENDBRANCH   2  12
TORSDOF 3
