REMARK  7 active torsions:
REMARK  status: ('A' for Active; 'I' for Inactive)
REMARK    1  A    between atoms: C_7  and  C_1 
REMARK    2  A    between atoms: C_2  and  C_4 
REMARK    3  A    between atoms: C_3  and  C_5 
REMARK    4  A    between atoms: C_10  and  C_30 
REMARK    5  A    between atoms: N_20  and  C_17 
REMARK    6  A    between atoms: O_29  and  N_20 
REMARK    7  A    between atoms: C_30  and  O_29 
ROOT
ATOM      1  C   UNL d   1       0.070   1.077   0.249  0.00  0.00     0.086 A 
ATOM      2  O   UNL d   1      -0.765   0.006   0.436  0.00  0.00    -0.309 OA
ATOM      3  C   UNL d   1       1.260   0.649  -0.300  0.00  0.00     0.041 A 
ATOM      4  C   UNL d   1      -0.078  -1.113   0.043  0.00  0.00     0.093 A 
ATOM      5  C   UNL d   1       1.163  -0.752  -0.443  0.00  0.00     0.041 A 
ATOM      6  C   UNL d   1      -0.677  -2.405   0.209  0.00  0.00     0.151 C 
ENDROOT
BRANCH   1   7
ATOM      7  C   UNL d   1      -0.424   2.396   0.620  0.00  0.00    -0.001 A 
ATOM      8  C   UNL d   1       0.486   3.397   1.001  0.00  0.00     0.030 A 
ATOM      9  C   UNL d   1       0.075   4.725   1.207  0.00  0.00     0.049 A 
ATOM     10  C   UNL d   1      -1.280   5.043   1.050  0.00  0.00     0.032 A 
ATOM     11  C   UNL d   1      -2.215   4.056   0.691  0.00  0.00     0.049 A 
ATOM     12  C   UNL d   1      -1.777   2.733   0.498  0.00  0.00     0.030 A 
BRANCH   9  13
ATOM     13  C   UNL d   1       1.102   5.784   1.534  0.00  0.00     0.417 C 
ATOM     14  F   UNL d   1       0.591   7.045   1.560  0.00  0.00    -0.166 F 
ATOM     15  F   UNL d   1       1.688   5.589   2.746  0.00  0.00    -0.166 F 
ATOM     16  F   UNL d   1       2.117   5.812   0.627  0.00  0.00    -0.166 F 
ENDBRANCH   9  13
BRANCH  11  17
ATOM     17  C   UNL d   1      -3.664   4.409   0.445  0.00  0.00     0.417 C 
ATOM     18  F   UNL d   1      -3.925   5.739   0.578  0.00  0.00    -0.166 F 
ATOM     19  F   UNL d   1      -4.067   4.076  -0.812  0.00  0.00    -0.166 F 
ATOM     20  F   UNL d   1      -4.512   3.772   1.296  0.00  0.00    -0.166 F 
ENDBRANCH  11  17
ENDBRANCH   1   7
BRANCH   6  21
ATOM     21  N   UNL d   1       0.061  -3.467   0.137  0.00  0.00    -0.275 N 
ATOM     22  HN  UNL d   1       1.062  -3.473  -0.062  1.00  0.00     0.193 HD
BRANCH  21  23
ATOM     23  O   UNL d   1      -0.722  -4.611   0.373  0.00  0.00    -0.276 OA
BRANCH  23  24
ATOM     24  C   UNL d   1       0.117  -5.608   0.961  0.00  0.00     0.241 C 
BRANCH  24  25
ATOM     25  C   UNL d   1      -0.620  -6.926   1.071  0.00  0.00    -0.020 A 
ATOM     26  C   UNL d   1      -0.514  -7.910   0.059  0.00  0.00    -0.052 A 
ATOM     27  C   UNL d   1      -1.112  -9.171   0.250  0.00  0.00     0.014 A 
ATOM     28  C   UNL d   1       0.204  -7.698  -1.248  0.00  0.00     0.049 C 
ATOM     29  C   UNL d   1      -1.831  -9.469   1.408  0.00  0.00    -0.061 A 
ATOM     30  C   UNL d   1      -1.996  -8.473   2.370  0.00  0.00     0.014 A 
ATOM     31  C   UNL d   1      -2.445 -10.825   1.586  0.00  0.00     0.048 C 
ATOM     32  C   UNL d   1      -1.427  -7.197   2.205  0.00  0.00    -0.052 A 
ATOM     33  C   UNL d   1      -1.683  -6.183   3.289  0.00  0.00     0.049 C 
ENDBRANCH  24  25
ENDBRANCH  23  24
ENDBRANCH  21  23
ENDBRANCH   6  21
TORSDOF 7
