REMARK  3 active torsions:
REMARK  status: ('A' for Active; 'I' for Inactive)
REMARK    1  A    between atoms: N_2  and  C_3 
REMARK    2  A    between atoms: C_8  and  N_4 
REMARK    3  A    between atoms: C_5  and  C_8 
ROOT
ATOM      1  N   UNL d   1       1.411  -2.758  -0.168  0.00  0.00    -0.377 N 
ATOM      2  N   UNL d   1       1.773  -5.647   0.367  0.00  0.00     0.095 N 
ATOM      3  C   UNL d   1       2.179  -3.205   0.999  0.00  0.00     0.153 C 
ATOM      4  C   UNL d   1       0.370  -3.709  -0.607  0.00  0.00     0.153 C 
ATOM      5  C   UNL d   1       2.774  -4.608   0.728  0.00  0.00     0.292 C 
ATOM      6  C   UNL d   1       0.976  -5.129  -0.777  0.00  0.00     0.292 C 
ENDROOT
BRANCH   1   7
ATOM      7  C   UNL d   1       1.037  -1.400  -0.228  0.00  0.00     0.043 A 
ATOM      8  C   UNL d   1       0.779  -0.527   0.873  0.00  0.00     0.018 A 
ATOM      9  C   UNL d   1       0.553   0.834   0.632  0.00  0.00     0.044 A 
ATOM     10  C   UNL d   1       0.659  -0.689   2.291  0.00  0.00     0.033 A 
ATOM     11  N   UNL d   1       0.375   1.455   1.848  0.00  0.00    -0.365 N 
ATOM     12  C   UNL d   1       0.541   1.397  -0.649  0.00  0.00     0.030 A 
ATOM     13  C   UNL d   1       0.424   0.542   2.859  0.00  0.00     0.089 A 
ATOM     14  H   UNL d   1       0.210   2.446   1.962  0.00  0.00     0.165 HD
ATOM     15  C   UNL d   1       0.743   0.542  -1.726  0.00  0.00     0.005 A 
ATOM     16  C   UNL d   1       0.981  -0.816  -1.518  0.00  0.00     0.030 A 
ENDBRANCH   1   7
BRANCH   2  17
ATOM     17  C   UNL d   1       0.934  -5.975   1.534  0.00  0.00     0.312 C 
BRANCH  17  18
ATOM     18  C   UNL d   1       0.035  -7.178   1.328  0.00  0.00    -0.008 A 
ATOM     19  C   UNL d   1      -1.355  -7.134   1.507  0.00  0.00     0.042 A 
ATOM     20 CL   UNL d   1      -2.195  -5.684   1.918  0.00  0.00    -0.084 Cl
ATOM     21  C   UNL d   1      -2.129  -8.293   1.358  0.00  0.00     0.024 A 
ATOM     22  C   UNL d   1      -1.528  -9.506   1.029  0.00  0.00     0.002 A 
ATOM     23  C   UNL d   1      -0.148  -9.565   0.843  0.00  0.00     0.001 A 
ATOM     24  C   UNL d   1       0.627  -8.413   0.993  0.00  0.00     0.011 A 
ENDBRANCH  17  18
ENDBRANCH   2  17
TORSDOF 3
