REMARK  4 active torsions:
REMARK  status: ('A' for Active; 'I' for Inactive)
REMARK    1  A    between atoms: S_8  and  C_1 
REMARK    2  A    between atoms: C_9  and  N_2 
REMARK    3  A    between atoms: O_10  and  C_5 
REMARK    4  A    between atoms: C_11  and  S_8 
ROOT
ATOM      1  C   UNL d   1      -0.097  -1.294  -0.063  0.00  0.00     0.169 A 
ATOM      2  N   UNL d   1       1.143  -0.663  -0.036  0.00  0.00    -0.255 N 
ATOM      3  N   UNL d   1      -1.055  -0.421   0.154  0.00  0.00    -0.276 N 
ATOM      4  HN  UNL d   1      -2.051  -0.632   0.222  1.00  0.00     0.189 HD
ATOM      5  C   UNL d   1       0.804   0.678   0.121  0.00  0.00     0.245 A 
ATOM      6  N   UNL d   1      -0.489   0.820   0.273  0.00  0.00    -0.263 N 
ATOM      7  HN  UNL d   1      -0.984   1.694   0.448  1.00  0.00     0.190 HD
ENDROOT
BRANCH   2   8
ATOM      8  C   UNL d   1       2.464  -1.195  -0.111  0.00  0.00     0.045 A 
ATOM      9  C   UNL d   1       2.755  -2.332  -0.874  0.00  0.00     0.030 A 
ATOM     10  C   UNL d   1       4.054  -2.845  -0.911  0.00  0.00     0.002 A 
ATOM     11  C   UNL d   1       5.077  -2.221  -0.202  0.00  0.00     0.000 A 
ATOM     12  C   UNL d   1       4.804  -1.082   0.550  0.00  0.00     0.002 A 
ATOM     13  C   UNL d   1       3.504  -0.571   0.600  0.00  0.00     0.030 A 
ENDBRANCH   2   8
BRANCH   1  14
ATOM     14  S   UNL d   1      -0.365  -3.006  -0.193  0.00  0.00    -0.088 SA
BRANCH  14  15
ATOM     15  C   UNL d   1      -2.184  -3.141  -0.069  0.00  0.00     0.047 C 
ATOM     16  C   UNL d   1      -2.877  -2.616  -1.325  0.00  0.00     0.021 C 
ATOM     17  C   UNL d   1      -2.530  -4.617   0.132  0.00  0.00     0.021 C 
ENDBRANCH  14  15
ENDBRANCH   1  14
BRANCH   5  18
ATOM     18  O   UNL d   1       1.622   1.720   0.033  0.00  0.00    -0.331 OA
ATOM     19  H   UNL d   1       2.399   1.455  -0.483  0.00  0.00     0.221 HD
ENDBRANCH   5  18
TORSDOF 4
