REMARK  3 active torsions:
REMARK  status: ('A' for Active; 'I' for Inactive)
REMARK    1  A    between atoms: N_3  and  C_1 
REMARK    2  A    between atoms: C_2  and  C_4 
REMARK    3  A    between atoms: N_8  and  N_3 
ROOT
ATOM      1  C   UNL d   1      -1.003   4.187   0.579  0.00  0.00     0.209 C 
ATOM      2  N   UNL d   1      -1.033   2.889   0.564  0.00  0.00    -0.281 N 
ATOM      3  HN  UNL d   1      -1.778   2.394   1.053  1.00  0.00     0.188 HD
ATOM      4  N   UNL d   1       0.939   5.492  -0.547  0.00  0.00    -0.189 NA
ATOM      5  N   UNL d   1      -2.976   5.352   1.802  0.00  0.00    -0.189 NA
ATOM      6  C   UNL d   1       0.058   4.922  -0.051  0.00  0.00     0.130 C 
ATOM      7  C   UNL d   1      -2.102   4.813   1.262  0.00  0.00     0.130 C 
ENDROOT
BRANCH   2   8
ATOM      8  N   UNL d   1      -0.074   2.182  -0.102  0.00  0.00    -0.296 N 
ATOM      9  H   UNL d   1       0.881   2.544  -0.209  0.00  0.00     0.187 HD
BRANCH   8  10
ATOM     10  C   UNL d   1      -0.104   0.759  -0.037  0.00  0.00     0.091 A 
ATOM     11  C   UNL d   1      -1.284  -0.014   0.001  0.00  0.00     0.064 A 
ATOM     12  C   UNL d   1      -1.228  -1.418   0.024  0.00  0.00     0.042 A 
ATOM     13 CL   UNL d   1      -2.876   0.668  -0.060  0.00  0.00    -0.082 Cl
ATOM     14  C   UNL d   1      -0.004  -2.100   0.015  0.00  0.00     0.051 A 
ATOM     15  C   UNL d   1       1.174  -1.348  -0.005  0.00  0.00     0.042 A 
ATOM     16  C   UNL d   1       1.121   0.052  -0.033  0.00  0.00     0.064 A 
ATOM     17 CL   UNL d   1       2.629   0.908  -0.048  0.00  0.00    -0.082 Cl
BRANCH  14  18
ATOM     18  C   UNL d   1       0.018  -3.609   0.009  0.00  0.00     0.417 C 
ATOM     19  F   UNL d   1       1.275  -4.133   0.006  0.00  0.00    -0.166 F 
ATOM     20  F   UNL d   1      -0.608  -4.141   1.094  0.00  0.00    -0.166 F 
ATOM     21  F   UNL d   1      -0.608  -4.130  -1.081  0.00  0.00    -0.166 F 
ENDBRANCH  14  18
ENDBRANCH   8  10
ENDBRANCH   2   8
TORSDOF 3
