REMARK  4 active torsions:
REMARK  status: ('A' for Active; 'I' for Inactive)
REMARK    1  A    between atoms: C_5  and  C_1 
REMARK    2  A    between atoms: O_13  and  C_1 
REMARK    3  A    between atoms: C_7  and  C_5 
REMARK    4  A    between atoms: C_9  and  C_7 
ROOT
ATOM      1  C   UNL d   1      -1.396  -1.632   0.137  0.00  0.00     0.174 A 
ATOM      2  C   UNL d   1       0.040  -1.071   0.434  0.00  0.00     0.262 A 
ATOM      3  C   UNL d   1      -1.409  -2.873   1.008  0.00  0.00     0.014 A 
ATOM      4  N   UNL d   1       0.660  -1.966   1.303  0.00  0.00    -0.324 N 
ATOM      5  C   UNL d   1      -0.173  -3.022   1.634  0.00  0.00     0.044 A 
ATOM      6  C   UNL d   1      -2.406  -3.824   1.165  0.00  0.00     0.032 A 
ATOM      7  O   UNL d   1       0.509  -0.002   0.076  0.00  0.00    -0.269 OA
ATOM      8  C   UNL d   1       0.119  -4.106   2.435  0.00  0.00     0.031 A 
ATOM      9  C   UNL d   1      -2.118  -4.943   1.947  0.00  0.00     0.011 A 
ATOM     10  C   UNL d   1      -0.870  -5.086   2.579  0.00  0.00     0.021 A 
ATOM     11 BR   UNL d   1      -3.415  -6.308   2.120  0.00  0.00    -0.051 Br
ATOM     12  H   UNL d   1       1.597  -1.819   1.653  0.00  0.00     0.169 HD
ENDROOT
BRANCH   1  13
ATOM     13  C   UNL d   1      -1.621  -2.056  -1.310  0.00  0.00     0.132 C 
BRANCH  13  14
ATOM     14  C   UNL d   1      -1.225  -1.045  -2.357  0.00  0.00     0.138 C 
ATOM     15  O   UNL d   1      -0.101  -1.141  -2.869  0.00  0.00    -0.297 OA
BRANCH  14  16
ATOM     16  C   UNL d   1      -2.200   0.056  -2.823  0.00  0.00     0.010 C 
ATOM     17  C   UNL d   1      -1.594   1.405  -2.419  0.00  0.00     0.022 C 
ATOM     18  C   UNL d   1      -2.299  -0.027  -4.359  0.00  0.00     0.022 C 
ATOM     19  C   UNL d   1      -3.627  -0.054  -2.274  0.00  0.00     0.022 C 
ENDBRANCH  14  16
ENDBRANCH  13  14
ENDBRANCH   1  13
BRANCH   1  20
ATOM     20  O   UNL d   1      -2.427  -0.771   0.590  0.00  0.00    -0.375 OA
ATOM     21  H   UNL d   1      -2.250  -0.576   1.528  0.00  0.00     0.211 HD
ENDBRANCH   1  20
TORSDOF 4
