REMARK  0 active torsions:
REMARK  status: ('A' for Active; 'I' for Inactive)
ROOT
ATOM      1  C   UNL d   1       0.135  -1.060   0.289  0.00  0.00     0.042 C 
ATOM      2  C   UNL d   1       0.239   0.793  -1.196  0.00  0.00     0.019 C 
ATOM      3  C   UNL d   1       1.613  -1.401  -0.073  0.00  0.00     0.069 C 
ATOM      4  C   UNL d   1       0.179   0.489   0.327  0.00  0.00     0.004 C 
ATOM      5  C   UNL d   1       1.750   0.503  -1.508  0.00  0.00     0.005 C 
ATOM      6  C   UNL d   1       2.278  -0.002  -0.142  0.00  0.00     0.003 C 
ATOM      7  C   UNL d   1      -0.859  -1.225  -0.820  0.00  0.00    -0.009 C 
ATOM      8  C   UNL d   1      -0.781  -0.202  -1.679  0.00  0.00    -0.006 C 
ATOM      9  C   UNL d   1       1.830  -1.848  -1.509  0.00  0.00     0.132 C 
ATOM     10  C   UNL d   1       1.543   0.836   0.876  0.00  0.00     0.012 C 
ATOM     11  C   UNL d   1       2.064  -0.673  -2.433  0.00  0.00     0.084 C 
ATOM     12  O   UNL d   1       1.816  -3.018  -1.872  0.00  0.00    -0.298 OA
ATOM     13 BR   UNL d   1      -1.990  -2.667  -0.867  0.00  0.00    -0.056 Br
ENDROOT
TORSDOF 0
