REMARK  10 active torsions:
REMARK  status: ('A' for Active; 'I' for Inactive)
REMARK    1  A    between atoms: C_7  and  N_2 
REMARK    2  A    between atoms: C_6  and  N_3 
REMARK    3  A    between atoms: C_9  and  C_6 
REMARK    4  A    between atoms: C_10  and  C_7 
REMARK    5  A    between atoms: C_11  and  C_9 
REMARK    6  A    between atoms: C_12  and  C_10 
REMARK    7  A    between atoms: O_16  and  C_11 
REMARK    8  A    between atoms: O_15  and  C_12 
REMARK    9  A    between atoms: C_20  and  O_15 
REMARK   10  A    between atoms: C_19  and  O_16 
ROOT
ATOM      1  C   UNL d   1       2.509   0.121  -0.005  0.00  0.00     0.181 A 
ATOM      2  N   UNL d   1       1.726  -1.068  -0.009  0.00  0.00    -0.321 N 
ATOM      3  N   UNL d   1       1.590   1.207  -0.020  0.00  0.00    -0.321 N 
ATOM      4  C   UNL d   1       0.366  -0.707  -0.012  0.00  0.00     0.063 A 
ATOM      5  C   UNL d   1       0.279   0.687  -0.020  0.00  0.00     0.063 A 
ATOM      6  S   UNL d   1       4.175   0.218   0.023  0.00  0.00    -0.040 SA
ATOM      7  C   UNL d   1      -0.945   1.333  -0.022  0.00  0.00     0.032 A 
ATOM      8  C   UNL d   1      -0.771  -1.500  -0.002  0.00  0.00     0.032 A 
ATOM      9  C   UNL d   1      -2.014  -0.865  -0.006  0.00  0.00     0.002 A 
ATOM     10  C   UNL d   1      -2.101   0.543  -0.013  0.00  0.00     0.002 A 
ENDROOT
BRANCH   2  11
ATOM     11  C   UNL d   1       2.215  -2.441  -0.048  0.00  0.00     0.141 C 
BRANCH  11  12
ATOM     12  C   UNL d   1       2.969  -2.824   1.217  0.00  0.00     0.131 C 
BRANCH  12  13
ATOM     13  C   UNL d   1       3.294  -4.287   1.236  0.00  0.00     0.260 C 
ATOM     14  O   UNL d   1       2.887  -5.118   0.437  0.00  0.00    -0.265 OA
BRANCH  13  15
ATOM     15  O   UNL d   1       4.031  -4.550   2.352  0.00  0.00    -0.322 OA
BRANCH  15  16
ATOM     16  C   UNL d   1       4.064  -5.920   2.758  0.00  0.00     0.174 C 
ATOM     17  C   UNL d   1       2.830  -6.180   3.605  0.00  0.00     0.034 C 
ENDBRANCH  15  16
ENDBRANCH  13  15
ENDBRANCH  12  13
ENDBRANCH  11  12
ENDBRANCH   2  11
BRANCH   3  18
ATOM     18  C   UNL d   1       1.910   2.626   0.071  0.00  0.00     0.141 C 
BRANCH  18  19
ATOM     19  C   UNL d   1       2.670   3.137  -1.147  0.00  0.00     0.131 C 
BRANCH  19  20
ATOM     20  C   UNL d   1       2.929   4.610  -1.036  0.00  0.00     0.260 C 
ATOM     21  O   UNL d   1       2.464   5.351  -0.184  0.00  0.00    -0.265 OA
BRANCH  20  22
ATOM     22  O   UNL d   1       3.678   5.000  -2.106  0.00  0.00    -0.322 OA
BRANCH  22  23
ATOM     23  C   UNL d   1       3.625   6.397  -2.408  0.00  0.00     0.174 C 
ATOM     24  C   UNL d   1       2.385   6.638  -3.250  0.00  0.00     0.034 C 
ENDBRANCH  22  23
ENDBRANCH  20  22
ENDBRANCH  19  20
ENDBRANCH  18  19
ENDBRANCH   3  18
TORSDOF 10
