REMARK  4 active torsions:
REMARK  status: ('A' for Active; 'I' for Inactive)
REMARK    1  A    between atoms: C_11  and  C_6 
REMARK    2  A    between atoms: S_8  and  C_11 
REMARK    3  A    between atoms: C_10  and  S_8 
REMARK    4  A    between atoms: N_13  and  C_12 
ROOT
ATOM      1  C   UNL d   1       1.201  -0.689   0.678  0.00  0.00     0.259 A 
ATOM      2  N   UNL d   1       2.050   0.389   0.619  0.00  0.00    -0.312 N 
ATOM      3  N   UNL d   1       0.608   1.767  -0.605  0.00  0.00    -0.344 N 
ATOM      4  HN  UNL d   1       0.408   2.653  -1.069  1.00  0.00     0.167 HD
ATOM      5  C   UNL d   1      -0.115  -0.493   0.049  0.00  0.00     0.059 A 
ATOM      6  C   UNL d   1       1.754   1.558  -0.037  0.00  0.00     0.094 A 
ATOM      7  C   UNL d   1      -0.353   0.741  -0.565  0.00  0.00     0.049 A 
ATOM      8  O   UNL d   1       1.520  -1.743   1.217  0.00  0.00    -0.267 OA
ATOM      9  C   UNL d   1      -1.086  -1.500   0.066  0.00  0.00     0.019 A 
ATOM     10  C   UNL d   1      -1.595   0.956  -1.164  0.00  0.00     0.030 A 
ATOM     11  C   UNL d   1      -2.321  -1.269  -0.538  0.00  0.00     0.001 A 
ATOM     12  C   UNL d   1      -2.577  -0.042  -1.151  0.00  0.00     0.002 A 
ATOM     13  H   UNL d   1       2.975   0.251   1.000  0.00  0.00     0.170 HD
ENDROOT
BRANCH   6  14
ATOM     14  C   UNL d   1       2.812   2.653  -0.023  0.00  0.00     0.156 C 
BRANCH  14  15
ATOM     15  S   UNL d   1       4.482   1.950  -0.264  0.00  0.00    -0.121 SA
BRANCH  15  16
ATOM     16  C   UNL d   1       5.499   3.408   0.001  0.00  0.00     0.021 A 
ATOM     17  C   UNL d   1       5.575   4.459  -0.936  0.00  0.00     0.022 A 
ATOM     18  C   UNL d   1       6.413   5.550  -0.662  0.00  0.00     0.024 A 
ATOM     19  C   UNL d   1       7.240   5.557   0.462  0.00  0.00     0.002 A 
ATOM     20  C   UNL d   1       7.200   4.495   1.359  0.00  0.00     0.001 A 
ATOM     21  C   UNL d   1       6.329   3.427   1.133  0.00  0.00     0.020 A 
BRANCH  17  22
ATOM     22  N   UNL d   1       4.694   4.542  -2.031  0.00  0.00    -0.302 NA
ATOM     23  H   UNL d   1       4.409   3.620  -2.355  0.00  0.00     0.124 HD
ATOM     24  H   UNL d   1       5.040   5.122  -2.789  0.00  0.00     0.124 HD
ENDBRANCH  17  22
ENDBRANCH  15  16
ENDBRANCH  14  15
ENDBRANCH   6  14
TORSDOF 4
