REMARK  2 active torsions:
REMARK  status: ('A' for Active; 'I' for Inactive)
REMARK    1  A    between atoms: N_2  and  C_1 
REMARK       I    between atoms: C_3  and  N_2 
REMARK    2  A    between atoms: C_6  and  C_3 
ROOT
ATOM      1  C   UNL d   1      -0.533   1.174  -0.221  0.00  0.00     0.091 A 
ATOM      2  C   UNL d   1      -1.886   0.931  -0.503  0.00  0.00     0.147 A 
ATOM      3  C   UNL d   1       0.279   0.064   0.082  0.00  0.00     0.043 A 
ATOM      4  C   UNL d   1      -0.261  -1.220   0.186  0.00  0.00     0.064 A 
ATOM      5  C   UNL d   1      -2.431  -0.347  -0.405  0.00  0.00     0.087 A 
ATOM      6  C   UNL d   1      -1.617  -1.407  -0.043  0.00  0.00     0.120 A 
ATOM      7  F   UNL d   1      -2.687   1.894  -0.977  0.00  0.00    -0.204 F 
ATOM      8 BR   UNL d   1       2.148   0.258   0.391  0.00  0.00    -0.049 Br
ATOM      9  F   UNL d   1      -2.139  -2.635   0.062  0.00  0.00    -0.206 F 
ENDROOT
BRANCH   1  10
ATOM     10  N   UNL d   1       0.065   2.455  -0.250  0.00  0.00    -0.319 N 
ATOM     11  C   UNL d   1      -0.558   3.685  -0.104  0.00  0.00     0.263 C 
ATOM     12  O   UNL d   1      -1.741   3.828   0.179  0.00  0.00    -0.267 OA
ATOM     13  H   UNL d   1       1.078   2.476  -0.214  0.00  0.00     0.169 HD
BRANCH  11  14
ATOM     14  C   UNL d   1       0.334   4.837  -0.248  0.00  0.00     0.072 A 
ATOM     15  S   UNL d   1       2.020   4.679  -0.524  0.00  0.00    -0.097 SA
ATOM     16  C   UNL d   1       2.238   6.371  -0.619  0.00  0.00     0.050 A 
ATOM     17  C   UNL d   1       1.060   7.054  -0.419  0.00  0.00     0.009 A 
ATOM     18  C   UNL d   1      -0.034   6.170  -0.190  0.00  0.00     0.025 A 
ENDBRANCH  11  14
ENDBRANCH   1  10
TORSDOF 2
