REMARK  4 active torsions:
REMARK  status: ('A' for Active; 'I' for Inactive)
REMARK    1  A    between atoms: S_7  and  C_1 
REMARK    2  A    between atoms: C_12  and  N_2 
REMARK    3  A    between atoms: C_8  and  S_7 
REMARK    4  A    between atoms: N_16  and  C_14 
ROOT
ATOM      1  C   UNL d   1      -0.263  -1.434   0.079  0.00  0.00     0.178 A 
ATOM      2  N   UNL d   1       0.960  -0.773   0.202  0.00  0.00    -0.219 N 
ATOM      3  N   UNL d   1      -1.207  -0.548  -0.147  0.00  0.00    -0.264 N 
ATOM      4  HN  UNL d   1      -2.198  -0.735  -0.302  1.00  0.00     0.186 HD
ATOM      5  N   UNL d   1      -0.598   0.673  -0.131  0.00  0.00    -0.006 NA
ATOM      6  N   UNL d   1       0.695   0.562   0.127  0.00  0.00     0.001 NA
ENDROOT
BRANCH   1   7
ATOM      7  S   UNL d   1      -0.537  -3.116   0.412  0.00  0.00    -0.078 SA
BRANCH   7   8
ATOM      8  C   UNL d   1      -2.269  -3.417  -0.017  0.00  0.00     0.134 A 
ATOM      9  C   UNL d   1      -2.607  -3.005  -1.434  0.00  0.00     0.174 A 
ATOM     10  C   UNL d   1      -3.739  -2.085  -1.397  0.00  0.00     0.017 A 
ATOM     11  O   UNL d   1      -2.062  -3.375  -2.458  0.00  0.00    -0.291 OA
ATOM     12  C   UNL d   1      -4.360  -1.445  -2.453  0.00  0.00     0.016 A 
ATOM     13  C   UNL d   1      -4.112  -1.890  -0.071  0.00  0.00    -0.043 A 
ATOM     14  C   UNL d   1      -5.390  -0.557  -2.147  0.00  0.00     0.001 A 
ATOM     15  C   UNL d   1      -5.768  -0.334  -0.812  0.00  0.00     0.001 A 
ATOM     16  C   UNL d   1      -5.132  -1.007   0.237  0.00  0.00     0.008 A 
ATOM     17  C   UNL d   1      -3.294  -2.703   0.886  0.00  0.00     0.063 A 
ENDBRANCH   7   8
ENDBRANCH   1   7
BRANCH   2  18
ATOM     18  C   UNL d   1       2.286  -1.237   0.419  0.00  0.00     0.057 A 
ATOM     19  C   UNL d   1       2.660  -2.549   0.156  0.00  0.00     0.033 A 
ATOM     20  C   UNL d   1       3.954  -2.997   0.457  0.00  0.00     0.031 A 
ATOM     21  C   UNL d   1       4.929  -2.169   1.037  0.00  0.00     0.029 A 
ATOM     22  C   UNL d   1       4.557  -0.827   1.207  0.00  0.00     0.031 A 
ATOM     23  C   UNL d   1       3.264  -0.357   0.899  0.00  0.00     0.033 A 
BRANCH  21  24
ATOM     24  N   UNL d   1       6.201  -2.668   1.335  0.00  0.00    -0.390 N 
ATOM     25  C   UNL d   1       6.291  -4.017   1.906  0.00  0.00     0.149 C 
ATOM     26  C   UNL d   1       7.235  -1.762   1.836  0.00  0.00     0.149 C 
ENDBRANCH  21  24
ENDBRANCH   2  18
TORSDOF 4
