REMARK  3 active torsions:
REMARK  status: ('A' for Active; 'I' for Inactive)
REMARK    1  A    between atoms: S_8  and  C_1 
REMARK    2  A    between atoms: C_11  and  S_8 
REMARK    3  A    between atoms: C_14  and  C_11 
ROOT
ATOM      1  C   UNL d   1       2.810  -1.162  -0.282  0.00  0.00     0.113 A 
ATOM      2  N   UNL d   1       1.702  -1.658   0.220  0.00  0.00    -0.344 N 
ATOM      3  HN  UNL d   1       1.627  -2.549   0.710  1.00  0.00     0.167 HD
ATOM      4  S   UNL d   1       2.666   0.341  -1.088  0.00  0.00    -0.063 SA
ATOM      5  C   UNL d   1       0.650  -0.784  -0.019  0.00  0.00     0.052 A 
ATOM      6  C   UNL d   1       0.982   0.367  -0.737  0.00  0.00     0.034 A 
ATOM      7  C   UNL d   1      -0.686  -0.962   0.396  0.00  0.00     0.054 A 
ATOM      8  C   UNL d   1       0.028   1.343  -1.070  0.00  0.00     0.023 A 
ATOM      9  C   UNL d   1      -1.638   0.011   0.075  0.00  0.00     0.036 A 
ATOM     10  C   UNL d   1      -1.290   1.146  -0.651  0.00  0.00     0.025 A 
ATOM     11 CL   UNL d   1      -3.269  -0.197   0.587  0.00  0.00    -0.084 Cl
ENDROOT
BRANCH   1  12
ATOM     12  S   UNL d   1       4.358  -1.957  -0.119  0.00  0.00    -0.100 SA
BRANCH  12  13
ATOM     13  C   UNL d   1       3.850  -3.698  -0.061  0.00  0.00     0.120 C 
BRANCH  13  14
ATOM     14  C   UNL d   1       5.056  -4.609  -0.062  0.00  0.00    -0.049 A 
ATOM     15  C   UNL d   1       5.668  -4.986   1.143  0.00  0.00     0.008 A 
ATOM     16  C   UNL d   1       6.802  -5.801   1.139  0.00  0.00     0.001 A 
ATOM     17  C   UNL d   1       7.340  -6.244  -0.067  0.00  0.00     0.000 A 
ATOM     18  C   UNL d   1       6.747  -5.872  -1.271  0.00  0.00     0.001 A 
ATOM     19  C   UNL d   1       5.612  -5.057  -1.270  0.00  0.00     0.008 A 
ENDBRANCH  13  14
ENDBRANCH  12  13
ENDBRANCH   1  12
TORSDOF 3
