REMARK  2 active torsions:
REMARK  status: ('A' for Active; 'I' for Inactive)
REMARK    1  A    between atoms: N_7  and  C_1 
REMARK       I    between atoms: C_2  and  N_7 
REMARK       I    between atoms: N_3  and  C_2 
REMARK    2  A    between atoms: C_15  and  C_4 
ROOT
ATOM      1  C   UNL d   1       1.750  -2.668  -0.029  0.00  0.00     0.328 C 
ATOM      2  N   UNL d   1       2.738  -1.680   0.254  0.00  0.00    -0.295 N 
ATOM      3  N   UNL d   1       0.438  -2.292   0.172  0.00  0.00    -0.304 N 
ATOM      4  C   UNL d   1       4.164  -2.047   0.167  0.00  0.00     0.045 A 
ATOM      5  C   UNL d   1       5.150  -1.052  -0.010  0.00  0.00    -0.028 A 
ATOM      6  C   UNL d   1       4.622  -3.375   0.296  0.00  0.00     0.033 A 
ATOM      7  O   UNL d   1       2.006  -3.805  -0.423  0.00  0.00    -0.246 OA
ATOM      8  C   UNL d   1       2.560  -0.255   0.741  0.00  0.00     0.091 C 
ATOM      9  C   UNL d   1       6.517  -1.390  -0.086  0.00  0.00     0.051 A 
ATOM     10  C   UNL d   1       4.838   0.411  -0.110  0.00  0.00     0.043 C 
ATOM     11  C   UNL d   1       3.359   0.713  -0.137  0.00  0.00     0.030 C 
ATOM     12  C   UNL d   1       6.927  -2.709   0.028  0.00  0.00     0.117 A 
ATOM     13  C   UNL d   1       5.985  -3.704   0.230  0.00  0.00     0.044 A 
ATOM     14  F   UNL d   1       8.223  -3.013  -0.037  0.00  0.00    -0.206 F 
ATOM     15  C   UNL d   1       1.169   0.377   0.889  0.00  0.00     0.033 C 
ATOM     16  H   UNL d   1       0.305  -1.628   0.901  0.00  0.00     0.171 HD
ENDROOT
BRANCH   3  17
ATOM     17  C   UNL d   1      -0.654  -3.151   0.044  0.00  0.00     0.097 C 
ATOM     18  C   UNL d   1      -1.014  -4.181  -0.886  0.00  0.00     0.094 C 
ATOM     19  N   UNL d   1      -2.149  -4.786  -0.486  0.00  0.00    -0.258 N 
ATOM     20  O   UNL d   1      -2.612  -4.074   0.597  0.00  0.00    -0.240 OA
ATOM     21  HN  UNL d   1      -2.581  -5.611  -0.903  1.00  0.00     0.195 HD
ATOM     22  C   UNL d   1      -1.754  -3.062   0.871  0.00  0.00     0.101 C 
ATOM     23  C   UNL d   1      -2.152  -2.137   1.949  0.00  0.00     0.081 C 
BRANCH  18  24
ATOM     24  C   UNL d   1      -0.457  -4.487  -2.204  0.00  0.00    -0.005 A 
ATOM     25  C   UNL d   1      -0.503  -5.783  -2.736  0.00  0.00     0.014 A 
ATOM     26  C   UNL d   1      -0.070  -6.025  -4.043  0.00  0.00     0.001 A 
ATOM     27  C   UNL d   1       0.401  -4.974  -4.832  0.00  0.00     0.000 A 
ATOM     28  C   UNL d   1       0.442  -3.680  -4.318  0.00  0.00     0.001 A 
ATOM     29  C   UNL d   1       0.012  -3.438  -3.011  0.00  0.00     0.014 A 
ENDBRANCH  18  24
ENDBRANCH   3  17
TORSDOF 2
