REMARK  2 active torsions:
REMARK  status: ('A' for Active; 'I' for Inactive)
REMARK    1  A    between atoms: C_8  and  C_1 
REMARK    2  A    between atoms: O_9  and  C_1 
ROOT
ATOM      1  C   UNL d   1       0.040   1.833  -0.015  0.00  0.00     0.118 A 
ATOM      2  C   UNL d   1      -1.165   0.901   0.033  0.00  0.00     0.009 A 
ATOM      3  C   UNL d   1       1.201   0.838   0.051  0.00  0.00    -0.006 A 
ATOM      4  C   UNL d   1      -0.741  -0.432   0.017  0.00  0.00     0.052 A 
ATOM      5  C   UNL d   1       0.701  -0.485   0.027  0.00  0.00     0.001 A 
ATOM      6  N   UNL d   1      -1.552  -1.502   0.027  0.00  0.00    -0.365 N 
ATOM      7  HN  UNL d   1      -1.202  -2.460   0.017  1.00  0.00     0.165 HD
ATOM      8  C   UNL d   1      -2.518   1.177   0.071  0.00  0.00     0.014 A 
ATOM      9  C   UNL d   1       2.564   1.077   0.151  0.00  0.00     0.011 A 
ATOM     10  C   UNL d   1       1.557  -1.572   0.044  0.00  0.00     0.014 A 
ATOM     11  C   UNL d   1      -2.873  -1.204   0.052  0.00  0.00     0.088 A 
ATOM     12  C   UNL d   1      -3.394   0.093   0.078  0.00  0.00     0.018 A 
ATOM     13  C   UNL d   1       3.429  -0.020   0.166  0.00  0.00     0.001 A 
ATOM     14  C   UNL d   1       2.932  -1.331   0.102  0.00  0.00     0.001 A 
ENDROOT
BRANCH   1  15
ATOM     15  C   UNL d   1       0.006   2.757  -1.266  0.00  0.00     0.021 C 
ATOM     16  C   UNL d   1       1.166   3.762  -1.315  0.00  0.00     0.013 C 
ATOM     17  C   UNL d   1      -0.059   1.998  -2.599  0.00  0.00     0.013 C 
ENDBRANCH   1  15
BRANCH   1  18
ATOM     18  O   UNL d   1       0.013   2.625   1.171  0.00  0.00    -0.380 OA
ATOM     19  H   UNL d   1       0.248   2.035   1.909  0.00  0.00     0.211 HD
ENDBRANCH   1  18
TORSDOF 2
