REMARK  3 active torsions:
REMARK  status: ('A' for Active; 'I' for Inactive)
REMARK    1  A    between atoms: C_4  and  N_1 
REMARK    2  A    between atoms: C_3  and  C_2 
REMARK       I    between atoms: N_5  and  C_3 
REMARK    3  A    between atoms: C_9  and  N_5 
ROOT
ATOM      1  C   UNL d   1       1.778   2.595  -1.035  0.00  0.00     0.258 C 
ATOM      2  N   UNL d   1       2.310   3.867  -1.192  0.00  0.00    -0.323 N 
ATOM      3  O   UNL d   1       2.182   1.585  -1.601  0.00  0.00    -0.267 OA
ATOM      4  H   UNL d   1       1.934   4.644  -0.663  0.00  0.00     0.169 HD
ENDROOT
BRANCH   1   5
ATOM      5  C   UNL d   1       0.607   2.431  -0.123  0.00  0.00     0.065 A 
ATOM      6  C   UNL d   1       0.354   3.156   1.044  0.00  0.00     0.118 A 
ATOM      7  C   UNL d   1      -0.791   2.946   1.829  0.00  0.00     0.037 A 
ATOM      8  C   UNL d   1      -1.694   1.951   1.457  0.00  0.00     0.002 A 
ATOM      9  C   UNL d   1      -1.444   1.177   0.326  0.00  0.00     0.001 A 
ATOM     10  C   UNL d   1      -0.308   1.413  -0.457  0.00  0.00     0.020 A 
BRANCH   6  11
ATOM     11  N   UNL d   1       1.301   4.123   1.528  0.00  0.00    -0.115 N 
ATOM     12  O   UNL d   1       2.326   3.699   2.068  0.00  0.00    -0.532 OA
ATOM     13  O   UNL d   1       1.032   5.311   1.308  0.00  0.00    -0.532 OA
ENDBRANCH   6  11
ENDBRANCH   1   5
BRANCH   2  14
ATOM     14  C   UNL d   1       3.436   4.200  -1.980  0.00  0.00     0.035 A 
ATOM     15  C   UNL d   1       3.929   3.396  -3.010  0.00  0.00     0.031 A 
ATOM     16  C   UNL d   1       5.058   3.786  -3.738  0.00  0.00     0.026 A 
ATOM     17  C   UNL d   1       5.709   4.977  -3.425  0.00  0.00     0.034 A 
ATOM     18  C   UNL d   1       5.224   5.792  -2.406  0.00  0.00     0.026 A 
ATOM     19 CL   UNL d   1       7.115   5.440  -4.299  0.00  0.00    -0.084 Cl
ATOM     20  C   UNL d   1       4.080   5.412  -1.696  0.00  0.00     0.031 A 
ENDBRANCH   2  14
TORSDOF 3
