REMARK  4 active torsions:
REMARK  status: ('A' for Active; 'I' for Inactive)
REMARK    1  A    between atoms: C_9  and  C_3 
REMARK    2  A    between atoms: O_10  and  C_6 
REMARK    3  A    between atoms: C_12  and  C_8 
REMARK    4  A    between atoms: O_11  and  C_12 
ROOT
ATOM      1  N   UNL d   1      -0.336  -1.111  -0.017  0.00  0.00    -0.323 N 
ATOM      2  HN  UNL d   1      -0.881  -1.973  -0.037  1.00  0.00     0.169 HD
ATOM      3  C   UNL d   1       1.011  -1.109   0.015  0.00  0.00     0.117 A 
ATOM      4  N   UNL d   1       1.769   0.007   0.026  0.00  0.00    -0.343 N 
ATOM      5  HN  UNL d   1       2.788  -0.046   0.032  1.00  0.00     0.167 HD
ATOM      6  C   UNL d   1      -0.905   0.095  -0.022  0.00  0.00     0.143 A 
ATOM      7  C   UNL d   1      -0.245   1.292   0.002  0.00  0.00     0.083 A 
ATOM      8  C   UNL d   1       1.129   1.200   0.028  0.00  0.00     0.038 A 
ENDROOT
BRANCH   3   9
ATOM      9  C   UNL d   1       1.702  -2.415   0.030  0.00  0.00     0.008 A 
ATOM     10  C   UNL d   1       0.984  -3.628   0.019  0.00  0.00     0.015 A 
ATOM     11  C   UNL d   1       1.635  -4.866   0.030  0.00  0.00     0.001 A 
ATOM     12  C   UNL d   1       3.025  -4.921   0.053  0.00  0.00     0.000 A 
ATOM     13  C   UNL d   1       3.763  -3.741   0.068  0.00  0.00     0.001 A 
ATOM     14  C   UNL d   1       3.107  -2.505   0.057  0.00  0.00     0.015 A 
ENDBRANCH   3   9
BRANCH   6  15
ATOM     15  O   UNL d   1      -2.262   0.064  -0.063  0.00  0.00    -0.346 OA
ATOM     16  H   UNL d   1      -2.416  -0.897  -0.066  0.00  0.00     0.219 HD
ENDBRANCH   6  15
BRANCH   8  17
ATOM     17  C   UNL d   1       1.978   2.448   0.029  0.00  0.00     0.224 C 
BRANCH  17  18
ATOM     18  O   UNL d   1       1.654   3.263   1.157  0.00  0.00    -0.390 OA
ATOM     19  C   UNL d   1       2.475   4.422   1.209  0.00  0.00     0.201 C 
ENDBRANCH  17  18
ENDBRANCH   8  17
TORSDOF 4
