REMARK  4 active torsions:
REMARK  status: ('A' for Active; 'I' for Inactive)
REMARK       I    between atoms: N_2  and  C_1 
REMARK    1  A    between atoms: C_3  and  C_1 
REMARK    2  A    between atoms: C_12  and  N_2 
REMARK    3  A    between atoms: C_13  and  N_2 
REMARK    4  A    between atoms: C_4  and  C_5 
ROOT
ATOM      1  C   UNL d   1       0.315   0.666  -1.089  0.00  0.00     0.032 A 
ATOM      2  C   UNL d   1      -0.596   2.105  -3.367  0.00  0.00    -0.023 A 
ATOM      3  C   UNL d   1       1.050   1.748  -1.585  0.00  0.00     0.018 A 
ATOM      4  C   UNL d   1      -0.823   0.256  -1.778  0.00  0.00     0.018 A 
ATOM      5  C   UNL d   1      -1.289   0.985  -2.881  0.00  0.00     0.013 A 
ATOM      6  C   UNL d   1       0.598   2.458  -2.711  0.00  0.00     0.013 A 
ENDROOT
BRANCH   1   7
ATOM      7  C   UNL d   1       0.827  -0.066   0.109  0.00  0.00     0.254 C 
ATOM      8  N   UNL d   1      -0.051  -0.510   1.118  0.00  0.00    -0.340 N 
ATOM      9  O   UNL d   1       2.042  -0.258   0.144  0.00  0.00    -0.267 OA
BRANCH   8  10
ATOM     10  C   UNL d   1       0.486  -1.392   2.186  0.00  0.00     0.079 C 
ATOM     11  C   UNL d   1       1.038  -2.712   1.640  0.00  0.00     0.032 C 
ATOM     12  C   UNL d   1       1.502  -0.696   3.094  0.00  0.00     0.032 C 
ENDBRANCH   8  10
BRANCH   8  13
ATOM     13  C   UNL d   1      -1.439  -0.010   1.284  0.00  0.00     0.079 C 
ATOM     14  C   UNL d   1      -2.462  -1.143   1.153  0.00  0.00     0.032 C 
ATOM     15  C   UNL d   1      -1.641   0.764   2.591  0.00  0.00     0.032 C 
ENDBRANCH   8  13
ENDBRANCH   1   7
BRANCH   2  16
ATOM     16  C   UNL d   1      -1.094   2.850  -4.545  0.00  0.00     0.013 A 
ATOM     17  C   UNL d   1      -2.454   3.172  -4.702  0.00  0.00     0.127 A 
ATOM     18  F   UNL d   1      -3.344   2.848  -3.750  0.00  0.00    -0.205 F 
ATOM     19  C   UNL d   1      -2.935   3.833  -5.835  0.00  0.00     0.043 A 
ATOM     20  C   UNL d   1      -2.055   4.199  -6.847  0.00  0.00     0.003 A 
ATOM     21  C   UNL d   1      -0.699   3.909  -6.716  0.00  0.00     0.001 A 
ATOM     22  C   UNL d   1      -0.225   3.242  -5.579  0.00  0.00     0.015 A 
ENDBRANCH   2  16
TORSDOF 4
