REMARK  5 active torsions:
REMARK  status: ('A' for Active; 'I' for Inactive)
REMARK    1  A    between atoms: N_2  and  C_1 
REMARK    2  A    between atoms: O_12  and  C_3 
REMARK    3  A    between atoms: C_5  and  C_4 
REMARK    4  A    between atoms: O_13  and  C_5 
REMARK    5  A    between atoms: O_14  and  C_7 
ROOT
ATOM      1  C   UNL d   1       1.387  -0.155   0.046  0.00  0.00     0.137 A 
ATOM      2  C   UNL d   1       0.624  -1.323   0.177  0.00  0.00     0.120 A 
ATOM      3  C   UNL d   1      -0.785  -1.197   0.187  0.00  0.00     0.108 A 
ATOM      4  C   UNL d   1       0.803   1.109  -0.094  0.00  0.00     0.042 A 
ATOM      5  C   UNL d   1      -1.384   0.076   0.066  0.00  0.00     0.087 A 
ATOM      6  C   UNL d   1      -0.583   1.215  -0.074  0.00  0.00     0.040 A 
ENDROOT
BRANCH   3   7
ATOM      7  C   UNL d   1      -1.617  -2.392   0.454  0.00  0.00     0.298 C 
ATOM      8  O   UNL d   1      -2.486  -2.444   1.309  0.00  0.00    -0.259 OA
BRANCH   7   9
ATOM      9  O   UNL d   1      -1.301  -3.369  -0.434  0.00  0.00    -0.322 OA
ATOM     10  C   UNL d   1      -1.974  -4.612  -0.221  0.00  0.00     0.213 C 
ENDBRANCH   7   9
ENDBRANCH   3   7
BRANCH   2  11
ATOM     11  O   UNL d   1       1.162  -2.543   0.501  0.00  0.00    -0.352 OA
ATOM     12  C   UNL d   1       2.071  -3.091  -0.455  0.00  0.00     0.210 C 
ENDBRANCH   2  11
BRANCH   5  13
ATOM     13  O   UNL d   1      -2.715   0.360   0.209  0.00  0.00    -0.355 OA
ATOM     14  C   UNL d   1      -3.595  -0.311  -0.682  0.00  0.00     0.210 C 
ENDBRANCH   5  13
BRANCH   1  15
ATOM     15  N   UNL d   1       2.826  -0.182   0.171  0.00  0.00    -0.113 N 
ATOM     16  O   UNL d   1       3.471  -0.431  -0.857  0.00  0.00    -0.532 OA
ATOM     17  O   UNL d   1       3.301   0.101   1.276  0.00  0.00    -0.532 OA
ENDBRANCH   1  15
TORSDOF 5
