REMARK  0 active torsions:
REMARK  status: ('A' for Active; 'I' for Inactive)
ROOT
ATOM      1  C   UNL d   1      -0.831  -0.197   0.007  0.00  0.00     0.280 A 
ATOM      2  C   UNL d   1       0.620   0.246  -0.004  0.00  0.00     0.042 A 
ATOM      3  C   UNL d   1      -0.627  -1.786   0.045  0.00  0.00     0.290 A 
ATOM      4  N   UNL d   1       0.739  -2.040   0.051  0.00  0.00    -0.321 N 
ATOM      5  C   UNL d   1       1.467  -0.864   0.022  0.00  0.00     0.047 A 
ATOM      6  O   UNL d   1      -1.430   0.302  -1.182  0.00  0.00    -0.344 OA
ATOM      7  O   UNL d   1      -1.431   0.359   1.170  0.00  0.00    -0.344 OA
ATOM      8  C   UNL d   1       1.153   1.528  -0.035  0.00  0.00     0.034 A 
ATOM      9  O   UNL d   1      -1.494  -2.651   0.067  0.00  0.00    -0.267 OA
ATOM     10  C   UNL d   1       2.843  -0.753   0.018  0.00  0.00     0.031 A 
ATOM     11  C   UNL d   1       2.545   1.660  -0.040  0.00  0.00     0.011 A 
ATOM     12  C   UNL d   1       3.386   0.534  -0.014  0.00  0.00     0.021 A 
ATOM     13 BR   UNL d   1       3.318   3.387  -0.082  0.00  0.00    -0.051 Br
ATOM     14  C   UNL d   1      -3.531   0.529  -0.012  0.00  0.00     0.053 C 
ATOM     15  C   UNL d   1      -2.819   0.052   1.241  0.00  0.00     0.174 C 
ATOM     16  C   UNL d   1      -2.818  -0.009  -1.239  0.00  0.00     0.174 C 
ATOM     17  H   UNL d   1       1.120  -2.973   0.073  0.00  0.00     0.169 HD
ENDROOT
TORSDOF 0
