REMARK  7 active torsions:
REMARK  status: ('A' for Active; 'I' for Inactive)
REMARK    1  A    between atoms: C_2  and  C_1 
REMARK    2  A    between atoms: C_9  and  C_1 
REMARK    3  A    between atoms: C_12  and  C_1 
REMARK    4  A    between atoms: C_4  and  C_9 
REMARK       I    between atoms: N_8  and  C_4 
REMARK    5  A    between atoms: C_13  and  N_8 
REMARK    6  A    between atoms: C_10  and  C_12 
REMARK    7  A    between atoms: O_24  and  C_10 
ROOT
ATOM      1  C   UNL d   1       1.499   0.124   0.380  0.00  0.00     0.039 C 
ENDROOT
BRANCH   1   2
ATOM      2  C   UNL d   1       1.158  -0.830   1.535  0.00  0.00    -0.031 A 
ATOM      3  C   UNL d   1       0.271  -1.915   1.373  0.00  0.00     0.042 A 
ATOM      4  C   UNL d   1      -0.055  -2.749   2.448  0.00  0.00     0.048 A 
ATOM      5 CL   UNL d   1      -0.497  -2.261  -0.138  0.00  0.00    -0.084 Cl
ATOM      6  C   UNL d   1       0.494  -2.507   3.703  0.00  0.00     0.035 A 
ATOM      7  C   UNL d   1       1.362  -1.440   3.894  0.00  0.00     0.024 A 
ATOM      8 CL   UNL d   1       0.081  -3.521   5.030  0.00  0.00    -0.084 Cl
ATOM      9  C   UNL d   1       1.685  -0.604   2.822  0.00  0.00     0.011 A 
ENDBRANCH   1   2
BRANCH   1  10
ATOM     10  C   UNL d   1       0.506   1.308   0.437  0.00  0.00     0.113 C 
BRANCH  10  11
ATOM     11  C   UNL d   1       0.553   2.209  -0.785  0.00  0.00     0.222 C 
ATOM     12  N   UNL d   1      -0.514   3.091  -0.846  0.00  0.00    -0.327 N 
ATOM     13  H   UNL d   1      -1.346   2.840  -0.324  0.00  0.00     0.169 HD
ATOM     14  O   UNL d   1       1.450   2.145  -1.620  0.00  0.00    -0.273 OA
BRANCH  12  15
ATOM     15  C   UNL d   1      -0.662   4.066  -1.856  0.00  0.00     0.036 A 
ATOM     16  C   UNL d   1       0.437   4.678  -2.473  0.00  0.00     0.056 A 
ATOM     17  C   UNL d   1       0.241   5.588  -3.511  0.00  0.00     0.074 A 
ATOM     18 CL   UNL d   1       1.603   6.337  -4.252  0.00  0.00    -0.081 Cl
ATOM     19  C   UNL d   1      -1.050   5.882  -3.938  0.00  0.00     0.138 A 
ATOM     20  C   UNL d   1      -2.150   5.306  -3.308  0.00  0.00     0.046 A 
ATOM     21  F   UNL d   1      -1.261   6.723  -4.960  0.00  0.00    -0.204 F 
ATOM     22  C   UNL d   1      -1.958   4.416  -2.249  0.00  0.00     0.032 A 
ENDBRANCH  12  15
ENDBRANCH  10  11
ENDBRANCH   1  10
BRANCH   1  23
ATOM     23  C   UNL d   1       2.976   0.585   0.378  0.00  0.00     0.119 C 
BRANCH  23  24
ATOM     24  C   UNL d   1       3.960  -0.548   0.270  0.00  0.00     0.140 C 
ATOM     25  O   UNL d   1       5.008  -0.634   0.891  0.00  0.00    -0.650 OA
BRANCH  24  26
ATOM     26  O   UNL d   1       3.641  -1.461  -0.663  0.00  0.00    -0.776 OA
ATOM     27  H   UNL d   1       4.399  -2.082  -0.667  0.00  0.00     0.167 HD
ENDBRANCH  24  26
ENDBRANCH  23  24
ENDBRANCH   1  23
TORSDOF 7
