REMARK  1 active torsions:
REMARK  status: ('A' for Active; 'I' for Inactive)
REMARK    1  A    between atoms: N_7  and  C_4 
ROOT
ATOM      1  C   UNL d   1       2.330   0.781  -0.022  0.00  0.00     0.186 A 
ATOM      2  N   UNL d   1       1.227   1.451   0.047  0.00  0.00    -0.333 N 
ATOM      3  HN  UNL d   1       1.223   2.470   0.083  1.00  0.00     0.168 HD
ATOM      4  C   UNL d   1       5.777   1.592  -0.362  0.00  0.00     0.215 A 
ATOM      5  C   UNL d   1       1.359  -1.341   0.057  0.00  0.00     0.302 A 
ATOM      6  O   UNL d   1       2.463  -0.565  -0.032  0.00  0.00    -0.254 OA
ATOM      7  C   UNL d   1       0.055  -0.670   0.086  0.00  0.00     0.067 A 
ATOM      8  C   UNL d   1       3.605   1.446  -0.120  0.00  0.00     0.129 A 
ATOM      9  O   UNL d   1       4.752   0.704  -0.263  0.00  0.00    -0.284 OA
ATOM     10  C   UNL d   1       0.045   0.716   0.068  0.00  0.00     0.050 A 
ATOM     11  C   UNL d   1       5.336   2.890  -0.280  0.00  0.00     0.066 A 
ATOM     12  C   UNL d   1       3.929   2.797  -0.125  0.00  0.00     0.046 A 
ATOM     13  C   UNL d   1      -1.139  -1.403   0.088  0.00  0.00     0.026 A 
ATOM     14  O   UNL d   1       1.432  -2.564   0.087  0.00  0.00    -0.259 OA
ATOM     15  C   UNL d   1      -1.179   1.383   0.022  0.00  0.00     0.031 A 
ATOM     16  C   UNL d   1      -2.368  -0.736   0.043  0.00  0.00    -0.061 A 
ATOM     17  C   UNL d   1      -2.377   0.663  -0.011  0.00  0.00     0.009 A 
ATOM     18  C   UNL d   1      -3.661  -1.496   0.027  0.00  0.00     0.048 C 
ENDROOT
BRANCH   4  19
ATOM     19  N   UNL d   1       7.085   1.042  -0.538  0.00  0.00    -0.090 N 
ATOM     20  O   UNL d   1       8.012   1.860  -0.634  0.00  0.00    -0.530 OA
ATOM     21  O   UNL d   1       7.195  -0.189  -0.586  0.00  0.00    -0.530 OA
ENDBRANCH   4  19
TORSDOF 1
