REMARK  5 active torsions:
REMARK  status: ('A' for Active; 'I' for Inactive)
REMARK    1  A    between atoms: C_2  and  C_1 
REMARK    2  A    between atoms: C_16  and  C_7 
REMARK    3  A    between atoms: C_8  and  C_13 
REMARK    4  A    between atoms: C_17  and  O_20 
REMARK    5  A    between atoms: O_20  and  C_26 
ROOT
ATOM      1  C   UNL d   1       6.640   1.432   1.585  0.00  0.00    -0.002 A 
ATOM      2  C   UNL d   1       6.619   1.009   2.923  0.00  0.00     0.017 A 
ATOM      3  C   UNL d   1       7.610   2.369   1.199  0.00  0.00     0.017 A 
ATOM      4  C   UNL d   1       8.509   2.422   3.452  0.00  0.00     0.077 A 
ATOM      5  C   UNL d   1       7.560   1.476   3.842  0.00  0.00     0.038 A 
ATOM      6  C   UNL d   1       8.540   2.856   2.126  0.00  0.00     0.038 A 
ENDROOT
BRANCH   1   7
ATOM      7  C   UNL d   1       5.651   0.863   0.659  0.00  0.00     0.084 A 
ATOM      8  N   UNL d   1       4.450   0.470   1.030  0.00  0.00    -0.348 N 
ATOM      9  C   UNL d   1       3.767  -0.118  -0.015  0.00  0.00     0.057 A 
ATOM     10  HN  UNL d   1       4.072   0.586   1.970  1.00  0.00     0.166 HD
ATOM     11  C   UNL d   1       4.487  -0.178  -1.193  0.00  0.00     0.082 A 
ATOM     12  S   UNL d   1       6.026   0.549  -0.989  0.00  0.00    -0.081 SA
BRANCH   9  13
ATOM     13  C   UNL d   1       2.364  -0.656   0.154  0.00  0.00     0.039 A 
ATOM     14  S   UNL d   1       1.579  -1.539  -1.083  0.00  0.00    -0.087 SA
ATOM     15  C   UNL d   1       0.167  -1.787  -0.150  0.00  0.00     0.016 A 
ATOM     16  C   UNL d   1      -0.987  -2.502  -0.533  0.00  0.00     0.019 A 
ATOM     17  C   UNL d   1       0.273  -1.176   1.097  0.00  0.00    -0.012 A 
ATOM     18  C   UNL d   1      -2.058  -2.589   0.358  0.00  0.00     0.001 A 
ATOM     19  C   UNL d   1      -1.989  -1.978   1.600  0.00  0.00     0.001 A 
ATOM     20  C   UNL d   1      -0.839  -1.278   1.975  0.00  0.00     0.013 A 
ATOM     21  C   UNL d   1       1.560  -0.519   1.280  0.00  0.00    -0.031 A 
ATOM     22  C   UNL d   1       1.878   0.195   2.561  0.00  0.00     0.050 C 
ENDBRANCH   9  13
ENDBRANCH   1   7
BRANCH   4  23
ATOM     23  O   UNL d   1       9.493   2.916   4.282  0.00  0.00    -0.294 OA
BRANCH  23  24
ATOM     24  C   UNL d   1       9.193   3.086   5.626  0.00  0.00     0.147 A 
ATOM     25  N   UNL d   1       7.930   3.400   5.994  0.00  0.00    -0.346 N 
ATOM     26  C   UNL d   1       7.678   3.490   7.317  0.00  0.00     0.106 A 
ATOM     27  HN  UNL d   1       7.199   3.562   5.301  1.00  0.00     0.167 HD
ATOM     28  C   UNL d   1       8.636   3.307   8.301  0.00  0.00     0.063 A 
ATOM     29  C   UNL d   1       9.949   3.044   7.887  0.00  0.00     0.022 A 
ATOM     30  C   UNL d   1      10.234   2.934   6.527  0.00  0.00     0.057 A 
BRANCH  28  31
ATOM     31  C   UNL d   1       8.260   3.374   9.748  0.00  0.00     0.418 C 
ATOM     32  F   UNL d   1       6.933   3.596   9.957  0.00  0.00    -0.166 F 
ATOM     33  F   UNL d   1       8.551   2.220  10.411  0.00  0.00    -0.166 F 
ATOM     34  F   UNL d   1       8.914   4.363  10.415  0.00  0.00    -0.166 F 
ENDBRANCH  28  31
ENDBRANCH  23  24
ENDBRANCH   4  23
TORSDOF 5
