REMARK  5 active torsions:
REMARK  status: ('A' for Active; 'I' for Inactive)
REMARK    1  A    between atoms: N_2  and  C_1 
REMARK    2  A    between atoms: C_3  and  C_1 
REMARK    3  A    between atoms: C_4  and  C_1 
REMARK    4  A    between atoms: N_6  and  C_1 
REMARK       I    between atoms: C_5  and  N_2 
REMARK       I    between atoms: N_13  and  C_5 
REMARK    5  A    between atoms: C_7  and  N_6 
ROOT
ATOM      1  C   UNL d   1       0.836   0.053  -0.036  0.00  0.00     0.308 C 
ENDROOT
BRANCH   1   2
ATOM      2  N   UNL d   1       0.443  -1.286  -0.557  0.00  0.00    -0.301 N 
ATOM      3  C   UNL d   1       0.731  -2.434   0.105  0.00  0.00     0.320 C 
ATOM      4  N   UNL d   1       0.434  -3.609  -0.547  0.00  0.00    -0.343 N 
ATOM      5  O   UNL d   1       1.254  -2.388   1.231  0.00  0.00    -0.247 OA
ATOM      6  C   UNL d   1       0.795  -4.869   0.084  0.00  0.00     0.154 C 
ATOM      7  C   UNL d   1      -0.228  -3.731  -1.843  0.00  0.00     0.154 C 
ATOM      8  H   UNL d   1       0.536  -1.341  -1.563  0.00  0.00     0.167 HD
ENDBRANCH   1   2
BRANCH   1   9
ATOM      9  C   UNL d   1       0.280   0.389   1.402  0.00  0.00     0.441 C 
ATOM     10  F   UNL d   1      -0.667  -0.491   1.812  0.00  0.00    -0.166 F 
ATOM     11  F   UNL d   1       1.281   0.337   2.330  0.00  0.00    -0.166 F 
ATOM     12  F   UNL d   1      -0.258   1.622   1.530  0.00  0.00    -0.166 F 
ENDBRANCH   1   9
BRANCH   1  13
ATOM     13  C   UNL d   1       0.271   1.170  -0.975  0.00  0.00     0.441 C 
ATOM     14  F   UNL d   1       0.082   0.675  -2.235  0.00  0.00    -0.166 F 
ATOM     15  F   UNL d   1      -0.945   1.639  -0.609  0.00  0.00    -0.166 F 
ATOM     16  F   UNL d   1       1.095   2.237  -1.089  0.00  0.00    -0.166 F 
ENDBRANCH   1  13
BRANCH   1  17
ATOM     17  N   UNL d   1       2.335  -0.005   0.028  0.00  0.00    -0.334 N 
ATOM     18  H   UNL d   1       2.622  -0.483   0.887  0.00  0.00     0.164 HD
BRANCH  17  19
ATOM     19  C   UNL d   1       3.129  -0.131  -1.053  0.00  0.00     0.126 A 
ATOM     20  N   UNL d   1       2.808   0.095  -2.329  0.00  0.00    -0.245 N 
ATOM     21  O   UNL d   1       3.957  -0.145  -3.059  0.00  0.00    -0.241 OA
ATOM     22  HN  UNL d   1       1.900   0.385  -2.691  1.00  0.00     0.196 HD
ATOM     23  C   UNL d   1       4.951  -0.541  -2.221  0.00  0.00     0.076 A 
ATOM     24  C   UNL d   1       4.470  -0.559  -0.935  0.00  0.00     0.084 A 
ATOM     25  C   UNL d   1       6.255  -0.837  -2.835  0.00  0.00     0.079 C 
ENDBRANCH  17  19
ENDBRANCH   1  17
TORSDOF 5
