REMARK  5 active torsions:
REMARK  status: ('A' for Active; 'I' for Inactive)
REMARK    1  A    between atoms: C_10  and  C_1 
REMARK    2  A    between atoms: C_3  and  N_8 
REMARK    3  A    between atoms: N_7  and  C_3 
REMARK    4  A    between atoms: C_11  and  N_7 
REMARK    5  A    between atoms: N_8  and  C_10 
ROOT
ATOM      1  N   UNL d   1      -0.156  -3.808  -0.135  0.00  0.00    -0.363 N 
ATOM      2  H   UNL d   1      -1.026  -3.318  -0.299  0.00  0.00     0.162 HD
ENDROOT
BRANCH   1   3
ATOM      3  C   UNL d   1      -0.255  -5.134   0.172  0.00  0.00     0.172 C 
ATOM      4  S   UNL d   1       0.960  -6.077   0.824  0.00  0.00    -0.041 SA
BRANCH   3   5
ATOM      5  N   UNL d   1      -1.481  -5.713  -0.010  0.00  0.00    -0.333 N 
ATOM      6  H   UNL d   1      -1.597  -6.575   0.513  0.00  0.00     0.168 HD
BRANCH   5   7
ATOM      7  C   UNL d   1      -2.455  -5.476  -1.002  0.00  0.00     0.034 A 
ATOM      8  C   UNL d   1      -2.215  -4.715  -2.152  0.00  0.00     0.032 A 
ATOM      9  C   UNL d   1      -3.194  -4.606  -3.144  0.00  0.00     0.044 A 
ATOM     10  C   UNL d   1      -4.409  -5.259  -2.986  0.00  0.00     0.116 A 
ATOM     11  C   UNL d   1      -4.666  -6.020  -1.853  0.00  0.00     0.044 A 
ATOM     12  F   UNL d   1      -5.336  -5.170  -3.948  0.00  0.00    -0.206 F 
ATOM     13  C   UNL d   1      -3.686  -6.135  -0.864  0.00  0.00     0.032 A 
ENDBRANCH   5   7
ENDBRANCH   3   5
ENDBRANCH   1   3
BRANCH   1  14
ATOM     14  C   UNL d   1       1.059  -3.008  -0.138  0.00  0.00     0.162 C 
BRANCH  14  15
ATOM     15  C   UNL d   1       0.695  -1.563   0.010  0.00  0.00    -0.022 A 
ATOM     16  C   UNL d   1       0.275  -1.010   1.207  0.00  0.00     0.060 A 
ATOM     17  S   UNL d   1      -0.037   0.656   1.099  0.00  0.00    -0.101 SA
ATOM     18  C   UNL d   1       0.394   0.703  -0.565  0.00  0.00     0.015 A 
ATOM     19  C   UNL d   1       0.763  -0.562  -1.037  0.00  0.00    -0.011 A 
ATOM     20  C   UNL d   1       0.397   1.840  -1.399  0.00  0.00     0.019 A 
ATOM     21  C   UNL d   1       1.141  -0.664  -2.402  0.00  0.00     0.013 A 
ATOM     22  C   UNL d   1       1.147   0.461  -3.233  0.00  0.00     0.001 A 
ATOM     23  C   UNL d   1       0.780   1.702  -2.734  0.00  0.00     0.001 A 
ENDBRANCH  14  15
ENDBRANCH   1  14
TORSDOF 5
