REMARK  4 active torsions:
REMARK  status: ('A' for Active; 'I' for Inactive)
REMARK    1  A    between atoms: C_17  and  C_3 
REMARK    2  A    between atoms: C_7  and  C_18 
REMARK    3  A    between atoms: C_20  and  C_17 
REMARK    4  A    between atoms: C_18  and  C_20 
ROOT
ATOM      1  C   UNL d   1       2.198   2.099  -0.131  0.00  0.00     0.043 C 
ENDROOT
BRANCH   1   2
ATOM      2  C   UNL d   1       1.291   0.897  -0.033  0.00  0.00    -0.004 A 
ATOM      3  C   UNL d   1       1.639  -0.396   0.011  0.00  0.00     0.066 A 
ATOM      4  C   UNL d   1       0.640  -1.488   0.115  0.00  0.00     0.178 A 
ATOM      5  C   UNL d   1      -0.795  -1.114   0.199  0.00  0.00    -0.008 A 
ATOM      6  O   UNL d   1       1.006  -2.656   0.135  0.00  0.00    -0.288 OA
ATOM      7  C   UNL d   1      -1.147   0.175   0.149  0.00  0.00     0.066 A 
ATOM      8  C   UNL d   1      -1.794  -2.220   0.338  0.00  0.00     0.052 C 
ATOM      9  C   UNL d   1      -0.160   1.259   0.019  0.00  0.00     0.178 A 
ATOM     10  O   UNL d   1      -0.543   2.422  -0.037  0.00  0.00    -0.288 OA
ENDBRANCH   1   2
BRANCH   1  11
ATOM     11  C   UNL d   1       3.726   1.924  -0.176  0.00  0.00     0.009 C 
BRANCH  11  12
ATOM     12  C   UNL d   1       4.367   3.326  -0.269  0.00  0.00     0.043 C 
BRANCH  12  13
ATOM     13  C   UNL d   1       5.870   3.448  -0.325  0.00  0.00    -0.004 A 
ATOM     14  C   UNL d   1       6.753   2.439  -0.296  0.00  0.00     0.066 A 
ATOM     15  C   UNL d   1       8.212   2.662  -0.352  0.00  0.00     0.172 A 
ATOM     16  O   UNL d   1       8.997   1.724  -0.333  0.00  0.00    -0.289 OA
ATOM     17  C   UNL d   1       8.690   4.052  -0.430  0.00  0.00     0.058 A 
ATOM     18  C   UNL d   1       7.831   5.074  -0.463  0.00  0.00     0.059 A 
ATOM     19  C   UNL d   1       6.372   4.855  -0.423  0.00  0.00     0.178 A 
ATOM     20  O   UNL d   1       5.612   5.816  -0.468  0.00  0.00    -0.288 OA
ENDBRANCH  12  13
ENDBRANCH  11  12
ENDBRANCH   1  11
TORSDOF 4
