REMARK  6 active torsions:
REMARK  status: ('A' for Active; 'I' for Inactive)
REMARK    1  A    between atoms: C_10  and  N_3 
REMARK    2  A    between atoms: C_12  and  C_4 
REMARK    3  A    between atoms: C_8  and  C_13 
REMARK    4  A    between atoms: C_9  and  C_19 
REMARK    5  A    between atoms: C_11  and  C_10 
REMARK       I    between atoms: N_20  and  C_11 
REMARK    6  A    between atoms: N_15  and  N_20 
ROOT
ATOM      1  N   UNL d   1      -0.503  -0.804   0.146  0.00  0.00    -0.268 N 
ATOM      2  HN  UNL d   1      -0.889  -1.731  -0.034  1.00  0.00     0.190 HD
ATOM      3  N   UNL d   1       0.775  -0.427   0.400  0.00  0.00    -0.207 N 
ATOM      4  C   UNL d   1      -1.119   0.397   0.199  0.00  0.00     0.144 A 
ATOM      5  N   UNL d   1      -0.252   1.421   0.495  0.00  0.00    -0.266 N 
ATOM      6  HN  UNL d   1      -0.492   2.407   0.600  1.00  0.00     0.186 HD
ATOM      7  N   UNL d   1       0.950   0.888   0.617  0.00  0.00    -0.002 NA
ENDROOT
BRANCH   3   8
ATOM      8  C   UNL d   1       1.945  -1.259   0.209  0.00  0.00     0.271 C 
BRANCH   8   9
ATOM      9  C   UNL d   1       1.809  -2.755   0.213  0.00  0.00     0.257 C 
ATOM     10  N   UNL d   1       0.558  -3.317   0.356  0.00  0.00    -0.269 N 
ATOM     11  H   UNL d   1      -0.279  -2.729   0.382  0.00  0.00     0.190 HD
ATOM     12  O   UNL d   1       2.842  -3.426   0.081  0.00  0.00    -0.270 OA
BRANCH  10  13
ATOM     13  N   UNL d   1       0.441  -4.673   0.261  0.00  0.00    -0.308 N 
ATOM     14  C   UNL d   1      -0.743  -5.171   0.392  0.00  0.00     0.122 C 
ATOM     15  HN  UNL d   1       1.253  -5.268   0.094  1.00  0.00     0.186 HD
BRANCH  14  16
ATOM     16  C   UNL d   1      -1.005  -6.625   0.251  0.00  0.00     0.024 A 
ATOM     17  C   UNL d   1      -0.068  -7.609   0.611  0.00  0.00     0.047 A 
ATOM     18 CL   UNL d   1       1.450  -7.271   1.368  0.00  0.00    -0.083 Cl
ATOM     19  C   UNL d   1      -0.362  -8.970   0.422  0.00  0.00     0.025 A 
ATOM     20  C   UNL d   1      -1.585  -9.363  -0.114  0.00  0.00     0.003 A 
ATOM     21  C   UNL d   1      -2.523  -8.397  -0.462  0.00  0.00     0.025 A 
ATOM     22  C   UNL d   1      -2.239  -7.037  -0.284  0.00  0.00     0.047 A 
ATOM     23 CL   UNL d   1      -3.462  -5.918  -0.786  0.00  0.00    -0.083 Cl
ENDBRANCH  14  16
ENDBRANCH  10  13
ENDBRANCH   8   9
ENDBRANCH   3   8
BRANCH   4  24
ATOM     24  C   UNL d   1      -2.527   0.647  -0.092  0.00  0.00     0.011 A 
ATOM     25  C   UNL d   1      -3.423  -0.404  -0.334  0.00  0.00     0.031 A 
ATOM     26  C   UNL d   1      -4.762  -0.146  -0.684  0.00  0.00     0.048 A 
ATOM     27  C   UNL d   1      -5.200   1.184  -0.775  0.00  0.00     0.016 A 
ATOM     28  C   UNL d   1      -4.325   2.236  -0.518  0.00  0.00     0.002 A 
ATOM     29  C   UNL d   1      -2.998   1.968  -0.176  0.00  0.00     0.015 A 
BRANCH  26  30
ATOM     30  C   UNL d   1      -5.723  -1.270  -0.984  0.00  0.00     0.417 C 
ATOM     31  F   UNL d   1      -5.164  -2.507  -0.874  0.00  0.00    -0.166 F 
ATOM     32  F   UNL d   1      -6.800  -1.271  -0.152  0.00  0.00    -0.166 F 
ATOM     33  F   UNL d   1      -6.226  -1.198  -2.248  0.00  0.00    -0.166 F 
ENDBRANCH  26  30
ENDBRANCH   4  24
TORSDOF 6
