REMARK  3 active torsions:
REMARK  status: ('A' for Active; 'I' for Inactive)
REMARK       I    between atoms: N_2  and  C_1 
REMARK    1  A    between atoms: C_4  and  C_1 
REMARK       I    between atoms: C_3  and  N_5 
REMARK    2  A    between atoms: C_13  and  C_3 
REMARK    3  A    between atoms: N_5  and  C_15 
ROOT
ATOM      1  C   UNL d   1       1.014   0.012   0.026  0.00  0.00     0.260 C 
ATOM      2  N   UNL d   1       0.252  -0.775   0.920  0.00  0.00    -0.347 N 
ATOM      3  C   UNL d   1       0.645  -0.799   2.330  0.00  0.00     0.128 C 
ATOM      4  C   UNL d   1      -0.962  -1.529   0.622  0.00  0.00     0.128 C 
ATOM      5  O   UNL d   1       1.971   0.660   0.451  0.00  0.00    -0.267 OA
ATOM      6  C   UNL d   1      -1.808  -1.069   2.958  0.00  0.00     0.087 C 
ATOM      7  C   UNL d   1      -2.137  -1.059   1.466  0.00  0.00     0.045 C 
ATOM      8  C   UNL d   1      -0.497  -0.323   3.229  0.00  0.00     0.045 C 
ENDROOT
BRANCH   6   9
ATOM      9  N   UNL d   1      -1.766  -2.426   3.496  0.00  0.00    -0.352 N 
ATOM     10  C   UNL d   1      -2.920  -3.077   3.892  0.00  0.00     0.252 C 
ATOM     11  O   UNL d   1      -4.031  -2.575   3.814  0.00  0.00    -0.268 OA
ATOM     12  H   UNL d   1      -0.919  -2.964   3.389  0.00  0.00     0.163 HD
BRANCH  10  13
ATOM     13  C   UNL d   1      -2.758  -4.464   4.420  0.00  0.00     0.032 A 
ATOM     14  C   UNL d   1      -1.554  -4.923   4.970  0.00  0.00     0.017 A 
ATOM     15  C   UNL d   1      -1.474  -6.213   5.504  0.00  0.00     0.001 A 
ATOM     16  C   UNL d   1      -2.594  -7.044   5.496  0.00  0.00     0.000 A 
ATOM     17  C   UNL d   1      -3.794  -6.594   4.948  0.00  0.00     0.001 A 
ATOM     18  C   UNL d   1      -3.877  -5.308   4.412  0.00  0.00     0.017 A 
ENDBRANCH  10  13
ENDBRANCH   6   9
BRANCH   1  19
ATOM     19  C   UNL d   1       0.635   0.057  -1.392  0.00  0.00     0.072 A 
ATOM     20  S   UNL d   1       0.912   1.527  -2.252  0.00  0.00    -0.097 SA
ATOM     21  C   UNL d   1       0.250   0.899  -3.696  0.00  0.00     0.050 A 
ATOM     22  C   UNL d   1      -0.171  -0.400  -3.547  0.00  0.00     0.009 A 
ATOM     23  C   UNL d   1       0.124  -0.904  -2.249  0.00  0.00     0.025 A 
ENDBRANCH   1  19
TORSDOF 3
