REMARK  5 active torsions:
REMARK  status: ('A' for Active; 'I' for Inactive)
REMARK    1  A    between atoms: N_3  and  S_1 
REMARK    2  A    between atoms: C_4  and  S_1 
REMARK    3  A    between atoms: C_2  and  N_3 
REMARK    4  A    between atoms: O_20  and  C_12 
REMARK    5  A    between atoms: O_21  and  C_14 
ROOT
ATOM      1  S   UNL d   1       1.091   0.186   0.048  0.00  0.00     0.246 S 
ATOM      2  O   UNL d   1       0.346   1.137   0.843  0.00  0.00    -0.206 OA
ATOM      3  O   UNL d   1       2.537   0.196   0.000  0.00  0.00    -0.206 OA
ENDROOT
BRANCH   1   4
ATOM      4  N   UNL d   1       0.448   0.302  -1.531  0.00  0.00    -0.177 NA
ATOM      5  H   UNL d   1      -0.497   0.680  -1.416  0.00  0.00     0.146 HD
BRANCH   4   6
ATOM      6  C   UNL d   1       1.215   1.150  -2.425  0.00  0.00     0.079 A 
ATOM      7  C   UNL d   1       2.323   0.622  -3.104  0.00  0.00     0.142 A 
ATOM      8  C   UNL d   1       3.072   1.404  -3.980  0.00  0.00     0.086 A 
ATOM      9  F   UNL d   1       2.654  -0.668  -2.952  0.00  0.00    -0.204 F 
ATOM     10  C   UNL d   1       2.720   2.734  -4.165  0.00  0.00     0.120 A 
ATOM     11  C   UNL d   1       1.647   3.297  -3.483  0.00  0.00     0.063 A 
ATOM     12  F   UNL d   1       3.416   3.487  -5.027  0.00  0.00    -0.206 F 
ATOM     13  C   UNL d   1       0.897   2.505  -2.609  0.00  0.00     0.039 A 
ATOM     14 BR   UNL d   1      -0.584   3.308  -1.736  0.00  0.00    -0.049 Br
ENDBRANCH   4   6
ENDBRANCH   1   4
BRANCH   1  15
ATOM     15  C   UNL d   1       0.584  -1.446   0.527  0.00  0.00     0.077 A 
ATOM     16  C   UNL d   1       1.035  -2.542  -0.217  0.00  0.00     0.064 A 
ATOM     17  C   UNL d   1       0.695  -3.852   0.162  0.00  0.00     0.102 A 
ATOM     18  C   UNL d   1      -0.112  -4.045   1.301  0.00  0.00     0.101 A 
ATOM     19  C   UNL d   1      -0.566  -2.928   2.024  0.00  0.00     0.041 A 
ATOM     20  C   UNL d   1      -0.222  -1.630   1.646  0.00  0.00     0.028 A 
BRANCH  17  21
ATOM     21  O   UNL d   1       1.117  -4.955  -0.529  0.00  0.00    -0.353 OA
ATOM     22  C   UNL d   1       1.933  -4.763  -1.677  0.00  0.00     0.210 C 
ENDBRANCH  17  21
BRANCH  18  23
ATOM     23  O   UNL d   1      -0.555  -5.220   1.851  0.00  0.00    -0.353 OA
ATOM     24  C   UNL d   1      -0.103  -6.452   1.310  0.00  0.00     0.210 C 
ENDBRANCH  18  23
ENDBRANCH   1  15
TORSDOF 5
