REMARK  3 active torsions:
REMARK  status: ('A' for Active; 'I' for Inactive)
REMARK    1  A    between atoms: C_4  and  C_1 
REMARK       I    between atoms: N_9  and  C_1 
REMARK    2  A    between atoms: N_10  and  C_2 
REMARK    3  A    between atoms: C_15  and  N_9 
REMARK       I    between atoms: C_11  and  N_10 
ROOT
ATOM      1  C   UNL d   1      -5.433  -0.307  -3.388  0.00  0.00     0.112 A 
ATOM      2  C   UNL d   1      -6.124  -0.038  -2.085  0.00  0.00     0.315 A 
ATOM      3  O   UNL d   1      -5.358   0.413  -1.017  0.00  0.00    -0.273 OA
ATOM      4  C   UNL d   1      -4.102  -0.201  -3.466  0.00  0.00     0.050 A 
ATOM      5  C   UNL d   1      -3.317   0.165  -2.301  0.00  0.00     0.002 A 
ATOM      6  C   UNL d   1      -3.958   0.486  -1.116  0.00  0.00     0.090 A 
ATOM      7  C   UNL d   1      -1.165   0.510  -1.223  0.00  0.00     0.035 A 
ATOM      8  C   UNL d   1      -1.921   0.183  -2.352  0.00  0.00     0.043 A 
ATOM      9  O   UNL d   1      -7.341  -0.200  -1.990  0.00  0.00    -0.257 OA
ATOM     10  C   UNL d   1      -3.235   0.855   0.015  0.00  0.00     0.040 A 
ATOM     11  C   UNL d   1      -1.836   0.862  -0.041  0.00  0.00     0.032 A 
ENDROOT
BRANCH   7  12
ATOM     12  N   UNL d   1       0.248   0.454  -1.191  0.00  0.00    -0.323 N 
ATOM     13  C   UNL d   1       1.089   0.150  -2.255  0.00  0.00     0.262 C 
ATOM     14  O   UNL d   1       0.725   0.034  -3.418  0.00  0.00    -0.267 OA
ATOM     15  H   UNL d   1       0.674   0.600  -0.283  0.00  0.00     0.169 HD
BRANCH  13  16
ATOM     16  C   UNL d   1       2.531  -0.056  -1.945  0.00  0.00     0.109 A 
ATOM     17  C   UNL d   1       3.013  -0.173  -0.640  0.00  0.00     0.135 A 
ATOM     18  F   UNL d   1       2.190  -0.052   0.413  0.00  0.00    -0.205 F 
ATOM     19  C   UNL d   1       4.362  -0.427  -0.381  0.00  0.00     0.043 A 
ATOM     20  C   UNL d   1       5.261  -0.566  -1.435  0.00  0.00     0.006 A 
ATOM     21  C   UNL d   1       4.802  -0.445  -2.744  0.00  0.00     0.043 A 
ATOM     22  C   UNL d   1       3.451  -0.193  -2.992  0.00  0.00     0.135 A 
ATOM     23  F   UNL d   1       3.082  -0.084  -4.276  0.00  0.00    -0.205 F 
ENDBRANCH  13  16
ENDBRANCH   7  12
BRANCH   1  24
ATOM     24  N   UNL d   1      -6.266  -0.665  -4.438  0.00  0.00    -0.322 N 
ATOM     25  C   UNL d   1      -5.925  -0.917  -5.752  0.00  0.00     0.218 C 
ATOM     26  O   UNL d   1      -4.800  -0.843  -6.234  0.00  0.00    -0.274 OA
ATOM     27  C   UNL d   1      -7.103  -1.283  -6.619  0.00  0.00     0.117 C 
ATOM     28  H   UNL d   1      -7.250  -0.722  -4.178  0.00  0.00     0.169 HD
ENDBRANCH   1  24
TORSDOF 3
