REMARK  6 active torsions:
REMARK  status: ('A' for Active; 'I' for Inactive)
REMARK    1  A    between atoms: C_4  and  C_1 
REMARK    2  A    between atoms: O_8  and  N_2 
REMARK    3  A    between atoms: O_11  and  C_7 
REMARK    4  A    between atoms: C_15  and  O_11 
REMARK    5  A    between atoms: O_12  and  C_14 
REMARK    6  A    between atoms: C_14  and  C_15 
ROOT
ATOM      1  C   UNL d   1       2.429   0.082  -0.006  0.00  0.00    -0.012 A 
ATOM      2  C   UNL d   1       3.143   0.520  -1.126  0.00  0.00     0.016 A 
ATOM      3  C   UNL d   1       3.136  -0.337   1.125  0.00  0.00     0.016 A 
ATOM      4  C   UNL d   1       5.247   0.088   0.011  0.00  0.00     0.068 A 
ATOM      5  C   UNL d   1       4.535  -0.331   1.135  0.00  0.00     0.037 A 
ATOM      6  C   UNL d   1       4.542   0.512  -1.118  0.00  0.00     0.037 A 
ENDROOT
BRANCH   1   7
ATOM      7  C   UNL d   1       0.933   0.102   0.028  0.00  0.00     0.038 C 
ATOM      8  N   UNL d   1       0.115  -0.216  -0.933  0.00  0.00    -0.273 N 
ATOM      9  HN  UNL d   1      -0.898  -0.132  -0.854  1.00  0.00     0.193 HD
ATOM     10  C   UNL d   1       0.292   0.524   1.337  0.00  0.00     0.071 C 
BRANCH   8  11
ATOM     11  O   UNL d   1       0.754  -0.684  -2.079  0.00  0.00    -0.290 OA
ATOM     12  H   UNL d   1       0.004  -0.870  -2.674  0.00  0.00     0.244 HD
ENDBRANCH   8  11
ENDBRANCH   1   7
BRANCH   4  13
ATOM     13  O   UNL d   1       6.612   0.127  -0.099  0.00  0.00    -0.349 OA
BRANCH  13  14
ATOM     14  C   UNL d   1       7.348  -0.257   1.064  0.00  0.00     0.201 C 
BRANCH  14  15
ATOM     15  C   UNL d   1       8.842  -0.174   0.774  0.00  0.00     0.190 C 
BRANCH  15  16
ATOM     16  O   UNL d   1       9.576  -0.537   1.938  0.00  0.00    -0.399 OA
ATOM     17  H   UNL d   1      10.520  -0.476   1.710  0.00  0.00     0.209 HD
ENDBRANCH  15  16
ENDBRANCH  14  15
ENDBRANCH  13  14
ENDBRANCH   4  13
TORSDOF 6
