REMARK  7 active torsions:
REMARK  status: ('A' for Active; 'I' for Inactive)
REMARK    1  A    between atoms: C_6  and  C_1 
REMARK       I    between atoms: C_2  and  N_7 
REMARK       I    between atoms: N_15  and  C_2 
REMARK    2  A    between atoms: C_3  and  C_22 
REMARK    3  A    between atoms: N_7  and  C_18 
REMARK    4  A    between atoms: C_25  and  N_15 
REMARK    5  A    between atoms: S_21  and  C_27 
REMARK    6  A    between atoms: C_22  and  S_21 
REMARK    7  A    between atoms: C_27  and  C_25 
ROOT
ATOM      1  C   UNL d   1      -2.070   2.465   6.200  0.00  0.00     0.320 C 
ATOM      2  N   UNL d   1      -3.159   1.903   5.575  0.00  0.00    -0.309 N 
ATOM      3  O   UNL d   1      -0.902   2.099   6.086  0.00  0.00    -0.247 OA
ATOM      4  N   UNL d   1      -2.410   3.546   6.984  0.00  0.00    -0.342 N 
ATOM      5  H   UNL d   1      -3.971   2.500   5.494  0.00  0.00     0.170 HD
ATOM      6  H   UNL d   1      -3.303   3.482   7.452  0.00  0.00     0.164 HD
ENDROOT
BRANCH   4   7
ATOM      7  C   UNL d   1      -1.334   4.179   7.735  0.00  0.00     0.134 C 
BRANCH   7   8
ATOM      8  C   UNL d   1      -1.798   5.304   8.656  0.00  0.00     0.094 C 
BRANCH   8   9
ATOM      9  S   UNL d   1      -3.028   4.755   9.903  0.00  0.00    -0.163 SA
BRANCH   9  10
ATOM     10  C   UNL d   1      -2.010   3.547  10.819  0.00  0.00     0.113 C 
BRANCH  10  11
ATOM     11  C   UNL d   1      -2.736   2.933  12.001  0.00  0.00    -0.037 A 
ATOM     12  C   UNL d   1      -3.567   1.793  11.830  0.00  0.00    -0.054 A 
ATOM     13  C   UNL d   1      -4.227   1.232  12.941  0.00  0.00     0.014 A 
ATOM     14  C   UNL d   1      -3.816   1.105  10.510  0.00  0.00     0.049 C 
ATOM     15  C   UNL d   1      -4.065   1.747  14.225  0.00  0.00    -0.061 A 
ATOM     16  C   UNL d   1      -3.243   2.858  14.397  0.00  0.00     0.014 A 
ATOM     17  C   UNL d   1      -4.755   1.098  15.387  0.00  0.00     0.048 C 
ATOM     18  C   UNL d   1      -2.581   3.465  13.309  0.00  0.00    -0.054 A 
ATOM     19  C   UNL d   1      -1.692   4.632  13.659  0.00  0.00     0.049 C 
ENDBRANCH  10  11
ENDBRANCH   9  10
ENDBRANCH   8   9
ENDBRANCH   7   8
ENDBRANCH   4   7
BRANCH   2  20
ATOM     20  C   UNL d   1      -3.125   0.730   4.787  0.00  0.00     0.036 A 
ATOM     21  C   UNL d   1      -2.093  -0.206   4.878  0.00  0.00     0.030 A 
ATOM     22  C   UNL d   1      -2.092  -1.356   4.081  0.00  0.00     0.018 A 
ATOM     23  C   UNL d   1      -3.133  -1.599   3.180  0.00  0.00     0.048 A 
ATOM     24  C   UNL d   1      -4.173  -0.659   3.090  0.00  0.00     0.018 A 
ATOM     25  C   UNL d   1      -4.174   0.489   3.893  0.00  0.00     0.030 A 
BRANCH  23  26
ATOM     26  C   UNL d   1      -3.120  -2.859   2.352  0.00  0.00     0.417 C 
ATOM     27  F   UNL d   1      -4.203  -2.990   1.539  0.00  0.00    -0.166 F 
ATOM     28  F   UNL d   1      -3.094  -3.982   3.123  0.00  0.00    -0.166 F 
ATOM     29  F   UNL d   1      -2.029  -2.941   1.540  0.00  0.00    -0.166 F 
ENDBRANCH  23  26
ENDBRANCH   2  20
TORSDOF 7
