REMARK  6 active torsions:
REMARK  status: ('A' for Active; 'I' for Inactive)
REMARK    1  A    between atoms: C_3  and  C_1 
REMARK    2  A    between atoms: N_8  and  C_2 
REMARK    3  A    between atoms: O_11  and  C_3 
REMARK    4  A    between atoms: N_6  and  N_8 
REMARK    5  A    between atoms: C_12  and  C_9 
REMARK    6  A    between atoms: C_14  and  O_11 
ROOT
ATOM      1  C   UNL d   1       1.199   0.142  -0.242  0.00  0.00     0.136 C 
ATOM      2  C   UNL d   1       0.602   1.274   0.176  0.00  0.00     0.138 C 
ATOM      3  C   UNL d   1       2.582   0.059  -0.569  0.00  0.00     0.107 C 
ATOM      4  N   UNL d   1       3.699  -0.058  -0.860  0.00  0.00    -0.191 NA
ENDROOT
BRANCH   1   5
ATOM      5  C   UNL d   1       0.370  -1.086  -0.318  0.00  0.00     0.305 C 
ATOM      6  O   UNL d   1      -0.819  -1.141  -0.041  0.00  0.00    -0.258 OA
BRANCH   5   7
ATOM      7  O   UNL d   1       1.146  -2.146  -0.662  0.00  0.00    -0.317 OA
BRANCH   7   8
ATOM      8  C   UNL d   1       0.585  -3.451  -0.466  0.00  0.00     0.174 C 
ATOM      9  C   UNL d   1       0.865  -3.887   0.961  0.00  0.00     0.034 C 
ENDBRANCH   7   8
ENDBRANCH   5   7
ENDBRANCH   1   5
BRANCH   2  10
ATOM     10  N   UNL d   1       1.139   2.537   0.430  0.00  0.00    -0.306 N 
ATOM     11  C   UNL d   1       0.285   3.600   0.981  0.00  0.00     0.177 C 
BRANCH  10  12
ATOM     12  N   UNL d   1       2.478   2.620   0.708  0.00  0.00    -0.310 N 
ATOM     13  C   UNL d   1       3.109   3.574   0.095  0.00  0.00     0.118 C 
ATOM     14  HN  UNL d   1       2.945   1.980   1.350  1.00  0.00     0.186 HD
BRANCH  13  15
ATOM     15  C   UNL d   1       4.577   3.710   0.144  0.00  0.00    -0.019 A 
ATOM     16  C   UNL d   1       5.378   2.743   0.758  0.00  0.00     0.013 A 
ATOM     17  C   UNL d   1       6.768   2.841   0.674  0.00  0.00     0.001 A 
ATOM     18  C   UNL d   1       7.354   3.904  -0.013  0.00  0.00     0.000 A 
ATOM     19  C   UNL d   1       6.554   4.880  -0.607  0.00  0.00     0.001 A 
ATOM     20  C   UNL d   1       5.164   4.786  -0.529  0.00  0.00     0.013 A 
ENDBRANCH  13  15
ENDBRANCH  10  12
ENDBRANCH   2  10
TORSDOF 6
