REMARK  2 active torsions:
REMARK  status: ('A' for Active; 'I' for Inactive)
REMARK    1  A    between atoms: C_7  and  C_2 
REMARK    2  A    between atoms: O_17  and  C_12 
ROOT
ATOM      1  C   UNL d   1       2.477  -0.721  -0.002  0.00  0.00     0.119 A 
ATOM      2  C   UNL d   1       2.414   0.621  -0.062  0.00  0.00     0.112 A 
ATOM      3  C   UNL d   1       1.219  -1.496   0.076  0.00  0.00     0.209 A 
ATOM      4  O   UNL d   1       1.238   1.356  -0.052  0.00  0.00    -0.307 OA
ATOM      5  C   UNL d   1      -0.026  -0.716   0.028  0.00  0.00     0.050 A 
ATOM      6  C   UNL d   1       0.048   0.674  -0.029  0.00  0.00     0.090 A 
ATOM      7  O   UNL d   1       1.185  -2.719   0.169  0.00  0.00    -0.286 OA
ATOM      8 CL   UNL d   1       3.950  -1.626  -0.034  0.00  0.00    -0.077 Cl
ATOM      9  C   UNL d   1      -1.267  -1.362   0.032  0.00  0.00     0.018 A 
ATOM     10  C   UNL d   1      -1.126   1.427  -0.072  0.00  0.00     0.038 A 
ATOM     11  C   UNL d   1      -2.439  -0.608  -0.021  0.00  0.00     0.001 A 
ATOM     12  C   UNL d   1      -2.368   0.784  -0.071  0.00  0.00     0.003 A 
ENDROOT
BRANCH   2  13
ATOM     13  C   UNL d   1       3.626   1.445  -0.182  0.00  0.00    -0.000 A 
ATOM     14  C   UNL d   1       4.121   1.767  -1.450  0.00  0.00     0.017 A 
ATOM     15  C   UNL d   1       5.359   2.401  -1.578  0.00  0.00     0.037 A 
ATOM     16  C   UNL d   1       6.107   2.739  -0.448  0.00  0.00     0.068 A 
ATOM     17  C   UNL d   1       5.597   2.458   0.820  0.00  0.00     0.037 A 
ATOM     18  C   UNL d   1       4.360   1.813   0.952  0.00  0.00     0.017 A 
BRANCH  16  19
ATOM     19  O   UNL d   1       7.330   3.288  -0.720  0.00  0.00    -0.356 OA
ATOM     20  C   UNL d   1       7.981   3.970   0.343  0.00  0.00     0.210 C 
ENDBRANCH  16  19
ENDBRANCH   2  13
TORSDOF 2
