REMARK  1 active torsions:
REMARK  status: ('A' for Active; 'I' for Inactive)
REMARK    1  A    between atoms: N_2  and  C_1 
ROOT
ATOM      1  C   UNL d   1      -2.295   0.051  -0.083  0.00  0.00     0.103 A 
ATOM      2  N   UNL d   1      -1.745  -0.072   1.146  0.00  0.00    -0.351 N 
ATOM      3  HN  UNL d   1      -2.336  -0.128   1.975  1.00  0.00     0.166 HD
ATOM      4  N   UNL d   1       3.034  -0.245   0.515  0.00  0.00    -0.191 NA
ATOM      5  C   UNL d   1       1.886  -0.160   0.372  0.00  0.00     0.101 C 
ATOM      6  C   UNL d   1       0.474  -0.065   0.185  0.00  0.00     0.060 A 
ATOM      7  C   UNL d   1      -1.472   0.127  -1.208  0.00  0.00     0.050 A 
ATOM      8  C   UNL d   1      -0.393  -0.120   1.260  0.00  0.00     0.112 A 
ATOM      9  C   UNL d   1      -0.083   0.064  -1.079  0.00  0.00     0.028 A 
ENDROOT
BRANCH   1  10
ATOM     10  N   UNL d   1      -3.663   0.060  -0.194  0.00  0.00    -0.363 N 
ATOM     11  C   UNL d   1      -4.391   0.773  -1.246  0.00  0.00     0.150 C 
ATOM     12  C   UNL d   1      -5.375   1.776  -0.620  0.00  0.00     0.187 C 
ATOM     13  O   UNL d   1      -6.248   1.146   0.330  0.00  0.00    -0.388 OA
ATOM     14  C   UNL d   1      -5.479   0.567   1.399  0.00  0.00     0.187 C 
ATOM     15  C   UNL d   1      -4.501  -0.494   0.877  0.00  0.00     0.150 C 
ENDBRANCH   1  10
TORSDOF 1
