REMARK  7 active torsions:
REMARK  status: ('A' for Active; 'I' for Inactive)
REMARK    1  A    between atoms: N_3  and  C_1 
REMARK    2  A    between atoms: N_9  and  C_1 
REMARK    3  A    between atoms: C_2  and  N_3 
REMARK    4  A    between atoms: C_4  and  C_6 
REMARK    5  A    between atoms: O_12  and  C_4 
REMARK    6  A    between atoms: C_6  and  C_11 
REMARK    7  A    between atoms: C_11  and  N_9 
ROOT
ATOM      1  C   UNL d   1       0.854  -0.293  -0.283  0.00  0.00     0.172 C 
ATOM      2  S   UNL d   1       2.426  -0.749   0.060  0.00  0.00    -0.041 SA
ENDROOT
BRANCH   1   3
ATOM      3  N   UNL d   1       0.419   0.836  -0.931  0.00  0.00    -0.332 N 
ATOM      4  H   UNL d   1      -0.241   1.346  -0.350  0.00  0.00     0.168 HD
BRANCH   3   5
ATOM      5  C   UNL d   1       1.046   1.593  -1.963  0.00  0.00     0.046 C 
ATOM      6  C   UNL d   1       1.870   1.015  -2.958  0.00  0.00    -0.035 C 
ATOM      7  C   UNL d   1       2.588   1.847  -3.842  0.00  0.00     0.009 C 
ATOM      8  C   UNL d   1       1.985  -0.461  -3.235  0.00  0.00     0.050 C 
ATOM      9  C   UNL d   1       2.427   3.224  -3.825  0.00  0.00     0.001 C 
ATOM     10  C   UNL d   1       1.496   3.782  -2.963  0.00  0.00     0.009 C 
ATOM     11  C   UNL d   1       0.770   2.982  -2.055  0.00  0.00    -0.035 C 
ATOM     12  C   UNL d   1      -0.273   3.715  -1.251  0.00  0.00     0.050 C 
ENDBRANCH   3   5
ENDBRANCH   1   3
BRANCH   1  13
ATOM     13  N   UNL d   1      -0.136  -1.107   0.205  0.00  0.00    -0.366 N 
ATOM     14  H   UNL d   1       0.217  -1.962   0.623  0.00  0.00     0.161 HD
BRANCH  13  15
ATOM     15  C   UNL d   1      -1.580  -0.956   0.073  0.00  0.00     0.132 C 
BRANCH  15  16
ATOM     16  C   UNL d   1      -2.240  -0.698   1.422  0.00  0.00     0.129 C 
BRANCH  16  17
ATOM     17  C   UNL d   1      -1.885   0.669   1.954  0.00  0.00     0.140 C 
ATOM     18  O   UNL d   1      -1.559   1.618   1.264  0.00  0.00    -0.650 OA
BRANCH  17  19
ATOM     19  O   UNL d   1      -2.017   0.761   3.298  0.00  0.00    -0.776 OA
ATOM     20  H   UNL d   1      -2.279  -0.066   3.743  0.00  0.00     0.167 HD
ENDBRANCH  17  19
ENDBRANCH  16  17
ENDBRANCH  15  16
ENDBRANCH  13  15
ENDBRANCH   1  13
TORSDOF 7
