REMARK  4 active torsions:
REMARK  status: ('A' for Active; 'I' for Inactive)
REMARK    1  A    between atoms: C_9  and  C_3 
REMARK    2  A    between atoms: C_13  and  C_4 
REMARK    3  A    between atoms: O_10  and  C_13 
REMARK    4  A    between atoms: C_11  and  O_10 
ROOT
ATOM      1  N   UNL d   1       6.763   5.003  -0.375  0.00  0.00    -0.191 NA
ATOM      2  C   UNL d   1       5.847   4.296  -0.297  0.00  0.00     0.099 C 
ATOM      3  C   UNL d   1       2.457   1.740  -0.025  0.00  0.00    -0.009 A 
ATOM      4  C   UNL d   1       3.636   1.303  -0.649  0.00  0.00     0.015 A 
ATOM      5  C   UNL d   1       2.428   3.028   0.526  0.00  0.00     0.015 A 
ATOM      6  C   UNL d   1       4.708   3.429  -0.199  0.00  0.00     0.044 A 
ATOM      7  C   UNL d   1       4.753   2.142  -0.740  0.00  0.00     0.023 A 
ATOM      8  C   UNL d   1       3.545   3.868   0.438  0.00  0.00     0.023 A 
ENDROOT
BRANCH   3   9
ATOM      9  C   UNL d   1       1.306   0.845   0.044  0.00  0.00     0.049 A 
ATOM     10  N   UNL d   1       1.470  -0.529   0.009  0.00  0.00    -0.351 N 
ATOM     11  C   UNL d   1       0.299  -1.136   0.072  0.00  0.00     0.075 A 
ATOM     12  HN  UNL d   1       2.369  -1.006  -0.055  1.00  0.00     0.166 HD
ATOM     13  S   UNL d   1      -1.062  -0.090   0.164  0.00  0.00    -0.084 SA
ATOM     14  C   UNL d   1      -0.010   1.265   0.100  0.00  0.00     0.082 A 
BRANCH  11  15
ATOM     15  C   UNL d   1       0.126  -2.626  -0.023  0.00  0.00     0.240 C 
BRANCH  15  16
ATOM     16  O   UNL d   1       0.106  -3.151   1.301  0.00  0.00    -0.343 OA
BRANCH  16  17
ATOM     17  C   UNL d   1      -0.107  -4.493   1.481  0.00  0.00     0.090 A 
ATOM     18  C   UNL d   1       0.156  -5.573   0.623  0.00  0.00     0.067 A 
ATOM     19 CL   UNL d   1       0.834  -5.457  -0.962  0.00  0.00    -0.081 Cl
ATOM     20  C   UNL d   1      -0.098  -6.887   1.050  0.00  0.00     0.026 A 
ATOM     21  C   UNL d   1      -0.610  -7.144   2.320  0.00  0.00     0.002 A 
ATOM     22  C   UNL d   1      -0.871  -6.085   3.178  0.00  0.00     0.003 A 
ATOM     23  C   UNL d   1      -0.615  -4.775   2.762  0.00  0.00     0.038 A 
ENDBRANCH  16  17
ENDBRANCH  15  16
ENDBRANCH  11  15
ENDBRANCH   3   9
TORSDOF 4
