REMARK  7 active torsions:
REMARK  status: ('A' for Active; 'I' for Inactive)
REMARK    1  A    between atoms: N_2  and  C_1 
REMARK    2  A    between atoms: C_3  and  C_1 
REMARK    3  A    between atoms: C_5  and  C_1 
REMARK    4  A    between atoms: O_8  and  C_1 
REMARK       I    between atoms: C_4  and  N_2 
REMARK    5  A    between atoms: C_6  and  C_4 
REMARK    6  A    between atoms: O_15  and  C_5 
REMARK    7  A    between atoms: C_19  and  O_15 
ROOT
ATOM      1  C   UNL d   1       1.024  -0.149  -0.087  0.00  0.00     0.325 C 
ENDROOT
BRANCH   1   2
ATOM      2  N   UNL d   1       0.633   1.171   0.433  0.00  0.00    -0.309 N 
ATOM      3  C   UNL d   1       0.842   2.316  -0.287  0.00  0.00     0.255 C 
ATOM      4  O   UNL d   1       1.467   2.283  -1.342  0.00  0.00    -0.268 OA
ATOM      5  H   UNL d   1       0.083   1.159   1.282  0.00  0.00     0.166 HD
BRANCH   3   6
ATOM      6  C   UNL d   1       0.301   3.592   0.251  0.00  0.00     0.047 A 
ATOM      7  C   UNL d   1       0.501   4.754  -0.485  0.00  0.00     0.104 A 
ATOM      8  N   UNL d   1       0.052   5.981  -0.112  0.00  0.00    -0.374 N 
ATOM      9  C   UNL d   1      -0.627   6.053   1.050  0.00  0.00     0.087 A 
ATOM     10  HN  UNL d   1       0.222   6.808  -0.684  1.00  0.00     0.164 HD
ATOM     11  C   UNL d   1      -0.873   4.955   1.863  0.00  0.00     0.018 A 
ATOM     12  C   UNL d   1      -0.399   3.708   1.457  0.00  0.00     0.020 A 
ENDBRANCH   3   6
ENDBRANCH   1   2
BRANCH   1  13
ATOM     13  C   UNL d   1       0.278  -0.634  -1.366  0.00  0.00     0.448 C 
ATOM     14  F   UNL d   1      -0.567   0.308  -1.855  0.00  0.00    -0.166 F 
ATOM     15  F   UNL d   1       1.148  -0.934  -2.364  0.00  0.00    -0.166 F 
ATOM     16  F   UNL d   1      -0.472  -1.743  -1.160  0.00  0.00    -0.166 F 
ENDBRANCH   1  13
BRANCH   1  17
ATOM     17  C   UNL d   1       0.630  -1.128   1.032  0.00  0.00     0.325 C 
ATOM     18  O   UNL d   1      -0.245  -0.882   1.858  0.00  0.00    -0.259 OA
BRANCH  17  19
ATOM     19  O   UNL d   1       1.431  -2.230   1.051  0.00  0.00    -0.318 OA
BRANCH  19  20
ATOM     20  C   UNL d   1       1.417  -2.976   2.276  0.00  0.00     0.174 C 
ATOM     21  C   UNL d   1       2.372  -2.320   3.259  0.00  0.00     0.034 C 
ENDBRANCH  19  20
ENDBRANCH  17  19
ENDBRANCH   1  17
BRANCH   1  22
ATOM     22  O   UNL d   1       2.444  -0.086  -0.228  0.00  0.00    -0.356 OA
ATOM     23  H   UNL d   1       2.589   0.610  -0.903  0.00  0.00     0.213 HD
ENDBRANCH   1  22
TORSDOF 7
