REMARK  8 active torsions:
REMARK  status: ('A' for Active; 'I' for Inactive)
REMARK    1  A    between atoms: C_8  and  C_1 
REMARK    2  A    between atoms: N_10  and  C_2 
REMARK    3  A    between atoms: C_6  and  C_11 
REMARK    4  A    between atoms: C_7  and  C_12 
REMARK       I    between atoms: C_13  and  N_10 
REMARK    5  A    between atoms: O_28  and  C_13 
REMARK    6  A    between atoms: C_17  and  C_14 
REMARK    7  A    between atoms: C_16  and  C_32 
REMARK    8  A    between atoms: C_32  and  O_28 
ROOT
ATOM      1  N   UNL d   1       0.503  -2.528  -0.134  0.00  0.00    -0.298 N 
ATOM      2  C   UNL d   1       1.672  -3.041   0.341  0.00  0.00     0.366 C 
ATOM      3  O   UNL d   1       2.505  -2.508   1.053  0.00  0.00    -0.238 OA
ATOM      4  H   UNL d   1       0.061  -3.117  -0.825  0.00  0.00     0.171 HD
ENDROOT
BRANCH   2   5
ATOM      5  O   UNL d   1       1.773  -4.296  -0.155  0.00  0.00    -0.292 OA
BRANCH   5   6
ATOM      6  C   UNL d   1       2.405  -5.225   0.720  0.00  0.00     0.274 C 
BRANCH   6   7
ATOM      7  C   UNL d   1       1.313  -5.918   1.414  0.00  0.00    -0.074 C 
ATOM      8  C   UNL d   1       0.359  -6.436   1.930  0.00  0.00    -0.065 C 
BRANCH   8   9
ATOM      9  C   UNL d   1      -0.738  -7.119   2.526  0.00  0.00     0.019 A 
ATOM     10  C   UNL d   1      -2.047  -6.621   2.450  0.00  0.00     0.036 A 
ATOM     11  C   UNL d   1      -3.110  -7.329   3.037  0.00  0.00     0.050 A 
ATOM     12  C   UNL d   1      -2.837  -8.539   3.701  0.00  0.00     0.032 A 
ATOM     13  C   UNL d   1      -1.529  -9.042   3.780  0.00  0.00     0.050 A 
ATOM     14  C   UNL d   1      -0.490  -8.320   3.188  0.00  0.00     0.036 A 
BRANCH  11  15
ATOM     15  C   UNL d   1      -4.524  -6.797   2.953  0.00  0.00     0.417 C 
ATOM     16  F   UNL d   1      -5.442  -7.606   3.554  0.00  0.00    -0.166 F 
ATOM     17  F   UNL d   1      -4.659  -5.578   3.541  0.00  0.00    -0.166 F 
ATOM     18  F   UNL d   1      -4.946  -6.646   1.668  0.00  0.00    -0.166 F 
ENDBRANCH  11  15
BRANCH  13  19
ATOM     19  C   UNL d   1      -1.218 -10.342   4.480  0.00  0.00     0.417 C 
ATOM     20  F   UNL d   1      -2.311 -10.954   5.000  0.00  0.00    -0.166 F 
ATOM     21  F   UNL d   1      -0.635 -11.249   3.648  0.00  0.00    -0.166 F 
ATOM     22  F   UNL d   1      -0.348 -10.174   5.516  0.00  0.00    -0.166 F 
ENDBRANCH  13  19
ENDBRANCH   8   9
ENDBRANCH   6   7
ENDBRANCH   5   6
ENDBRANCH   2   5
BRANCH   1  23
ATOM     23  C   UNL d   1       0.145  -1.197  -0.084  0.00  0.00     0.098 A 
ATOM     24  C   UNL d   1      -0.503  -0.456  -1.131  0.00  0.00     0.096 A 
ATOM     25  N   UNL d   1      -0.654   0.820  -0.747  0.00  0.00    -0.258 N 
ATOM     26  O   UNL d   1      -0.196   0.905   0.545  0.00  0.00    -0.240 OA
ATOM     27  HN  UNL d   1      -1.035   1.582  -1.308  1.00  0.00     0.195 HD
ATOM     28  C   UNL d   1       0.282  -0.299   0.952  0.00  0.00     0.101 A 
ATOM     29  C   UNL d   1       0.713  -0.340   2.364  0.00  0.00     0.081 C 
BRANCH  24  30
ATOM     30  C   UNL d   1      -0.871  -0.901  -2.490  0.00  0.00     0.017 A 
ATOM     31  C   UNL d   1      -1.972  -0.386  -3.200  0.00  0.00     0.046 A 
ATOM     32 CL   UNL d   1      -3.085   0.772  -2.552  0.00  0.00    -0.083 Cl
ATOM     33  C   UNL d   1      -2.246  -0.825  -4.505  0.00  0.00     0.025 A 
ATOM     34  C   UNL d   1      -1.458  -1.800  -5.112  0.00  0.00     0.002 A 
ATOM     35  C   UNL d   1      -0.376  -2.331  -4.425  0.00  0.00     0.001 A 
ATOM     36  C   UNL d   1      -0.075  -1.872  -3.139  0.00  0.00     0.015 A 
ENDBRANCH  24  30
ENDBRANCH   1  23
TORSDOF 8
