REMARK  6 active torsions:
REMARK  status: ('A' for Active; 'I' for Inactive)
REMARK    1  A    between atoms: C_2  and  C_1 
REMARK       I    between atoms: N_5  and  C_1 
REMARK    2  A    between atoms: C_3  and  C_4 
REMARK    3  A    between atoms: C_6  and  N_5 
REMARK    4  A    between atoms: O_18  and  C_9 
REMARK    5  A    between atoms: O_17  and  C_10 
REMARK    6  A    between atoms: O_19  and  C_13 
ROOT
ATOM      1  C   UNL d   1       0.989   0.073  -0.345  0.00  0.00     0.261 C 
ATOM      2  N   UNL d   1       0.362   1.153   0.271  0.00  0.00    -0.323 N 
ATOM      3  O   UNL d   1       2.034   0.143  -0.992  0.00  0.00    -0.267 OA
ATOM      4  H   UNL d   1      -0.471   0.948   0.813  0.00  0.00     0.169 HD
ENDROOT
BRANCH   2   5
ATOM      5  C   UNL d   1       0.840   2.493   0.271  0.00  0.00     0.038 A 
ATOM      6  C   UNL d   1       1.872   2.915  -0.575  0.00  0.00     0.046 A 
ATOM      7  C   UNL d   1       2.411   4.204  -0.500  0.00  0.00     0.052 A 
ATOM      8  C   UNL d   1       1.879   5.099   0.432  0.00  0.00     0.053 A 
ATOM      9  C   UNL d   1       0.815   4.721   1.260  0.00  0.00     0.071 A 
ATOM     10  C   UNL d   1       0.285   3.425   1.164  0.00  0.00     0.066 A 
BRANCH   7  11
ATOM     11  C   UNL d   1       3.573   4.605  -1.369  0.00  0.00     0.417 C 
ATOM     12  F   UNL d   1       3.961   3.651  -2.262  0.00  0.00    -0.166 F 
ATOM     13  F   UNL d   1       3.307   5.717  -2.113  0.00  0.00    -0.166 F 
ATOM     14  F   UNL d   1       4.686   4.907  -0.642  0.00  0.00    -0.166 F 
ENDBRANCH   7  11
BRANCH   9  15
ATOM     15  O   UNL d   1       0.427   5.709   2.120  0.00  0.00    -0.356 OA
ATOM     16  C   UNL d   1      -0.612   5.420   3.042  0.00  0.00     0.210 C 
ENDBRANCH   9  15
ENDBRANCH   2   5
BRANCH   1  17
ATOM     17  C   UNL d   1       0.359  -1.279  -0.228  0.00  0.00     0.098 A 
ATOM     18  C   UNL d   1      -1.022  -1.467  -0.431  0.00  0.00     0.086 A 
ATOM     19  C   UNL d   1      -1.530  -2.773  -0.520  0.00  0.00     0.038 A 
ATOM     20  C   UNL d   1      -0.685  -3.878  -0.432  0.00  0.00     0.005 A 
ATOM     21  C   UNL d   1       0.675  -3.698  -0.207  0.00  0.00     0.038 A 
ATOM     22  C   UNL d   1       1.206  -2.410  -0.103  0.00  0.00     0.086 A 
BRANCH  18  23
ATOM     23  O   UNL d   1      -1.822  -0.355  -0.520  0.00  0.00    -0.355 OA
ATOM     24  C   UNL d   1      -3.052  -0.523  -1.222  0.00  0.00     0.210 C 
ENDBRANCH  18  23
BRANCH  22  25
ATOM     25  O   UNL d   1       2.531  -2.200   0.199  0.00  0.00    -0.355 OA
ATOM     26  C   UNL d   1       3.450  -3.173  -0.287  0.00  0.00     0.210 C 
ENDBRANCH  22  25
ENDBRANCH   1  17
TORSDOF 6
