REMARK  0 active torsions:
REMARK  status: ('A' for Active; 'I' for Inactive)
ROOT
ATOM      1  N   UNL d   1      -1.025  -1.008   0.302  0.00  0.00    -0.342 N 
ATOM      2  C   UNL d   1       0.227  -0.309   0.134  0.00  0.00     0.082 C 
ATOM      3  C   UNL d   1      -2.191  -0.366  -0.027  0.00  0.00     0.228 C 
ATOM      4  S   UNL d   1      -0.264   1.456   0.078  0.00  0.00    -0.128 SA
ATOM      5  O   UNL d   1      -3.276  -0.936  -0.046  0.00  0.00    -0.273 OA
ATOM      6  C   UNL d   1      -1.978   1.088  -0.373  0.00  0.00     0.179 C 
ATOM      7  C   UNL d   1       0.898  -0.709  -1.194  0.00  0.00     0.042 C 
ATOM      8  C   UNL d   1       1.163  -0.591   1.318  0.00  0.00     0.042 C 
ATOM      9  C   UNL d   1       2.293  -0.101  -1.369  0.00  0.00     0.003 C 
ATOM     10  C   UNL d   1       2.554   0.023   1.144  0.00  0.00     0.003 C 
ATOM     11  C   UNL d   1       3.194  -0.400  -0.174  0.00  0.00     0.000 C 
ATOM     12  H   UNL d   1      -1.072  -2.000   0.497  0.00  0.00     0.164 HD
ENDROOT
TORSDOF 0
