REMARK  7 active torsions:
REMARK  status: ('A' for Active; 'I' for Inactive)
REMARK    1  A    between atoms: N_3  and  S_1 
REMARK    2  A    between atoms: C_10  and  S_1 
REMARK    3  A    between atoms: S_2  and  N_8 
REMARK    4  A    between atoms: C_11  and  S_2 
REMARK    5  A    between atoms: C_4  and  N_3 
REMARK    6  A    between atoms: N_8  and  C_21 
REMARK    7  A    between atoms: O_27  and  C_22 
ROOT
ATOM      1  C   UNL d   1       0.448  -0.736   1.540  0.00  0.00     0.075 A 
ATOM      2  C   UNL d   1       0.520  -2.125   1.700  0.00  0.00     0.027 A 
ATOM      3  C   UNL d   1       0.092   0.081   2.617  0.00  0.00     0.027 A 
ATOM      4  C   UNL d   1      -0.137  -1.881   4.015  0.00  0.00     0.042 A 
ATOM      5  C   UNL d   1       0.224  -2.697   2.942  0.00  0.00     0.031 A 
ATOM      6  C   UNL d   1      -0.212  -0.497   3.853  0.00  0.00     0.031 A 
ENDROOT
BRANCH   4   7
ATOM      7  N   UNL d   1      -0.521  -2.454   5.248  0.00  0.00    -0.281 N 
ATOM      8  H   UNL d   1      -1.505  -2.547   5.486  0.00  0.00     0.179 HD
BRANCH   7   9
ATOM      9  S   UNL d   1       0.585  -2.845   6.441  0.00  0.00     0.263 S 
ATOM     10  O   UNL d   1      -0.200  -3.320   7.565  0.00  0.00    -0.200 OA
ATOM     11  O   UNL d   1       1.636  -3.657   5.871  0.00  0.00    -0.200 OA
BRANCH   9  12
ATOM     12  C   UNL d   1       1.278  -1.274   6.907  0.00  0.00     0.080 A 
ATOM     13  C   UNL d   1       0.678  -0.515   7.917  0.00  0.00     0.028 A 
ATOM     14  C   UNL d   1       1.237   0.714   8.288  0.00  0.00     0.038 A 
ATOM     15  C   UNL d   1       2.396   1.175   7.659  0.00  0.00     0.068 A 
ATOM     16  C   UNL d   1       3.015   0.385   6.687  0.00  0.00     0.038 A 
ATOM     17  C   UNL d   1       2.462  -0.840   6.306  0.00  0.00     0.028 A 
BRANCH  15  18
ATOM     18  O   UNL d   1       3.037   2.347   7.952  0.00  0.00    -0.356 OA
ATOM     19  C   UNL d   1       2.205   3.411   8.403  0.00  0.00     0.210 C 
ENDBRANCH  15  18
ENDBRANCH   9  12
ENDBRANCH   7   9
ENDBRANCH   4   7
BRANCH   1  20
ATOM     20  S   UNL d   1       0.964  -0.006   0.004  0.00  0.00     0.247 S 
ATOM     21  O   UNL d   1       1.280   1.386   0.262  0.00  0.00    -0.205 OA
ATOM     22  O   UNL d   1       1.938  -0.873  -0.621  0.00  0.00    -0.205 OA
BRANCH  20  23
ATOM     23  N   UNL d   1      -0.449   0.029  -0.922  0.00  0.00    -0.165 NA
ATOM     24  H   UNL d   1      -0.512   0.955  -1.343  0.00  0.00     0.147 HD
BRANCH  23  25
ATOM     25  C   UNL d   1      -0.677  -1.048  -1.769  0.00  0.00     0.117 A 
ATOM     26  N   UNL d   1      -1.427  -2.084  -1.391  0.00  0.00    -0.249 N 
ATOM     27  O   UNL d   1      -1.443  -2.947  -2.472  0.00  0.00    -0.241 OA
ATOM     28  HN  UNL d   1      -1.892  -2.213  -0.492  1.00  0.00     0.196 HD
ATOM     29  C   UNL d   1      -0.699  -2.421  -3.482  0.00  0.00     0.075 A 
ATOM     30  C   UNL d   1      -0.215  -1.195  -3.093  0.00  0.00     0.079 A 
ATOM     31  C   UNL d   1      -0.573  -3.249  -4.694  0.00  0.00     0.079 C 
ENDBRANCH  23  25
ENDBRANCH  20  23
ENDBRANCH   1  20
TORSDOF 7
