REMARK  6 active torsions:
REMARK  status: ('A' for Active; 'I' for Inactive)
REMARK    1  A    between atoms: C_8  and  N_1 
REMARK    2  A    between atoms: C_9  and  C_2 
REMARK    3  A    between atoms: S_14  and  C_3 
REMARK    4  A    between atoms: C_13  and  C_9 
REMARK    5  A    between atoms: O_22  and  C_10 
REMARK    6  A    between atoms: O_24  and  C_11 
ROOT
ATOM      1  N   UNL d   1      -0.265  -0.946   0.952  0.00  0.00    -0.279 N 
ATOM      2  C   UNL d   1       0.824  -0.720   0.101  0.00  0.00     0.109 A 
ATOM      3  C   UNL d   1      -1.282  -0.192   0.362  0.00  0.00     0.164 A 
ATOM      4  N   UNL d   1       0.458   0.082  -0.881  0.00  0.00    -0.286 N 
ATOM      5  HN  UNL d   1       1.063   0.412  -1.633  1.00  0.00     0.188 HD
ATOM      6  N   UNL d   1      -0.853   0.399  -0.729  0.00  0.00    -0.278 N 
ATOM      7  HN  UNL d   1      -1.405   0.989  -1.351  1.00  0.00     0.189 HD
ENDROOT
BRANCH   2   8
ATOM      8  C   UNL d   1       2.187  -1.330   0.136  0.00  0.00     0.117 C 
BRANCH   8   9
ATOM      9  C   UNL d   1       2.277  -2.810  -0.169  0.00  0.00    -0.048 A 
ATOM     10  C   UNL d   1       3.387  -3.538   0.299  0.00  0.00     0.047 A 
ATOM     11  C   UNL d   1       3.609  -4.875  -0.078  0.00  0.00     0.102 A 
ATOM     12  C   UNL d   1       2.675  -5.514  -0.909  0.00  0.00     0.101 A 
ATOM     13  C   UNL d   1       1.561  -4.794  -1.359  0.00  0.00     0.040 A 
ATOM     14  C   UNL d   1       1.371  -3.455  -1.015  0.00  0.00     0.010 A 
BRANCH  11  15
ATOM     15  O   UNL d   1       4.689  -5.583   0.379  0.00  0.00    -0.353 OA
ATOM     16  C   UNL d   1       5.878  -4.840   0.630  0.00  0.00     0.210 C 
ENDBRANCH  11  15
BRANCH  12  17
ATOM     17  O   UNL d   1       2.690  -6.797  -1.389  0.00  0.00    -0.353 OA
ATOM     18  C   UNL d   1       3.859  -7.582  -1.206  0.00  0.00     0.210 C 
ENDBRANCH  12  17
ENDBRANCH   8   9
ENDBRANCH   2   8
BRANCH   1  19
ATOM     19  C   UNL d   1      -0.326  -1.740   2.142  0.00  0.00     0.043 A 
ATOM     20  C   UNL d   1       0.789  -1.855   2.990  0.00  0.00     0.033 A 
ATOM     21  C   UNL d   1       0.698  -2.569   4.192  0.00  0.00     0.044 A 
ATOM     22  C   UNL d   1      -0.500  -3.150   4.561  0.00  0.00     0.116 A 
ATOM     23  C   UNL d   1      -1.611  -3.071   3.732  0.00  0.00     0.044 A 
ATOM     24  F   UNL d   1      -0.598  -3.790   5.735  0.00  0.00    -0.206 F 
ATOM     25  C   UNL d   1      -1.515  -2.390   2.514  0.00  0.00     0.033 A 
ENDBRANCH   1  19
BRANCH   3  26
ATOM     26  S   UNL d   1      -2.869   0.159   0.989  0.00  0.00    -0.105 SA
ATOM     27  H   UNL d   1      -2.688  -0.153   2.278  0.00  0.00     0.110 HD
ENDBRANCH   3  26
TORSDOF 6
