REMARK  4 active torsions:
REMARK  status: ('A' for Active; 'I' for Inactive)
REMARK    1  A    between atoms: C_7  and  C_1 
REMARK       I    between atoms: C_2  and  N_5 
REMARK       I    between atoms: N_6  and  C_2 
REMARK    2  A    between atoms: N_3  and  C_8 
REMARK    3  A    between atoms: N_5  and  C_21 
REMARK    4  A    between atoms: C_22  and  N_6 
ROOT
ATOM      1  C   UNL d   1      -0.964  -0.579  -6.658  0.00  0.00     0.325 C 
ATOM      2  N   UNL d   1      -1.057   0.364  -7.672  0.00  0.00    -0.309 N 
ATOM      3  N   UNL d   1      -1.498  -0.142  -5.458  0.00  0.00    -0.309 N 
ATOM      4  O   UNL d   1      -0.457  -1.685  -6.820  0.00  0.00    -0.247 OA
ATOM      5  H   UNL d   1      -1.611   1.186  -7.489  0.00  0.00     0.170 HD
ATOM      6  H   UNL d   1      -1.978   0.743  -5.442  0.00  0.00     0.170 HD
ENDROOT
BRANCH   3   7
ATOM      7  C   UNL d   1      -1.365  -0.817  -4.217  0.00  0.00     0.036 A 
ATOM      8  C   UNL d   1      -0.699  -2.031  -4.079  0.00  0.00     0.032 A 
ATOM      9  C   UNL d   1      -0.447  -2.575  -2.822  0.00  0.00     0.031 A 
ATOM     10  C   UNL d   1      -0.838  -1.939  -1.640  0.00  0.00     0.030 A 
ATOM     11  C   UNL d   1      -1.612  -0.783  -1.788  0.00  0.00     0.031 A 
ATOM     12  C   UNL d   1      -1.871  -0.224  -3.058  0.00  0.00     0.032 A 
BRANCH  10  13
ATOM     13  N   UNL d   1      -0.475  -2.499  -0.429  0.00  0.00    -0.378 N 
ATOM     14  C   UNL d   1      -1.102  -2.130   0.846  0.00  0.00     0.153 C 
ATOM     15  C   UNL d   1      -0.961  -3.312   1.849  0.00  0.00     0.291 C 
ATOM     16  N   UNL d   1       0.413  -3.854   2.001  0.00  0.00     0.087 N 
ATOM     17  C   UNL d   1       1.008  -4.116   0.670  0.00  0.00     0.291 C 
ATOM     18  C   UNL d   1       0.387  -5.097   2.775  0.00  0.00     0.310 C 
ATOM     19  C   UNL d   1       0.942  -2.888  -0.255  0.00  0.00     0.153 C 
ENDBRANCH  10  13
ENDBRANCH   3   7
BRANCH   2  20
ATOM     20  C   UNL d   1      -0.679   0.133  -9.020  0.00  0.00     0.036 C 
ATOM     21  C   UNL d   1       0.066  -0.980  -9.430  0.00  0.00     0.030 C 
ATOM     22  C   UNL d   1       0.180  -1.310 -10.779  0.00  0.00     0.018 C 
ATOM     23  C   UNL d   1      -0.424  -0.512 -11.753  0.00  0.00     0.048 C 
ATOM     24  C   UNL d   1      -1.021   0.693 -11.355  0.00  0.00     0.018 C 
ATOM     25  C   UNL d   1      -1.142   1.016  -9.997  0.00  0.00     0.030 C 
BRANCH  23  26
ATOM     26  C   UNL d   1      -0.490  -1.008 -13.175  0.00  0.00     0.417 C 
ATOM     27  F   UNL d   1      -1.177  -0.178 -14.008  0.00  0.00    -0.166 F 
ATOM     28  F   UNL d   1      -1.114  -2.217 -13.263  0.00  0.00    -0.166 F 
ATOM     29  F   UNL d   1       0.737  -1.180 -13.738  0.00  0.00    -0.166 F 
ENDBRANCH  23  26
ENDBRANCH   2  20
TORSDOF 4
