REMARK  7 active torsions:
REMARK  status: ('A' for Active; 'I' for Inactive)
REMARK    1  A    between atoms: C_3  and  N_1 
REMARK    2  A    between atoms: C_2  and  S_8 
REMARK    3  A    between atoms: S_4  and  C_2 
REMARK    4  A    between atoms: C_12  and  S_4 
REMARK    5  A    between atoms: C_6  and  C_10 
REMARK    6  A    between atoms: C_11  and  C_6 
REMARK    7  A    between atoms: S_8  and  C_11 
ROOT
ATOM      1  C   UNL d   1      -1.395  -2.204  -4.042  0.00  0.00     0.169 C 
ATOM      2  O   UNL d   1      -0.625  -1.508  -3.379  0.00  0.00    -0.291 OA
ENDROOT
BRANCH   1   3
ATOM      3  C   UNL d   1      -1.210  -3.696  -4.003  0.00  0.00     0.011 A 
ATOM      4  C   UNL d   1      -2.034  -4.578  -4.718  0.00  0.00     0.017 A 
ATOM      5  C   UNL d   1      -1.843  -5.966  -4.617  0.00  0.00     0.037 A 
ATOM      6  C   UNL d   1      -0.825  -6.476  -3.800  0.00  0.00     0.102 A 
ATOM      7  C   UNL d   1       0.017  -5.606  -3.100  0.00  0.00     0.037 A 
ATOM      8  C   UNL d   1      -0.179  -4.222  -3.205  0.00  0.00     0.017 A 
BRANCH   6   9
ATOM      9  N   UNL d   1      -0.649  -7.929  -3.672  0.00  0.00    -0.116 N 
ATOM     10  O   UNL d   1       0.279  -8.336  -2.962  0.00  0.00    -0.532 OA
ATOM     11  O   UNL d   1      -1.445  -8.658  -4.280  0.00  0.00    -0.532 OA
ENDBRANCH   6   9
ENDBRANCH   1   3
BRANCH   1  12
ATOM     12  C   UNL d   1      -2.518  -1.635  -4.889  0.00  0.00     0.164 C 
BRANCH  12  13
ATOM     13  S   UNL d   1      -2.594   0.183  -4.892  0.00  0.00    -0.104 SA
BRANCH  13  14
ATOM     14  C   UNL d   1      -3.026   0.562  -3.224  0.00  0.00     0.105 C 
ATOM     15  S   UNL d   1      -4.255  -0.207  -2.378  0.00  0.00    -0.065 SA
BRANCH  14  16
ATOM     16  S   UNL d   1      -2.014   1.802  -2.493  0.00  0.00    -0.102 SA
BRANCH  16  17
ATOM     17  C   UNL d   1      -2.921   3.388  -2.744  0.00  0.00     0.003 C 
ATOM     18  C   UNL d   1      -4.319   3.383  -2.111  0.00  0.00     0.026 C 
ATOM     19  C   UNL d   1      -2.068   4.463  -2.040  0.00  0.00     0.026 C 
ATOM     20  C   UNL d   1      -3.023   3.746  -4.231  0.00  0.00     0.026 C 
ENDBRANCH  16  17
ENDBRANCH  14  16
ENDBRANCH  13  14
ENDBRANCH  12  13
ENDBRANCH   1  12
TORSDOF 7
