REMARK  5 active torsions:
REMARK  status: ('A' for Active; 'I' for Inactive)
REMARK    1  A    between atoms: C_11  and  C_1 
REMARK    2  A    between atoms: C_4  and  C_8 
REMARK    3  A    between atoms: C_5  and  C_7 
REMARK       I    between atoms: C_10  and  N_15 
REMARK       I    between atoms: N_14  and  C_10 
REMARK    4  A    between atoms: N_15  and  C_11 
REMARK    5  A    between atoms: C_13  and  N_14 
ROOT
ATOM      1  C   UNL d   1       3.525  -4.096  -0.054  0.00  0.00     0.320 C 
ATOM      2  N   UNL d   1       4.893  -4.269  -0.092  0.00  0.00    -0.309 N 
ATOM      3  N   UNL d   1       3.158  -2.809   0.273  0.00  0.00    -0.339 N 
ATOM      4  O   UNL d   1       2.681  -4.958  -0.281  0.00  0.00    -0.247 OA
ATOM      5  H   UNL d   1       5.457  -3.471   0.155  0.00  0.00     0.170 HD
ATOM      6  H   UNL d   1       3.860  -2.111   0.456  0.00  0.00     0.164 HD
ENDROOT
BRANCH   2   7
ATOM      7  C   UNL d   1       5.570  -5.505  -0.236  0.00  0.00     0.037 A 
ATOM      8  C   UNL d   1       4.919  -6.698  -0.561  0.00  0.00     0.045 A 
ATOM      9  C   UNL d   1       5.572  -7.937  -0.472  0.00  0.00     0.050 A 
ATOM     10  C   UNL d   1       6.928  -7.966  -0.123  0.00  0.00     0.032 A 
ATOM     11  C   UNL d   1       7.626  -6.776   0.135  0.00  0.00     0.050 A 
ATOM     12  C   UNL d   1       6.939  -5.548   0.055  0.00  0.00     0.045 A 
BRANCH   9  13
ATOM     13  C   UNL d   1       4.778  -9.204  -0.689  0.00  0.00     0.417 C 
ATOM     14  F   UNL d   1       5.469 -10.331  -0.360  0.00  0.00    -0.166 F 
ATOM     15  F   UNL d   1       3.640  -9.239   0.058  0.00  0.00    -0.166 F 
ATOM     16  F   UNL d   1       4.389  -9.366  -1.982  0.00  0.00    -0.166 F 
ENDBRANCH   9  13
BRANCH  11  17
ATOM     17  C   UNL d   1       9.077  -6.810   0.556  0.00  0.00     0.417 C 
ATOM     18  F   UNL d   1       9.556  -8.068   0.757  0.00  0.00    -0.166 F 
ATOM     19  F   UNL d   1       9.901  -6.235  -0.361  0.00  0.00    -0.166 F 
ATOM     20  F   UNL d   1       9.290  -6.139   1.723  0.00  0.00    -0.166 F 
ENDBRANCH  11  17
ENDBRANCH   2   7
BRANCH   3  21
ATOM     21  C   UNL d   1       1.775  -2.395   0.206  0.00  0.00     0.166 C 
BRANCH  21  22
ATOM     22  C   UNL d   1       1.135  -2.326   1.552  0.00  0.00     0.002 A 
ATOM     23  C   UNL d   1       1.072  -1.235   2.410  0.00  0.00     0.058 A 
ATOM     24  O   UNL d   1       0.262  -1.500   3.472  0.00  0.00    -0.314 OA
ATOM     25  C   UNL d   1       1.623   0.134   2.381  0.00  0.00     0.077 C 
ATOM     26  C   UNL d   1      -0.227  -2.754   3.305  0.00  0.00     0.086 A 
ATOM     27  C   UNL d   1       0.308  -3.331   2.161  0.00  0.00     0.008 A 
ATOM     28  C   UNL d   1      -1.159  -3.371   4.140  0.00  0.00     0.038 A 
ATOM     29  C   UNL d   1      -0.091  -4.643   1.838  0.00  0.00     0.015 A 
ATOM     30  C   UNL d   1      -1.025  -5.294   2.659  0.00  0.00     0.001 A 
ATOM     31  C   UNL d   1      -1.559  -4.662   3.784  0.00  0.00     0.003 A 
ENDBRANCH  21  22
ENDBRANCH   3  21
TORSDOF 5
