REMARK  8 active torsions:
REMARK  status: ('A' for Active; 'I' for Inactive)
REMARK    1  A    between atoms: N_3  and  C_1 
REMARK    2  A    between atoms: O_7  and  C_2 
REMARK    3  A    between atoms: C_4  and  O_7 
REMARK    4  A    between atoms: C_6  and  C_4 
REMARK    5  A    between atoms: C_13  and  C_5 
REMARK    6  A    between atoms: O_12  and  C_8 
REMARK    7  A    between atoms: C_17  and  C_10 
REMARK    8  A    between atoms: C_20  and  O_12 
ROOT
ATOM      1  C   UNL d   1       1.266  -0.001  -0.135  0.00  0.00     0.137 C 
ATOM      2  C   UNL d   1       0.555  -1.198   0.031  0.00  0.00     0.119 C 
ATOM      3  C   UNL d   1      -0.858  -1.183  -0.032  0.00  0.00    -0.013 C 
ATOM      4  C   UNL d   1       0.621   1.226  -0.344  0.00  0.00     0.047 C 
ATOM      5  C   UNL d   1      -0.765   1.315  -0.189  0.00  0.00    -0.048 C 
ATOM      6  C   UNL d   1      -1.482   0.102  -0.124  0.00  0.00     0.018 C 
ENDROOT
BRANCH   2   7
ATOM      7  O   UNL d   1       1.189  -2.358   0.596  0.00  0.00    -0.272 OA
BRANCH   7   8
ATOM      8  C   UNL d   1       2.454  -2.949   0.404  0.00  0.00     0.303 C 
ATOM      9  O   UNL d   1       3.121  -2.874  -0.603  0.00  0.00    -0.259 OA
BRANCH   8  10
ATOM     10  C   UNL d   1       2.808  -3.591   1.706  0.00  0.00     0.091 A 
ATOM     11  C   UNL d   1       3.608  -4.718   1.855  0.00  0.00     0.164 A 
ATOM     12  N   UNL d   1       3.861  -5.265   3.082  0.00  0.00    -0.346 N 
ATOM     13  C   UNL d   1       3.410  -4.637   4.184  0.00  0.00     0.090 A 
ATOM     14  HN  UNL d   1       4.384  -6.138   3.162  1.00  0.00     0.167 HD
ATOM     15  C   UNL d   1       2.660  -3.486   4.136  0.00  0.00     0.018 A 
ATOM     16  C   UNL d   1       2.348  -2.970   2.886  0.00  0.00     0.023 A 
BRANCH  11  17
ATOM     17  O   UNL d   1       4.172  -5.361   0.757  0.00  0.00    -0.293 OA
BRANCH  17  18
ATOM     18  C   UNL d   1       5.279  -6.162   1.013  0.00  0.00     0.077 A 
ATOM     19  C   UNL d   1       5.307  -7.456   0.482  0.00  0.00     0.037 A 
ATOM     20  C   UNL d   1       6.400  -8.296   0.740  0.00  0.00     0.003 A 
ATOM     21  C   UNL d   1       7.465  -7.845   1.516  0.00  0.00     0.000 A 
ATOM     22  C   UNL d   1       7.456  -6.548   2.025  0.00  0.00     0.003 A 
ATOM     23  C   UNL d   1       6.376  -5.703   1.754  0.00  0.00     0.037 A 
ENDBRANCH  17  18
ENDBRANCH  11  17
ENDBRANCH   8  10
ENDBRANCH   7   8
ENDBRANCH   2   7
BRANCH   1  24
ATOM     24  N   UNL d   1       2.622   0.124   0.348  0.00  0.00    -0.113 N 
ATOM     25  O   UNL d   1       2.774   0.074   1.577  0.00  0.00    -0.532 OA
ATOM     26  O   UNL d   1       3.507   0.371  -0.484  0.00  0.00    -0.532 OA
ENDBRANCH   1  24
BRANCH   3  27
ATOM     27  C   UNL d   1      -1.778  -2.420   0.127  0.00  0.00    -0.021 C 
ATOM     28  C   UNL d   1      -1.069  -3.792   0.144  0.00  0.00     0.019 C 
ATOM     29  C   UNL d   1      -2.569  -2.304   1.451  0.00  0.00     0.019 C 
ATOM     30  C   UNL d   1      -2.784  -2.483  -1.050  0.00  0.00     0.019 C 
ENDBRANCH   3  27
BRANCH   5  31
ATOM     31  C   UNL d   1      -1.389   2.688   0.155  0.00  0.00    -0.024 C 
ATOM     32  C   UNL d   1      -1.300   3.668  -1.028  0.00  0.00     0.019 C 
ATOM     33  C   UNL d   1      -2.865   2.620   0.609  0.00  0.00     0.019 C 
ATOM     34  C   UNL d   1      -0.600   3.284   1.355  0.00  0.00     0.019 C 
ENDBRANCH   5  31
TORSDOF 8
