REMARK  4 active torsions:
REMARK  status: ('A' for Active; 'I' for Inactive)
REMARK    1  A    between atoms: C_10  and  N_1 
REMARK    2  A    between atoms: C_4  and  C_3 
REMARK    3  A    between atoms: C_5  and  C_4 
REMARK    4  A    between atoms: O_18  and  C_9 
ROOT
ATOM      1  N   UNL d   1      -1.913  -0.933  -0.137  0.00  0.00    -0.297 N 
ATOM      2  C   UNL d   1      -1.543   0.405  -0.309  0.00  0.00     0.260 A 
ATOM      3  C   UNL d   1      -0.736  -1.801   0.006  0.00  0.00     0.202 A 
ATOM      4  C   UNL d   1       0.399  -0.817   0.063  0.00  0.00    -0.012 A 
ATOM      5  C   UNL d   1      -0.085   0.467  -0.162  0.00  0.00     0.041 A 
ATOM      6  O   UNL d   1      -2.213   1.406  -0.470  0.00  0.00    -0.267 OA
ATOM      7  C   UNL d   1       1.753  -1.016   0.286  0.00  0.00     0.011 A 
ATOM      8  C   UNL d   1       0.729   1.585  -0.180  0.00  0.00     0.017 A 
ATOM      9  C   UNL d   1       2.599   0.099   0.269  0.00  0.00     0.001 A 
ATOM     10  C   UNL d   1       2.093   1.390   0.035  0.00  0.00     0.001 A 
ENDROOT
BRANCH   3  11
ATOM     11  C   UNL d   1      -0.583  -2.720  -1.223  0.00  0.00     0.190 C 
ATOM     12  O   UNL d   1      -0.874  -2.355  -2.367  0.00  0.00    -0.290 OA
BRANCH  11  13
ATOM     13  C   UNL d   1      -0.013  -4.097  -1.064  0.00  0.00     0.046 A 
ATOM     14  C   UNL d   1       0.508  -4.549   0.156  0.00  0.00     0.025 A 
ATOM     15  C   UNL d   1       1.047  -5.843   0.288  0.00  0.00    -0.055 A 
ATOM     16  C   UNL d   1       1.671  -6.248   1.598  0.00  0.00     0.049 C 
ATOM     17  C   UNL d   1       1.016  -6.724  -0.808  0.00  0.00    -0.053 A 
ATOM     18  C   UNL d   1       0.519  -6.265  -2.034  0.00  0.00     0.044 A 
ATOM     19  C   UNL d   1       1.534  -8.133  -0.702  0.00  0.00     0.049 C 
ATOM     20  C   UNL d   1       0.030  -4.965  -2.165  0.00  0.00     0.080 A 
BRANCH  20  21
ATOM     21  O   UNL d   1      -0.379  -4.612  -3.424  0.00  0.00    -0.360 OA
ATOM     22  H   UNL d   1      -0.639  -3.663  -3.409  0.00  0.00     0.217 HD
ENDBRANCH  20  21
ENDBRANCH  11  13
ENDBRANCH   3  11
BRANCH   1  23
ATOM     23  C   UNL d   1      -3.246  -1.426  -0.128  0.00  0.00     0.038 A 
ATOM     24  C   UNL d   1      -4.300  -0.669  -0.653  0.00  0.00     0.030 A 
ATOM     25  C   UNL d   1      -5.610  -1.159  -0.667  0.00  0.00     0.009 A 
ATOM     26  C   UNL d   1      -5.905  -2.415  -0.134  0.00  0.00    -0.062 A 
ATOM     27  C   UNL d   1      -4.865  -3.175   0.405  0.00  0.00     0.009 A 
ATOM     28  C   UNL d   1      -7.309  -2.936  -0.179  0.00  0.00     0.048 C 
ATOM     29  C   UNL d   1      -3.550  -2.689   0.401  0.00  0.00     0.030 A 
ENDBRANCH   1  23
TORSDOF 4
