REMARK  8 active torsions:
REMARK  status: ('A' for Active; 'I' for Inactive)
REMARK    1  A    between atoms: C_2  and  N_1 
REMARK    2  A    between atoms: N_12  and  C_10 
REMARK    3  A    between atoms: C_17  and  N_12 
REMARK    4  A    between atoms: N_13  and  C_18 
REMARK    5  A    between atoms: C_19  and  N_13 
REMARK    6  A    between atoms: O_15  and  C_20 
REMARK    7  A    between atoms: C_18  and  C_17 
REMARK    8  A    between atoms: C_20  and  C_19 
ROOT
ATOM      1  C   UNL d   1       0.285  -0.975  -0.824  0.00  0.00     0.115 A 
ATOM      2  C   UNL d   1      -1.117  -0.805  -0.700  0.00  0.00     0.026 A 
ATOM      3  C   UNL d   1      -1.962  -1.597  -1.521  0.00  0.00     0.071 A 
ATOM      4  C   UNL d   1       0.860  -1.875  -1.724  0.00  0.00     0.039 A 
ATOM      5  N   UNL d   1      -3.308  -1.490  -1.444  0.00  0.00    -0.363 N 
ATOM      6  HN  UNL d   1      -3.904  -2.064  -2.039  1.00  0.00     0.165 HD
ATOM      7  C   UNL d   1      -1.378  -2.531  -2.418  0.00  0.00     0.056 A 
ATOM      8  C   UNL d   1       0.021  -2.650  -2.512  0.00  0.00     0.034 A 
ATOM      9  C   UNL d   1      -1.738   0.109   0.188  0.00  0.00     0.017 A 
ATOM     10  C   UNL d   1      -3.856  -0.614  -0.573  0.00  0.00     0.088 A 
ATOM     11  C   UNL d   1      -3.121   0.201   0.257  0.00  0.00     0.018 A 
ENDROOT
BRANCH   7  12
ATOM     12  N   UNL d   1      -2.192  -3.315  -3.260  0.00  0.00    -0.386 N 
ATOM     13  H   UNL d   1      -3.190  -3.123  -3.159  0.00  0.00     0.159 HD
BRANCH  12  14
ATOM     14  C   UNL d   1      -1.855  -4.720  -3.504  0.00  0.00     0.150 C 
BRANCH  14  15
ATOM     15  C   UNL d   1      -3.112  -5.622  -3.546  0.00  0.00     0.289 C 
BRANCH  15  16
ATOM     16  N   UNL d   1      -4.107  -5.167  -4.521  0.00  0.00     0.087 N 
ATOM     17  H   UNL d   1      -3.687  -5.109  -5.453  0.00  0.00     0.316 HD
BRANCH  16  18
ATOM     18  C   UNL d   1      -5.247  -6.089  -4.599  0.00  0.00     0.295 C 
BRANCH  18  19
ATOM     19  C   UNL d   1      -6.234  -5.618  -5.672  0.00  0.00     0.194 C 
BRANCH  19  20
ATOM     20  O   UNL d   1      -5.614  -5.662  -6.958  0.00  0.00    -0.399 OA
ATOM     21  H   UNL d   1      -6.246  -5.265  -7.582  0.00  0.00     0.209 HD
ENDBRANCH  19  20
ENDBRANCH  18  19
ENDBRANCH  16  18
ENDBRANCH  15  16
ENDBRANCH  14  15
ENDBRANCH  12  14
ENDBRANCH   7  12
BRANCH   1  22
ATOM     22  N   UNL d   1       1.204  -0.210   0.006  0.00  0.00    -0.115 N 
ATOM     23  O   UNL d   1       1.121  -0.377   1.227  0.00  0.00    -0.532 OA
ATOM     24  O   UNL d   1       2.024   0.505  -0.576  0.00  0.00    -0.532 OA
ENDBRANCH   1  22
TORSDOF 8
