REMARK  4 active torsions:
REMARK  status: ('A' for Active; 'I' for Inactive)
REMARK    1  A    between atoms: C_10  and  C_3 
REMARK    2  A    between atoms: C_11  and  C_4 
REMARK    3  A    between atoms: C_6  and  C_9 
REMARK    4  A    between atoms: C_8  and  C_14 
ROOT
ATOM      1  N   UNL d   1       1.290  -0.579   0.469  0.00  0.00    -0.349 N 
ATOM      2  HN  UNL d   1       2.061  -1.073   0.918  1.00  0.00     0.166 HD
ATOM      3  C   UNL d   1       0.223  -1.160  -0.054  0.00  0.00     0.084 A 
ATOM      4  C   UNL d   1       1.211   0.800   0.318  0.00  0.00     0.050 A 
ATOM      5  S   UNL d   1      -0.967  -0.067  -0.658  0.00  0.00    -0.081 SA
ATOM      6  C   UNL d   1       0.036   1.252  -0.251  0.00  0.00     0.082 A 
ENDROOT
BRANCH   3   7
ATOM      7  C   UNL d   1      -0.017  -2.617  -0.091  0.00  0.00    -0.002 A 
ATOM      8  C   UNL d   1       0.512  -3.440   0.912  0.00  0.00     0.015 A 
ATOM      9  C   UNL d   1       0.253  -4.817   0.927  0.00  0.00     0.010 A 
ATOM     10  C   UNL d   1      -0.533  -5.418  -0.071  0.00  0.00    -0.035 A 
ATOM     11  C   UNL d   1      -1.036  -4.600  -1.091  0.00  0.00     0.010 A 
ATOM     12  C   UNL d   1      -0.775  -3.224  -1.105  0.00  0.00     0.015 A 
BRANCH  10  13
ATOM     13  C   UNL d   1      -0.833  -6.901  -0.006  0.00  0.00     0.141 C 
ATOM     14  S   UNL d   1      -0.371  -7.811  -1.509  0.00  0.00    -0.148 SA
ATOM     15  C   UNL d   1      -1.479  -9.201  -1.190  0.00  0.00     0.085 C 
ATOM     16  C   UNL d   1      -2.823  -8.625  -0.787  0.00  0.00     0.085 C 
ATOM     17  S   UNL d   1      -2.587  -7.245   0.375  0.00  0.00    -0.148 SA
ENDBRANCH  10  13
ENDBRANCH   3   7
BRANCH   4  18
ATOM     18  C   UNL d   1       2.287   1.688   0.752  0.00  0.00    -0.009 A 
ATOM     19  C   UNL d   1       2.507   2.926   0.132  0.00  0.00     0.014 A 
ATOM     20  C   UNL d   1       3.538   3.770   0.557  0.00  0.00     0.017 A 
ATOM     21  C   UNL d   1       4.379   3.391   1.612  0.00  0.00     0.048 A 
ATOM     22  C   UNL d   1       4.166   2.149   2.229  0.00  0.00     0.017 A 
ATOM     23  C   UNL d   1       3.133   1.305   1.800  0.00  0.00     0.014 A 
BRANCH  21  24
ATOM     24  C   UNL d   1       5.498   4.291   2.076  0.00  0.00     0.417 C 
ATOM     25  F   UNL d   1       5.584   5.457   1.376  0.00  0.00    -0.166 F 
ATOM     26  F   UNL d   1       5.370   4.652   3.383  0.00  0.00    -0.166 F 
ATOM     27  F   UNL d   1       6.721   3.702   1.968  0.00  0.00    -0.166 F 
ENDBRANCH  21  24
ENDBRANCH   4  18
TORSDOF 4
