REMARK  2 active torsions:
REMARK  status: ('A' for Active; 'I' for Inactive)
REMARK    1  A    between atoms: C_8  and  C_3 
REMARK       I    between atoms: N_13  and  C_8 
REMARK    2  A    between atoms: C_17  and  N_13 
ROOT
ATOM      1  C   UNL d   1       3.164  -1.064  -0.557  0.00  0.00     0.140 C 
ATOM      2  N   UNL d   1       3.267   0.187  -1.356  0.00  0.00    -0.235 NA
ATOM      3  C   UNL d   1       2.586   1.287  -0.618  0.00  0.00     0.167 C 
ATOM      4  O   UNL d   1       2.036  -1.833  -0.984  0.00  0.00    -0.323 OA
ATOM      5  C   UNL d   1       4.432  -1.943  -0.882  0.00  0.00     0.027 C 
ATOM      6  C   UNL d   1       4.596   0.256  -1.782  0.00  0.00     0.021 C 
ATOM      7  C   UNL d   1       1.830   0.553   0.519  0.00  0.00     0.054 C 
ATOM      8  C   UNL d   1       0.587  -0.248   0.128  0.00  0.00    -0.007 A 
ATOM      9  C   UNL d   1       0.814  -1.462  -0.527  0.00  0.00     0.079 A 
ATOM     10  C   UNL d   1       5.236  -0.982  -1.727  0.00  0.00    -0.024 C 
ATOM     11  C   UNL d   1       2.921  -0.508   0.867  0.00  0.00     0.068 C 
ATOM     12  C   UNL d   1      -0.759   0.087   0.457  0.00  0.00    -0.016 A 
ATOM     13  C   UNL d   1      -0.182  -2.406  -0.727  0.00  0.00     0.038 A 
ATOM     14  C   UNL d   1      -1.781  -0.881   0.225  0.00  0.00    -0.025 A 
ATOM     15  C   UNL d   1      -1.473  -2.128  -0.322  0.00  0.00     0.015 A 
ATOM     16  C   UNL d   1       5.214  -2.362   0.365  0.00  0.00     0.025 C 
ATOM     17  C   UNL d   1       4.095  -3.202  -1.717  0.00  0.00     0.025 C 
ATOM     18  C   UNL d   1       5.250   1.331  -2.366  0.00  0.00     0.024 C 
ATOM     19  C   UNL d   1       6.418  -1.221  -2.418  0.00  0.00     0.010 C 
ATOM     20  C   UNL d   1      -1.171   1.329   0.986  0.00  0.00     0.013 A 
ATOM     21  C   UNL d   1      -3.123  -0.609   0.524  0.00  0.00     0.012 A 
ATOM     22  C   UNL d   1       6.455   1.114  -3.042  0.00  0.00     0.002 C 
ATOM     23  C   UNL d   1       7.011  -0.167  -3.109  0.00  0.00     0.001 C 
ATOM     24  C   UNL d   1      -2.522   1.599   1.247  0.00  0.00     0.001 A 
ATOM     25  C   UNL d   1      -3.494   0.635   1.021  0.00  0.00     0.001 A 
ENDROOT
BRANCH   3  26
ATOM     26  C   UNL d   1       1.761   2.211  -1.538  0.00  0.00     0.237 C 
ATOM     27  N   UNL d   1       2.258   2.217  -2.826  0.00  0.00    -0.352 N 
ATOM     28  H   UNL d   1       2.741   1.342  -3.045  0.00  0.00     0.163 HD
ATOM     29  O   UNL d   1       0.894   2.974  -1.120  0.00  0.00    -0.272 OA
BRANCH  27  30
ATOM     30  C   UNL d   1       1.923   3.091  -3.942  0.00  0.00     0.022 C 
ATOM     31  C   UNL d   1       1.942   4.572  -3.531  0.00  0.00     0.037 C 
ATOM     32  C   UNL d   1       3.001   2.893  -5.029  0.00  0.00     0.037 C 
ATOM     33  C   UNL d   1       0.555   2.711  -4.517  0.00  0.00     0.037 C 
ENDBRANCH  27  30
ENDBRANCH   3  26
TORSDOF 2
