REMARK  4 active torsions:
REMARK  status: ('A' for Active; 'I' for Inactive)
REMARK    1  A    between atoms: S_2  and  C_1 
REMARK    2  A    between atoms: S_3  and  C_1 
REMARK    3  A    between atoms: C_4  and  S_2 
REMARK    4  A    between atoms: C_5  and  S_3 
ROOT
ATOM      1  C   UNL d   1       1.093   0.029   0.142  0.00  0.00     0.158 C 
ENDROOT
BRANCH   1   2
ATOM      2  S   UNL d   1       0.495   1.017   1.556  0.00  0.00    -0.119 SA
BRANCH   2   3
ATOM      3  C   UNL d   1      -1.259   0.727   1.450  0.00  0.00     0.001 A 
ATOM      4  C   UNL d   1      -1.920   0.165   2.548  0.00  0.00     0.020 A 
ATOM      5  C   UNL d   1      -3.303  -0.033   2.518  0.00  0.00     0.025 A 
ATOM      6  C   UNL d   1      -4.030   0.342   1.389  0.00  0.00     0.034 A 
ATOM      7  C   UNL d   1      -3.384   0.916   0.297  0.00  0.00     0.025 A 
ATOM      8 CL   UNL d   1      -5.733   0.106   1.351  0.00  0.00    -0.084 Cl
ATOM      9  C   UNL d   1      -2.000   1.113   0.328  0.00  0.00     0.020 A 
ENDBRANCH   2   3
ENDBRANCH   1   2
BRANCH   1  10
ATOM     10  S   UNL d   1       2.917   0.081   0.122  0.00  0.00    -0.119 SA
BRANCH  10  11
ATOM     11  C   UNL d   1       3.266  -0.879  -1.337  0.00  0.00     0.001 A 
ATOM     12  C   UNL d   1       3.959  -0.278  -2.394  0.00  0.00     0.020 A 
ATOM     13  C   UNL d   1       4.317  -1.021  -3.523  0.00  0.00     0.025 A 
ATOM     14  C   UNL d   1       3.989  -2.373  -3.590  0.00  0.00     0.034 A 
ATOM     15  C   UNL d   1       3.305  -2.985  -2.542  0.00  0.00     0.025 A 
ATOM     16 CL   UNL d   1       4.449  -3.297  -4.966  0.00  0.00    -0.084 Cl
ATOM     17  C   UNL d   1       2.946  -2.239  -1.414  0.00  0.00     0.020 A 
ENDBRANCH  10  11
ENDBRANCH   1  10
TORSDOF 4
