REMARK  2 active torsions:
REMARK  status: ('A' for Active; 'I' for Inactive)
REMARK    1  A    between atoms: N_4  and  C_1 
REMARK    2  A    between atoms: N_12  and  C_9 
ROOT
ATOM      1  C   UNL d   1      -2.672  -0.465  -0.001  0.00  0.00     0.150 A 
ATOM      2  N   UNL d   1      -1.812  -1.463  -0.001  0.00  0.00    -0.335 N 
ATOM      3  HN  UNL d   1      -2.070  -2.450  -0.001  1.00  0.00     0.168 HD
ATOM      4  S   UNL d   1      -1.942   1.103  -0.002  0.00  0.00    -0.052 SA
ATOM      5  C   UNL d   1      -0.378   0.396  -0.001  0.00  0.00     0.038 A 
ATOM      6  C   UNL d   1      -0.512  -0.993  -0.001  0.00  0.00     0.051 A 
ATOM      7  C   UNL d   1       0.879   1.021  -0.001  0.00  0.00     0.063 A 
ATOM      8  C   UNL d   1       0.652  -1.790  -0.000  0.00  0.00     0.034 A 
ATOM      9  C   UNL d   1       2.008   0.204  -0.001  0.00  0.00     0.117 A 
ATOM     10  C   UNL d   1       1.910  -1.180  -0.000  0.00  0.00     0.044 A 
ATOM     11  F   UNL d   1       3.221   0.771  -0.001  0.00  0.00    -0.206 F 
ENDROOT
BRANCH   1  12
ATOM     12  N   UNL d   1      -4.029  -0.518  -0.002  0.00  0.00    -0.333 N 
ATOM     13  C   UNL d   1      -4.548  -1.701  -0.004  0.00  0.00     0.179 C 
ATOM     14  HN  UNL d   1      -4.603   0.325  -0.000  1.00  0.00     0.168 HD
BRANCH  13  15
ATOM     15  N   UNL d   1      -5.896  -1.988  -0.005  0.00  0.00    -0.386 N 
ATOM     16  C   UNL d   1      -6.902  -0.938  -0.004  0.00  0.00     0.149 C 
ATOM     17  C   UNL d   1      -6.396  -3.351  -0.012  0.00  0.00     0.149 C 
ENDBRANCH  13  15
ENDBRANCH   1  12
TORSDOF 2
