REMARK  5 active torsions:
REMARK  status: ('A' for Active; 'I' for Inactive)
REMARK    1  A    between atoms: N_2  and  S_1 
REMARK    2  A    between atoms: C_9  and  S_1 
REMARK    3  A    between atoms: C_3  and  N_2 
REMARK       I    between atoms: C_6  and  N_10 
REMARK    4  A    between atoms: C_11  and  C_6 
REMARK    5  A    between atoms: N_10  and  C_19 
ROOT
ATOM      1  C   UNL d   1       0.270  -1.203   0.857  0.00  0.00     0.075 A 
ATOM      2  C   UNL d   1       0.161  -2.406   0.152  0.00  0.00     0.027 A 
ATOM      3  C   UNL d   1      -0.011  -1.161   2.217  0.00  0.00     0.027 A 
ATOM      4  C   UNL d   1      -0.483  -3.552   2.203  0.00  0.00     0.035 A 
ATOM      5  C   UNL d   1      -0.220  -3.574   0.826  0.00  0.00     0.031 A 
ATOM      6  C   UNL d   1      -0.391  -2.331   2.882  0.00  0.00     0.031 A 
ENDROOT
BRANCH   1   7
ATOM      7  S   UNL d   1       0.929   0.234   0.048  0.00  0.00     0.247 S 
ATOM      8  O   UNL d   1       1.469   1.109   1.065  0.00  0.00    -0.205 OA
ATOM      9  O   UNL d   1       1.752  -0.190  -1.060  0.00  0.00    -0.205 OA
BRANCH   7  10
ATOM     10  N   UNL d   1      -0.443   1.026  -0.533  0.00  0.00    -0.165 NA
ATOM     11  H   UNL d   1      -0.331   2.018  -0.337  0.00  0.00     0.147 HD
BRANCH  10  12
ATOM     12  C   UNL d   1      -0.881   0.681  -1.804  0.00  0.00     0.117 A 
ATOM     13  N   UNL d   1      -1.727  -0.330  -2.010  0.00  0.00    -0.249 N 
ATOM     14  O   UNL d   1      -1.954  -0.354  -3.374  0.00  0.00    -0.241 OA
ATOM     15  HN  UNL d   1      -2.124  -0.955  -1.308  1.00  0.00     0.196 HD
ATOM     16  C   UNL d   1      -1.233   0.634  -3.969  0.00  0.00     0.075 A 
ATOM     17  C   UNL d   1      -0.547   1.334  -3.006  0.00  0.00     0.079 A 
ATOM     18  C   UNL d   1      -1.337   0.724  -5.435  0.00  0.00     0.079 C 
ENDBRANCH  10  12
ENDBRANCH   7  10
ENDBRANCH   1   7
BRANCH   4  19
ATOM     19  N   UNL d   1      -0.767  -4.781   2.847  0.00  0.00    -0.323 N 
ATOM     20  C   UNL d   1      -1.073  -4.950   4.190  0.00  0.00     0.256 C 
ATOM     21  O   UNL d   1      -1.310  -4.055   4.996  0.00  0.00    -0.267 OA
ATOM     22  H   UNL d   1      -0.721  -5.612   2.270  0.00  0.00     0.169 HD
BRANCH  20  23
ATOM     23  C   UNL d   1      -1.071  -6.356   4.693  0.00  0.00     0.038 A 
ATOM     24  C   UNL d   1      -2.010  -6.798   5.649  0.00  0.00    -0.046 A 
ATOM     25  C   UNL d   1      -3.202  -5.993   6.094  0.00  0.00     0.049 C 
ATOM     26  C   UNL d   1      -1.820  -8.053   6.255  0.00  0.00     0.007 A 
ATOM     27  C   UNL d   1      -0.748  -8.869   5.895  0.00  0.00     0.001 A 
ATOM     28  C   UNL d   1       0.147  -8.450   4.917  0.00  0.00     0.001 A 
ATOM     29  C   UNL d   1      -0.006  -7.197   4.322  0.00  0.00     0.017 A 
ENDBRANCH  20  23
ENDBRANCH   4  19
TORSDOF 5
