REMARK  5 active torsions:
REMARK  status: ('A' for Active; 'I' for Inactive)
REMARK    1  A    between atoms: N_4  and  C_1 
REMARK    2  A    between atoms: N_5  and  C_2 
REMARK    3  A    between atoms: O_10  and  C_3 
REMARK    4  A    between atoms: C_6  and  C_7 
REMARK    5  A    between atoms: C_11  and  O_10 
ROOT
ATOM      1  C   UNL d   1       1.409  -0.040  -0.039  0.00  0.00     0.140 A 
ATOM      2  C   UNL d   1      -0.729  -1.088  -0.035  0.00  0.00     0.140 A 
ATOM      3  C   UNL d   1       0.666  -1.227  -0.125  0.00  0.00     0.142 A 
ATOM      4  C   UNL d   1      -0.605   1.332   0.151  0.00  0.00     0.052 A 
ATOM      5  C   UNL d   1      -1.368   0.160   0.104  0.00  0.00     0.055 A 
ATOM      6  C   UNL d   1       0.790   1.222   0.071  0.00  0.00     0.055 A 
ENDROOT
BRANCH   3   7
ATOM      7  O   UNL d   1       1.153  -2.513  -0.170  0.00  0.00    -0.306 OA
BRANCH   7   8
ATOM      8  C   UNL d   1       2.243  -2.843  -0.939  0.00  0.00     0.079 A 
ATOM      9  C   UNL d   1       3.031  -3.886  -0.446  0.00  0.00     0.061 A 
ATOM     10  C   UNL d   1       4.228  -4.209  -1.083  0.00  0.00     0.038 A 
ATOM     11 CL   UNL d   1       5.213  -5.475  -0.460  0.00  0.00    -0.084 Cl
ATOM     12  C   UNL d   1       4.645  -3.499  -2.205  0.00  0.00     0.048 A 
ATOM     13  C   UNL d   1       3.816  -2.510  -2.729  0.00  0.00     0.038 A 
ATOM     14  C   UNL d   1       2.592  -2.210  -2.131  0.00  0.00     0.061 A 
ATOM     15 CL   UNL d   1       4.328  -1.606  -4.100  0.00  0.00    -0.084 Cl
ENDBRANCH   7   8
ENDBRANCH   3   7
BRANCH   2  16
ATOM     16  N   UNL d   1      -1.581  -2.266  -0.075  0.00  0.00    -0.113 N 
ATOM     17  O   UNL d   1      -1.509  -2.980  -1.083  0.00  0.00    -0.532 OA
ATOM     18  O   UNL d   1      -2.347  -2.433   0.883  0.00  0.00    -0.532 OA
ENDBRANCH   2  16
BRANCH   1  19
ATOM     19  N   UNL d   1       2.860  -0.023   0.000  0.00  0.00    -0.113 N 
ATOM     20  O   UNL d   1       3.409  -0.653   0.911  0.00  0.00    -0.532 OA
ATOM     21  O   UNL d   1       3.431   0.664  -0.853  0.00  0.00    -0.532 OA
ENDBRANCH   1  19
BRANCH   4  22
ATOM     22  C   UNL d   1      -1.240   2.696   0.310  0.00  0.00     0.417 C 
ATOM     23  F   UNL d   1      -2.594   2.653   0.401  0.00  0.00    -0.166 F 
ATOM     24  F   UNL d   1      -0.800   3.333   1.428  0.00  0.00    -0.166 F 
ATOM     25  F   UNL d   1      -0.951   3.516  -0.734  0.00  0.00    -0.166 F 
ENDBRANCH   4  22
TORSDOF 5
