REMARK  14 active torsions:
REMARK  status: ('A' for Active; 'I' for Inactive)
REMARK       I    between atoms: N_17  and  C1_1 
REMARK    1  A    between atoms: O1_4  and  C1_1 
REMARK    2  A    between atoms: C2_2  and  C3_3 
REMARK    3  A    between atoms: C3_3  and  O1_4 
REMARK    4  A    between atoms: O8_12  and  C10_9 
REMARK    5  A    between atoms: O7_11  and  C11_10 
REMARK    6  A    between atoms: C_19  and  N_17 
REMARK    7  A    between atoms: O_27  and  C_18 
REMARK    8  A    between atoms: C_19  and  C_18 
REMARK    9  A    between atoms: C_25  and  C_19 
REMARK   10  A    between atoms: C_20  and  C_26 
REMARK   11  A    between atoms: O_21  and  C_20 
REMARK   12  A    between atoms: C_24  and  O_21 
REMARK   13  A    between atoms: C_26  and  C_25 
REMARK   14  A    between atoms: C_34  and  N_33 
ROOT
ATOM      1  C   UNL d   1      -0.607  -0.587  -1.728  0.00  0.00     0.218 C 
ATOM      2  C   UNL d   1       0.099  -1.703  -0.956  0.00  0.00     0.035 C 
ATOM      3  C   UNL d   1       0.028   0.773  -1.435  0.00  0.00     0.035 C 
ATOM      4  C   UNL d   1       1.520   0.796  -1.741  0.00  0.00     0.002 C 
ATOM      5  C   UNL d   1       1.608  -1.733  -1.181  0.00  0.00     0.002 C 
ATOM      6  C   UNL d   1       2.308  -0.376  -1.165  0.00  0.00     0.000 C 
ENDROOT
BRANCH   1   7
ATOM      7  N   UNL d   1      -2.038  -0.556  -1.405  0.00  0.00     0.082 N 
ATOM      8  H   UNL d   1      -2.276  -1.308  -0.760  0.00  0.00     0.313 HD
ATOM      9  H   UNL d   1      -2.274   0.308  -0.918  0.00  0.00     0.313 HD
ENDBRANCH   1   7
TORSDOF 14
