REMARK  5 active torsions:
REMARK  status: ('A' for Active; 'I' for Inactive)
REMARK    1  A    between atoms: C_7  and  C_3 
REMARK    2  A    between atoms: C_13  and  C_4 
REMARK    3  A    between atoms: O_14  and  C_13 
REMARK    4  A    between atoms: C_16  and  O_14 
REMARK    5  A    between atoms: O_23  and  C_18 
ROOT
ATOM      1  N   UNL d   1       0.512  -0.421  -1.014  0.00  0.00    -0.351 N 
ATOM      2  HN  UNL d   1       0.528  -0.753  -1.978  1.00  0.00     0.166 HD
ATOM      3  C   UNL d   1       0.717   0.891  -0.624  0.00  0.00     0.049 A 
ATOM      4  C   UNL d   1       0.292  -1.179   0.043  0.00  0.00     0.075 A 
ATOM      5  S   UNL d   1       0.249  -0.346   1.549  0.00  0.00    -0.084 SA
ATOM      6  C   UNL d   1       0.575   1.122   0.731  0.00  0.00     0.082 A 
ENDROOT
BRANCH   4   7
ATOM      7  C   UNL d   1       0.024  -2.651  -0.002  0.00  0.00     0.240 C 
BRANCH   7   8
ATOM      8  O   UNL d   1       1.276  -3.329   0.120  0.00  0.00    -0.345 OA
BRANCH   8   9
ATOM      9  C   UNL d   1       1.220  -4.696   0.081  0.00  0.00     0.069 A 
ATOM     10  C   UNL d   1       0.055  -5.458  -0.015  0.00  0.00     0.039 A 
ATOM     11  C   UNL d   1       0.117  -6.856  -0.036  0.00  0.00     0.039 A 
ATOM     12  C   UNL d   1       1.346  -7.508   0.040  0.00  0.00     0.068 A 
ATOM     13  C   UNL d   1       2.512  -6.748   0.128  0.00  0.00     0.039 A 
ATOM     14  C   UNL d   1       2.451  -5.351   0.149  0.00  0.00     0.039 A 
BRANCH  12  15
ATOM     15  O   UNL d   1       1.529  -8.863   0.044  0.00  0.00    -0.356 OA
ATOM     16  C   UNL d   1       0.356  -9.665  -0.048  0.00  0.00     0.210 C 
ENDBRANCH  12  15
ENDBRANCH   8   9
ENDBRANCH   7   8
ENDBRANCH   4   7
BRANCH   3  17
ATOM     17  C   UNL d   1       1.037   1.927  -1.596  0.00  0.00    -0.006 A 
ATOM     18  C   UNL d   1       0.558   1.819  -2.910  0.00  0.00     0.059 A 
ATOM     19  C   UNL d   1       0.867   2.804  -3.845  0.00  0.00     0.155 A 
ATOM     20  F   UNL d   1       0.393   2.697  -5.094  0.00  0.00    -0.203 F 
ATOM     21  C   UNL d   1       1.656   3.891  -3.490  0.00  0.00     0.154 A 
ATOM     22  C   UNL d   1       2.150   4.008  -2.197  0.00  0.00     0.046 A 
ATOM     23  F   UNL d   1       1.953   4.835  -4.393  0.00  0.00    -0.203 F 
ATOM     24  C   UNL d   1       1.841   3.026  -1.251  0.00  0.00     0.017 A 
ENDBRANCH   3  17
TORSDOF 5
