REMARK  1 active torsions:
REMARK  status: ('A' for Active; 'I' for Inactive)
REMARK    1  A    between atoms: C_6  and  N_1 
ROOT
ATOM      1  N   UNL d   1       2.437  -0.603  -0.109  0.00  0.00    -0.253 N 
ATOM      2  C   UNL d   1       2.407   0.798  -0.137  0.00  0.00     0.186 A 
ATOM      3  C   UNL d   1       1.284  -1.399   0.041  0.00  0.00     0.267 A 
ATOM      4  C   UNL d   1      -0.015  -0.704   0.012  0.00  0.00     0.059 A 
ATOM      5  N   UNL d   1       1.172   1.389  -0.042  0.00  0.00    -0.332 N 
ATOM      6  C   UNL d   1      -0.029   0.684  -0.009  0.00  0.00     0.050 A 
ATOM      7  S   UNL d   1       3.702   1.854  -0.333  0.00  0.00    -0.040 SA
ATOM      8  O   UNL d   1       1.287  -2.615   0.233  0.00  0.00    -0.267 OA
ATOM      9  C   UNL d   1      -1.218  -1.419   0.016  0.00  0.00     0.019 A 
ATOM     10  C   UNL d   1      -1.241   1.375  -0.014  0.00  0.00     0.030 A 
ATOM     11  C   UNL d   1      -2.432  -0.732  -0.004  0.00  0.00     0.001 A 
ATOM     12  C   UNL d   1      -2.443   0.664  -0.016  0.00  0.00     0.002 A 
ATOM     13  H   UNL d   1       1.155   2.402  -0.081  0.00  0.00     0.168 HD
ENDROOT
BRANCH   1  14
ATOM     14  C   UNL d   1       3.680  -1.319  -0.153  0.00  0.00     0.062 A 
ATOM     15  C   UNL d   1       3.989  -2.207  -1.203  0.00  0.00     0.040 A 
ATOM     16  C   UNL d   1       5.169  -2.957  -1.172  0.00  0.00     0.045 A 
ATOM     17 BR   UNL d   1       2.909  -2.356  -2.764  0.00  0.00    -0.049 Br
ATOM     18  C   UNL d   1       6.048  -2.818  -0.101  0.00  0.00     0.035 A 
ATOM     19  C   UNL d   1       5.768  -1.931   0.935  0.00  0.00     0.026 A 
ATOM     20 CL   UNL d   1       7.497  -3.746  -0.059  0.00  0.00    -0.084 Cl
ATOM     21  C   UNL d   1       4.585  -1.188   0.913  0.00  0.00     0.033 A 
ENDBRANCH   1  14
TORSDOF 1
