REMARK  1 active torsions:
REMARK  status: ('A' for Active; 'I' for Inactive)
REMARK    1  A    between atoms: C_8  and  C_1 
ROOT
ATOM      1  C   UNL d   1       2.281   0.748   0.036  0.00  0.00     0.168 A 
ATOM      2  C   UNL d   1       1.315  -1.390   0.109  0.00  0.00     0.305 A 
ATOM      3  N   UNL d   1       1.171   1.404   0.055  0.00  0.00    -0.335 N 
ATOM      4  HN  UNL d   1       1.157   2.424   0.068  1.00  0.00     0.168 HD
ATOM      5  O   UNL d   1       2.414  -0.595   0.048  0.00  0.00    -0.256 OA
ATOM      6  C   UNL d   1       0.009  -0.724   0.080  0.00  0.00     0.105 A 
ATOM      7  C   UNL d   1      -0.006   0.663   0.058  0.00  0.00     0.053 A 
ATOM      8  O   UNL d   1       1.421  -2.607   0.162  0.00  0.00    -0.259 OA
ATOM      9  C   UNL d   1      -1.187  -1.436   0.045  0.00  0.00     0.135 A 
ATOM     10  F   UNL d   1      -1.208  -2.775   0.060  0.00  0.00    -0.205 F 
ATOM     11  C   UNL d   1      -1.230   1.337  -0.007  0.00  0.00     0.031 A 
ATOM     12  C   UNL d   1      -2.430   0.627  -0.053  0.00  0.00     0.005 A 
ATOM     13  C   UNL d   1      -2.407  -0.765  -0.024  0.00  0.00     0.043 A 
ENDROOT
BRANCH   1  14
ATOM     14  C   UNL d   1       3.600   1.385  -0.088  0.00  0.00     0.092 A 
ATOM     15  C   UNL d   1       4.740   0.835   0.498  0.00  0.00     0.134 A 
ATOM     16  F   UNL d   1       4.661  -0.247   1.286  0.00  0.00    -0.205 F 
ATOM     17  C   UNL d   1       5.999   1.402   0.290  0.00  0.00     0.043 A 
ATOM     18  C   UNL d   1       6.126   2.542  -0.502  0.00  0.00     0.006 A 
ATOM     19  C   UNL d   1       4.989   3.120  -1.064  0.00  0.00     0.043 A 
ATOM     20  C   UNL d   1       3.737   2.543  -0.853  0.00  0.00     0.134 A 
ATOM     21  F   UNL d   1       2.678   3.117  -1.443  0.00  0.00    -0.205 F 
ENDBRANCH   1  14
TORSDOF 1
