REMARK  4 active torsions:
REMARK  status: ('A' for Active; 'I' for Inactive)
REMARK    1  A    between atoms: C_9  and  C_2 
REMARK    2  A    between atoms: C_10  and  C_6 
REMARK    3  A    between atoms: C_22  and  C_17 
REMARK    4  A    between atoms: C_24  and  C_22 
ROOT
ATOM      1  C   UNL d   1      -0.529  -0.420   0.028  0.00  0.00     0.123 A 
ATOM      2  C   UNL d   1       0.193  -1.332   0.722  0.00  0.00     0.003 A 
ATOM      3  C   UNL d   1       0.188   0.678  -0.689  0.00  0.00     0.267 A 
ATOM      4  N   UNL d   1       1.556   0.698  -0.571  0.00  0.00    -0.322 N 
ATOM      5  C   UNL d   1       1.648  -1.217   0.773  0.00  0.00     0.044 A 
ATOM      6  C   UNL d   1       2.280  -0.221   0.139  0.00  0.00     0.046 A 
ATOM      7  C   UNL d   1      -1.951  -0.447  -0.065  0.00  0.00     0.106 C 
ATOM      8  N   UNL d   1      -3.108  -0.500  -0.111  0.00  0.00    -0.191 NA
ATOM      9  O   UNL d   1      -0.398   1.523  -1.358  0.00  0.00    -0.266 OA
ATOM     10  H   UNL d   1       2.036   1.443  -1.063  0.00  0.00     0.169 HD
ENDROOT
BRANCH   2  11
ATOM     11  C   UNL d   1      -0.476  -2.454   1.416  0.00  0.00    -0.024 A 
ATOM     12  C   UNL d   1      -0.690  -3.667   0.747  0.00  0.00     0.014 A 
ATOM     13  C   UNL d   1      -1.283  -4.743   1.413  0.00  0.00     0.024 A 
ATOM     14  C   UNL d   1      -1.657  -4.609   2.749  0.00  0.00     0.034 A 
ATOM     15  C   UNL d   1      -1.454  -3.405   3.422  0.00  0.00     0.024 A 
ATOM     16 CL   UNL d   1      -2.364  -5.942   3.576  0.00  0.00    -0.084 Cl
ATOM     17  C   UNL d   1      -0.862  -2.327   2.758  0.00  0.00     0.014 A 
ENDBRANCH   2  11
BRANCH   6  18
ATOM     18  C   UNL d   1       3.739  -0.092   0.146  0.00  0.00    -0.009 A 
ATOM     19  C   UNL d   1       4.495  -0.708  -0.856  0.00  0.00     0.014 A 
ATOM     20  C   UNL d   1       5.885  -0.565  -0.880  0.00  0.00     0.008 A 
ATOM     21  C   UNL d   1       6.540   0.200   0.094  0.00  0.00    -0.058 A 
ATOM     22  C   UNL d   1       5.778   0.811   1.099  0.00  0.00     0.008 A 
ATOM     23  C   UNL d   1       4.388   0.660   1.131  0.00  0.00     0.014 A 
BRANCH  21  24
ATOM     24  C   UNL d   1       8.039   0.397   0.022  0.00  0.00     0.042 C 
BRANCH  24  25
ATOM     25  C   UNL d   1       8.820  -0.062   1.269  0.00  0.00    -0.019 C 
ATOM     26  C   UNL d   1       8.670  -1.562   1.530  0.00  0.00     0.010 C 
ATOM     27  C   UNL d   1      10.305   0.281   1.108  0.00  0.00     0.010 C 
ENDBRANCH  24  25
ENDBRANCH  21  24
ENDBRANCH   6  18
TORSDOF 4
