REMARK  10 active torsions:
REMARK  status: ('A' for Active; 'I' for Inactive)
REMARK    1  A    between atoms: N_2  and  C_1 
REMARK    2  A    between atoms: N_3  and  C_1 
REMARK    3  A    between atoms: C_4  and  C_1 
REMARK    4  A    between atoms: C_6  and  C_1 
REMARK    5  A    between atoms: C_5  and  N_2 
REMARK       I    between atoms: C_7  and  N_3 
REMARK    6  A    between atoms: O_19  and  C_6 
REMARK    7  A    between atoms: O_18  and  C_7 
REMARK    8  A    between atoms: C_21  and  O_18 
REMARK    9  A    between atoms: C_20  and  O_19 
REMARK   10  A    between atoms: C_22  and  C_21 
ROOT
ATOM      1  C   UNL d   1       0.954   0.006   0.043  0.00  0.00     0.299 C 
ENDROOT
BRANCH   1   2
ATOM      2  N   UNL d   1       0.486  -0.048  -1.375  0.00  0.00    -0.328 N 
ATOM      3  H   UNL d   1       1.163   0.277  -2.065  0.00  0.00     0.165 HD
BRANCH   2   4
ATOM      4  C   UNL d   1      -0.824   0.083  -1.659  0.00  0.00     0.146 A 
ATOM      5  N   UNL d   1      -1.769   0.039  -0.752  0.00  0.00    -0.346 N 
ATOM      6  C   UNL d   1      -3.005   0.188  -1.343  0.00  0.00     0.097 A 
ATOM      7  HN  UNL d   1      -1.612  -0.088   0.248  1.00  0.00     0.167 HD
ATOM      8  C   UNL d   1      -2.995   0.280  -2.717  0.00  0.00     0.070 A 
ATOM      9  S   UNL d   1      -1.376   0.254  -3.280  0.00  0.00    -0.065 SA
ENDBRANCH   2   4
ENDBRANCH   1   2
BRANCH   1  10
ATOM     10  N   UNL d   1       0.495  -1.276   0.562  0.00  0.00    -0.294 N 
ATOM     11  C   UNL d   1       0.790  -1.697   1.816  0.00  0.00     0.363 C 
ATOM     12  O   UNL d   1       1.510  -1.095   2.589  0.00  0.00    -0.238 OA
ATOM     13  H   UNL d   1      -0.238  -1.752   0.060  0.00  0.00     0.168 HD
BRANCH  11  14
ATOM     14  O   UNL d   1       0.268  -2.935   2.007  0.00  0.00    -0.304 OA
BRANCH  14  15
ATOM     15  C   UNL d   1       0.975  -3.736   2.960  0.00  0.00     0.180 C 
BRANCH  15  16
ATOM     16  C   UNL d   1       0.686  -3.365   4.409  0.00  0.00     0.022 C 
ATOM     17  C   UNL d   1      -0.778  -3.530   4.773  0.00  0.00     0.007 C 
ENDBRANCH  15  16
ENDBRANCH  14  15
ENDBRANCH  11  14
ENDBRANCH   1  10
BRANCH   1  18
ATOM     18  C   UNL d   1       0.523   1.280   0.867  0.00  0.00     0.442 C 
ATOM     19  F   UNL d   1      -0.183   2.171   0.118  0.00  0.00    -0.166 F 
ATOM     20  F   UNL d   1      -0.272   0.965   1.924  0.00  0.00    -0.166 F 
ATOM     21  F   UNL d   1       1.568   1.978   1.374  0.00  0.00    -0.166 F 
ENDBRANCH   1  18
BRANCH   1  22
ATOM     22  C   UNL d   1       2.515   0.077  -0.048  0.00  0.00     0.318 C 
ATOM     23  O   UNL d   1       3.122   0.977  -0.623  0.00  0.00    -0.260 OA
BRANCH  22  24
ATOM     24  O   UNL d   1       3.106  -1.071   0.395  0.00  0.00    -0.318 OA
BRANCH  24  25
ATOM     25  C   UNL d   1       4.423  -1.359  -0.082  0.00  0.00     0.174 C 
ATOM     26  C   UNL d   1       4.265  -2.084  -1.404  0.00  0.00     0.034 C 
ENDBRANCH  24  25
ENDBRANCH  22  24
ENDBRANCH   1  22
TORSDOF 10
