REMARK  8 active torsions:
REMARK  status: ('A' for Active; 'I' for Inactive)
REMARK    1  A    between atoms: C_2  and  C_1 
REMARK    2  A    between atoms: C_3  and  C_1 
REMARK    3  A    between atoms: O_13  and  C_2 
REMARK    4  A    between atoms: O_12  and  C_3 
REMARK    5  A    between atoms: C_10  and  C_4 
REMARK       I    between atoms: C_5  and  N_6 
REMARK    6  A    between atoms: N_6  and  C_11 
REMARK    7  A    between atoms: C_19  and  O_12 
REMARK    8  A    between atoms: C_20  and  O_13 
ROOT
ATOM      1  C   UNL d   1       0.852  -0.037  -0.096  0.00  0.00     0.115 C 
ATOM      2  C   UNL d   1       2.203   0.004  -0.115  0.00  0.00     0.035 C 
ENDROOT
BRANCH   2   3
ATOM      3  C   UNL d   1       3.071  -0.766  -1.000  0.00  0.00    -0.035 A 
ATOM      4  C   UNL d   1       3.447  -0.257  -2.244  0.00  0.00     0.013 A 
ATOM      5  C   UNL d   1       4.194  -1.047  -3.123  0.00  0.00     0.030 A 
ATOM      6  C   UNL d   1       4.556  -2.356  -2.778  0.00  0.00     0.034 A 
ATOM      7  C   UNL d   1       4.227  -2.836  -1.510  0.00  0.00     0.030 A 
ATOM      8  C   UNL d   1       3.495  -2.043  -0.623  0.00  0.00     0.013 A 
BRANCH   6   9
ATOM      9  N   UNL d   1       5.207  -3.125  -3.764  0.00  0.00    -0.328 N 
ATOM     10  C   UNL d   1       5.527  -4.469  -3.698  0.00  0.00     0.218 C 
ATOM     11  O   UNL d   1       5.368  -5.218  -2.741  0.00  0.00    -0.274 OA
ATOM     12  C   UNL d   1       6.101  -5.002  -4.988  0.00  0.00     0.117 C 
ATOM     13  H   UNL d   1       5.385  -2.652  -4.640  0.00  0.00     0.169 HD
ENDBRANCH   6   9
ENDBRANCH   2   3
BRANCH   1  14
ATOM     14  C   UNL d   1      -0.002  -0.877  -0.978  0.00  0.00     0.299 C 
ATOM     15  O   UNL d   1      -1.079  -0.516  -1.424  0.00  0.00    -0.259 OA
BRANCH  14  16
ATOM     16  O   UNL d   1       0.541  -2.108  -1.139  0.00  0.00    -0.318 OA
BRANCH  16  17
ATOM     17  C   UNL d   1      -0.263  -3.119  -1.764  0.00  0.00     0.174 C 
ATOM     18  C   UNL d   1      -0.052  -3.161  -3.266  0.00  0.00     0.034 C 
ENDBRANCH  16  17
ENDBRANCH  14  16
ENDBRANCH   1  14
BRANCH   1  19
ATOM     19  C   UNL d   1       0.225   0.823   0.936  0.00  0.00     0.299 C 
ATOM     20  O   UNL d   1       0.768   1.797   1.444  0.00  0.00    -0.259 OA
BRANCH  19  21
ATOM     21  O   UNL d   1      -0.952   0.281   1.333  0.00  0.00    -0.318 OA
BRANCH  21  22
ATOM     22  C   UNL d   1      -1.511   0.807   2.547  0.00  0.00     0.174 C 
ATOM     23  C   UNL d   1      -1.103  -0.110   3.684  0.00  0.00     0.034 C 
ENDBRANCH  21  22
ENDBRANCH  19  21
ENDBRANCH   1  19
TORSDOF 8
