REMARK  1 active torsions:
REMARK  status: ('A' for Active; 'I' for Inactive)
REMARK    1  A    between atoms: N_7  and  C_1 
ROOT
ATOM      1  C   UNL d   1       0.006  -1.839  -0.056  0.00  0.00     0.085 A 
ATOM      2  C   UNL d   1      -1.215  -1.133   0.050  0.00  0.00     0.086 A 
ATOM      3  C   UNL d   1       1.224  -1.123  -0.126  0.00  0.00     0.086 A 
ATOM      4  C   UNL d   1      -1.215   0.279   0.062  0.00  0.00     0.081 A 
ATOM      5  C   UNL d   1       1.215   0.289  -0.070  0.00  0.00     0.081 A 
ATOM      6  C   UNL d   1      -0.002   0.987   0.011  0.00  0.00     0.081 A 
ATOM      7 CL   UNL d   1       2.740  -1.933  -0.426  0.00  0.00    -0.080 Cl
ATOM      8 CL   UNL d   1      -2.725  -1.968   0.320  0.00  0.00    -0.080 Cl
ATOM      9 CL   UNL d   1      -2.724   1.153   0.150  0.00  0.00    -0.081 Cl
ATOM     10 CL   UNL d   1       2.717   1.175  -0.116  0.00  0.00    -0.081 Cl
ATOM     11 CL   UNL d   1      -0.008   2.730   0.048  0.00  0.00    -0.081 Cl
ENDROOT
BRANCH   1  12
ATOM     12  N   UNL d   1       0.008  -3.265  -0.101  0.00  0.00    -0.330 N 
ATOM     13  C   UNL d   1      -0.779  -4.058  -0.914  0.00  0.00     0.097 A 
ATOM     14  C   UNL d   1      -0.489  -5.383  -0.668  0.00  0.00     0.019 A 
ATOM     15  C   UNL d   1       0.517  -5.415   0.318  0.00  0.00     0.019 A 
ATOM     16  C   UNL d   1       0.799  -4.108   0.654  0.00  0.00     0.097 A 
ENDBRANCH   1  12
TORSDOF 1
