REMARK  3 active torsions:
REMARK  status: ('A' for Active; 'I' for Inactive)
REMARK       I    between atoms: N_3  and  C_1 
REMARK    1  A    between atoms: C_4  and  C_1 
REMARK    2  A    between atoms: C_2  and  N_6 
REMARK       I    between atoms: C_5  and  N_3 
REMARK       I    between atoms: N_9  and  C_5 
REMARK    3  A    between atoms: N_6  and  N_9 
ROOT
ATOM      1  C   UNL d   1       0.910  -0.174   0.014  0.00  0.00     0.261 C 
ATOM      2  N   UNL d   1       0.369   0.248  -1.185  0.00  0.00    -0.274 N 
ATOM      3  C   UNL d   1       0.989   0.528  -2.371  0.00  0.00     0.341 C 
ATOM      4  N   UNL d   1       2.362   0.486  -2.377  0.00  0.00    -0.251 N 
ATOM      5  O   UNL d   1       2.088  -0.031   0.319  0.00  0.00    -0.267 OA
ATOM      6  O   UNL d   1       0.319   0.769  -3.376  0.00  0.00    -0.245 OA
ATOM      7  H   UNL d   1      -0.636   0.195  -1.306  0.00  0.00     0.173 HD
ATOM      8  H   UNL d   1       2.838   0.585  -1.478  0.00  0.00     0.191 HD
ENDROOT
BRANCH   4   9
ATOM      9  N   UNL d   1       2.992   1.073  -3.475  0.00  0.00    -0.293 N 
ATOM     10  H   UNL d   1       2.349   1.223  -4.267  0.00  0.00     0.187 HD
BRANCH   9  11
ATOM     11  C   UNL d   1       4.265   0.600  -3.895  0.00  0.00     0.091 A 
ATOM     12  C   UNL d   1       5.119  -0.270  -3.182  0.00  0.00     0.065 A 
ATOM     13  C   UNL d   1       6.429  -0.522  -3.621  0.00  0.00     0.050 A 
ATOM     14 CL   UNL d   1       4.664  -1.129  -1.748  0.00  0.00    -0.082 Cl
ATOM     15  C   UNL d   1       6.922   0.095  -4.763  0.00  0.00     0.037 A 
ATOM     16  C   UNL d   1       6.115   0.948  -5.498  0.00  0.00     0.050 A 
ATOM     17 CL   UNL d   1       8.543  -0.193  -5.260  0.00  0.00    -0.084 Cl
ATOM     18  C   UNL d   1       4.808   1.192  -5.068  0.00  0.00     0.065 A 
ATOM     19 CL   UNL d   1       3.858   2.281  -6.034  0.00  0.00    -0.082 Cl
ENDBRANCH   9  11
ENDBRANCH   4   9
BRANCH   1  20
ATOM     20  C   UNL d   1      -0.074  -0.671   1.021  0.00  0.00     0.054 A 
ATOM     21  C   UNL d   1      -1.186  -1.464   0.695  0.00  0.00     0.049 A 
ATOM     22 CL   UNL d   1      -1.468  -2.098  -0.888  0.00  0.00    -0.083 Cl
ATOM     23  C   UNL d   1      -2.120  -1.798   1.681  0.00  0.00     0.025 A 
ATOM     24  C   UNL d   1      -1.942  -1.369   2.994  0.00  0.00     0.002 A 
ATOM     25  C   UNL d   1      -0.816  -0.623   3.336  0.00  0.00     0.001 A 
ATOM     26  C   UNL d   1       0.119  -0.280   2.354  0.00  0.00     0.019 A 
ENDBRANCH   1  20
TORSDOF 3
