REMARK  4 active torsions:
REMARK  status: ('A' for Active; 'I' for Inactive)
REMARK    1  A    between atoms: N_3  and  S_1 
REMARK    2  A    between atoms: C_4  and  S_1 
REMARK    3  A    between atoms: S_2  and  N_3 
REMARK    4  A    between atoms: C_5  and  S_2 
ROOT
ATOM      1  N   UNL d   1       0.442   0.830   1.140  0.00  0.00    -0.199 N 
ATOM      2  C   UNL d   1       1.016   0.790   2.487  0.00  0.00     0.183 C 
ENDROOT
BRANCH   1   3
ATOM      3  S   UNL d   1      -1.208   1.017   1.008  0.00  0.00     0.273 S 
ATOM      4  O   UNL d   1      -1.686   1.653   2.224  0.00  0.00    -0.199 OA
ATOM      5  O   UNL d   1      -1.516   1.626  -0.269  0.00  0.00    -0.199 OA
BRANCH   3   6
ATOM      6  C   UNL d   1      -1.875  -0.636   1.014  0.00  0.00     0.080 A 
ATOM      7  C   UNL d   1      -2.216  -1.245   2.227  0.00  0.00     0.027 A 
ATOM      8  C   UNL d   1      -2.836  -2.500   2.220  0.00  0.00     0.025 A 
ATOM      9  C   UNL d   1      -3.113  -3.135   1.009  0.00  0.00     0.034 A 
ATOM     10  C   UNL d   1      -2.785  -2.524  -0.200  0.00  0.00     0.025 A 
ATOM     11 CL   UNL d   1      -3.893  -4.668   1.006  0.00  0.00    -0.084 Cl
ATOM     12  C   UNL d   1      -2.183  -1.264  -0.199  0.00  0.00     0.027 A 
ENDBRANCH   3   6
ENDBRANCH   1   3
BRANCH   1  13
ATOM     13  S   UNL d   1       1.296   0.045  -0.061  0.00  0.00     0.273 S 
ATOM     14  O   UNL d   1       0.482  -0.230  -1.223  0.00  0.00    -0.199 OA
ATOM     15  O   UNL d   1       2.055  -1.019   0.566  0.00  0.00    -0.199 OA
BRANCH  13  16
ATOM     16  C   UNL d   1       2.458   1.293  -0.585  0.00  0.00     0.080 A 
ATOM     17  C   UNL d   1       3.834   1.053  -0.499  0.00  0.00     0.028 A 
ATOM     18  C   UNL d   1       4.726   2.004  -1.000  0.00  0.00     0.044 A 
ATOM     19  C   UNL d   1       4.236   3.174  -1.575  0.00  0.00     0.116 A 
ATOM     20  C   UNL d   1       2.868   3.415  -1.663  0.00  0.00     0.044 A 
ATOM     21  F   UNL d   1       5.097   4.075  -2.065  0.00  0.00    -0.206 F 
ATOM     22  C   UNL d   1       1.969   2.469  -1.170  0.00  0.00     0.028 A 
ENDBRANCH  13  16
ENDBRANCH   1  13
TORSDOF 4
