REMARK  4 active torsions:
REMARK  status: ('A' for Active; 'I' for Inactive)
REMARK    1  A    between atoms: C_5  and  C_1 
REMARK    2  A    between atoms: C_7  and  C_2 
REMARK    3  A    between atoms: O_15  and  C_9 
REMARK    4  A    between atoms: C_19  and  O_15 
ROOT
ATOM      1  C   UNL d   1       0.745   0.183   0.844  0.00  0.00     0.055 C 
ATOM      2  C   UNL d   1       0.311   1.218   0.089  0.00  0.00     0.034 C 
ATOM      3  C   UNL d   1       1.887   0.335   1.711  0.00  0.00     0.100 C 
ATOM      4  N   UNL d   1       2.792   0.441   2.429  0.00  0.00    -0.191 NA
ENDROOT
BRANCH   1   5
ATOM      5  C   UNL d   1       0.018  -1.121   0.801  0.00  0.00    -0.014 A 
ATOM      6  C   UNL d   1      -0.600  -1.592  -0.374  0.00  0.00     0.036 A 
ATOM      7  C   UNL d   1      -1.266  -2.823  -0.396  0.00  0.00     0.034 A 
ATOM      8 CL   UNL d   1      -2.025  -3.361  -1.845  0.00  0.00    -0.084 Cl
ATOM      9  C   UNL d   1      -1.319  -3.619   0.742  0.00  0.00     0.024 A 
ATOM     10  C   UNL d   1      -0.703  -3.180   1.911  0.00  0.00     0.003 A 
ATOM     11  C   UNL d   1      -0.043  -1.944   1.940  0.00  0.00     0.013 A 
ENDBRANCH   1   5
BRANCH   2  12
ATOM     12  C   UNL d   1       0.966   2.528   0.009  0.00  0.00    -0.035 A 
ATOM     13  C   UNL d   1       1.999   2.730  -0.911  0.00  0.00     0.014 A 
ATOM     14  C   UNL d   1       2.660   3.961  -0.975  0.00  0.00     0.037 A 
ATOM     15  C   UNL d   1       2.292   5.002  -0.123  0.00  0.00     0.068 A 
ATOM     16  C   UNL d   1       1.247   4.802   0.784  0.00  0.00     0.037 A 
ATOM     17  C   UNL d   1       0.583   3.573   0.852  0.00  0.00     0.014 A 
BRANCH  15  18
ATOM     18  O   UNL d   1       2.868   6.244  -0.078  0.00  0.00    -0.352 OA
BRANCH  18  19
ATOM     19  C   UNL d   1       3.972   6.472  -0.953  0.00  0.00     0.171 C 
ATOM     20  C   UNL d   1       4.495   7.878  -0.719  0.00  0.00     0.034 C 
ENDBRANCH  18  19
ENDBRANCH  15  18
ENDBRANCH   2  12
TORSDOF 4
