REMARK  8 active torsions:
REMARK  status: ('A' for Active; 'I' for Inactive)
REMARK    1  A    between atoms: C_7  and  C_1 
REMARK    2  A    between atoms: C_3  and  C_2 
REMARK    3  A    between atoms: N_11  and  C_6 
REMARK    4  A    between atoms: O_19  and  C_7 
REMARK    5  A    between atoms: N_13  and  N_11 
REMARK       I    between atoms: C_12  and  N_13 
REMARK    6  A    between atoms: C_20  and  C_12 
REMARK    7  A    between atoms: C_21  and  O_19 
REMARK    8  A    between atoms: C_22  and  C_20 
ROOT
ATOM      1  C   UNL d   1      -0.042  -1.439   0.046  0.00  0.00     0.086 A 
ATOM      2  C   UNL d   1       1.157  -0.751   0.017  0.00  0.00     0.136 A 
ATOM      3  N   UNL d   1       1.175   0.624  -0.034  0.00  0.00    -0.327 N 
ATOM      4  HN  UNL d   1       2.064   1.124  -0.024  1.00  0.00     0.168 HD
ATOM      5  C   UNL d   1       0.024   1.304  -0.095  0.00  0.00     0.176 A 
ATOM      6  N   UNL d   1      -1.173   0.708  -0.055  0.00  0.00    -0.340 N 
ATOM      7  HN  UNL d   1      -2.040   1.245  -0.071  1.00  0.00     0.167 HD
ATOM      8  C   UNL d   1      -1.177  -0.642   0.007  0.00  0.00     0.110 A 
ENDROOT
BRANCH   5   9
ATOM      9  N   UNL d   1       0.122   2.687  -0.302  0.00  0.00    -0.173 NA
ATOM     10  H   UNL d   1       1.054   2.995  -0.017  0.00  0.00     0.156 HD
BRANCH   9  11
ATOM     11  N   UNL d   1      -0.911   3.440   0.280  0.00  0.00    -0.285 N 
ATOM     12  C   UNL d   1      -0.572   4.702   0.727  0.00  0.00     0.232 C 
ATOM     13  O   UNL d   1       0.587   5.112   0.757  0.00  0.00    -0.272 OA
ATOM     14  H   UNL d   1      -1.857   3.175   0.015  0.00  0.00     0.184 HD
BRANCH  12  15
ATOM     15  C   UNL d   1      -1.737   5.538   1.211  0.00  0.00     0.103 C 
BRANCH  15  16
ATOM     16  C   UNL d   1      -2.450   4.924   2.413  0.00  0.00     0.005 C 
ATOM     17  C   UNL d   1      -1.532   4.750   3.615  0.00  0.00     0.005 C 
ENDBRANCH  15  16
ENDBRANCH  12  15
ENDBRANCH   9  11
ENDBRANCH   5   9
BRANCH   2  18
ATOM     18  C   UNL d   1       2.531  -1.390  -0.039  0.00  0.00     0.433 C 
ATOM     19  F   UNL d   1       2.582  -2.737  -0.193  0.00  0.00    -0.165 F 
ATOM     20  F   UNL d   1       3.265  -0.910  -1.090  0.00  0.00    -0.165 F 
ATOM     21  F   UNL d   1       3.272  -1.117   1.074  0.00  0.00    -0.165 F 
ENDBRANCH   2  18
BRANCH   1  22
ATOM     22  C   UNL d   1      -0.274  -2.890   0.023  0.00  0.00     0.296 C 
ATOM     23  O   UNL d   1      -1.227  -3.379  -0.569  0.00  0.00    -0.259 OA
BRANCH  22  24
ATOM     24  O   UNL d   1       0.619  -3.559   0.778  0.00  0.00    -0.318 OA
BRANCH  24  25
ATOM     25  C   UNL d   1       0.500  -4.997   0.757  0.00  0.00     0.174 C 
ATOM     26  C   UNL d   1       0.998  -5.587  -0.555  0.00  0.00     0.034 C 
ENDBRANCH  24  25
ENDBRANCH  22  24
ENDBRANCH   1  22
TORSDOF 8
