REMARK  2 active torsions:
REMARK  status: ('A' for Active; 'I' for Inactive)
REMARK    1  A    between atoms: C_4  and  C_6 
REMARK    2  A    between atoms: C_16  and  C_5 
ROOT
ATOM      1  C   UNL d   1      -5.917  -0.981  -0.351  0.00  0.00     0.048 A 
ATOM      2  C   UNL d   1      -3.145  -1.409  -0.128  0.00  0.00    -0.034 A 
ATOM      3  C   UNL d   1      -5.116  -1.078  -1.498  0.00  0.00     0.017 A 
ATOM      4  C   UNL d   1      -5.308  -1.076   0.911  0.00  0.00     0.017 A 
ATOM      5  C   UNL d   1      -3.740  -1.291  -1.388  0.00  0.00     0.012 A 
ATOM      6  C   UNL d   1      -3.930  -1.287   1.021  0.00  0.00     0.012 A 
ENDROOT
BRANCH   2   7
ATOM      7  C   UNL d   1      -1.714  -1.683  -0.022  0.00  0.00     0.038 C 
ATOM      8  C   UNL d   1      -0.730  -0.776   0.039  0.00  0.00     0.058 C 
ATOM      9  C   UNL d   1      -0.918   0.735   0.028  0.00  0.00     0.174 C 
ATOM     10  N   UNL d   1       0.651  -1.106   0.079  0.00  0.00    -0.280 NA
ATOM     11  C   UNL d   1       0.440   1.437  -0.020  0.00  0.00     0.064 C 
ATOM     12  O   UNL d   1      -1.983   1.330   0.083  0.00  0.00    -0.291 OA
ATOM     13  C   UNL d   1       1.196   1.001   1.249  0.00  0.00     0.027 C 
ATOM     14  C   UNL d   1       1.174   0.896  -1.264  0.00  0.00     0.027 C 
ATOM     15  C   UNL d   1       1.340  -0.536   1.277  0.00  0.00     0.096 C 
ATOM     16  C   UNL d   1       1.378  -0.630  -1.137  0.00  0.00     0.096 C 
ENDBRANCH   2   7
BRANCH   1  17
ATOM     17  C   UNL d   1      -7.410  -0.797  -0.460  0.00  0.00     0.417 C 
ATOM     18  F   UNL d   1      -7.861  -0.740  -1.744  0.00  0.00    -0.166 F 
ATOM     19  F   UNL d   1      -8.101  -1.815   0.127  0.00  0.00    -0.166 F 
ATOM     20  F   UNL d   1      -7.849   0.344   0.140  0.00  0.00    -0.166 F 
ENDBRANCH   1  17
TORSDOF 2
