REMARK  8 active torsions:
REMARK  status: ('A' for Active; 'I' for Inactive)
REMARK    1  A    between atoms: C_11  and  N_1 
REMARK    2  A    between atoms: C_14  and  C_5 
REMARK    3  A    between atoms: N_8  and  C_18 
REMARK    4  A    between atoms: C_9  and  C_11 
REMARK    5  A    between atoms: C_20  and  C_12 
REMARK    6  A    between atoms: C_17  and  C_14 
REMARK    7  A    between atoms: O_28  and  C_17 
REMARK    8  A    between atoms: C_31  and  O_28 
ROOT
ATOM      1  N   UNL d   1       2.409  -0.637   0.029  0.00  0.00    -0.251 N 
ATOM      2  N   UNL d   1       2.409   0.739   0.038  0.00  0.00    -0.298 N 
ATOM      3  HN  UNL d   1       3.290   1.253   0.032  1.00  0.00     0.187 HD
ATOM      4  C   UNL d   1       1.260  -1.420   0.063  0.00  0.00     0.273 A 
ATOM      5  C   UNL d   1       1.274   1.382   0.055  0.00  0.00     0.046 A 
ATOM      6  C   UNL d   1      -0.027  -0.699   0.062  0.00  0.00     0.046 A 
ATOM      7  C   UNL d   1      -0.039   0.692   0.026  0.00  0.00     0.004 A 
ATOM      8  O   UNL d   1       1.256  -2.647   0.043  0.00  0.00    -0.266 OA
ATOM      9  C   UNL d   1      -1.230  -1.422   0.039  0.00  0.00     0.018 A 
ATOM     10  C   UNL d   1      -1.268   1.363  -0.055  0.00  0.00     0.014 A 
ATOM     11  C   UNL d   1      -2.449  -0.750  -0.031  0.00  0.00     0.001 A 
ATOM     12  C   UNL d   1      -2.467   0.641  -0.080  0.00  0.00     0.001 A 
ENDROOT
BRANCH   1  13
ATOM     13  C   UNL d   1       3.714  -1.293  -0.086  0.00  0.00     0.217 C 
BRANCH  13  14
ATOM     14  C   UNL d   1       4.333  -1.510   1.265  0.00  0.00     0.071 A 
ATOM     15  N   UNL d   1       4.157  -2.582   2.013  0.00  0.00    -0.351 N 
ATOM     16  C   UNL d   1       4.806  -2.433   3.227  0.00  0.00     0.049 A 
ATOM     17  HN  UNL d   1       3.620  -3.404   1.737  1.00  0.00     0.166 HD
ATOM     18  C   UNL d   1       5.564  -1.285   3.342  0.00  0.00     0.081 A 
ATOM     19  S   UNL d   1       5.405  -0.333   1.925  0.00  0.00    -0.085 SA
BRANCH  16  20
ATOM     20  C   UNL d   1       4.638  -3.421   4.286  0.00  0.00    -0.009 A 
ATOM     21  C   UNL d   1       4.453  -4.772   3.956  0.00  0.00     0.016 A 
ATOM     22  C   UNL d   1       4.187  -5.723   4.948  0.00  0.00     0.037 A 
ATOM     23  C   UNL d   1       4.091  -5.314   6.284  0.00  0.00     0.102 A 
ATOM     24  C   UNL d   1       4.291  -3.973   6.632  0.00  0.00     0.037 A 
ATOM     25  C   UNL d   1       4.569  -3.033   5.634  0.00  0.00     0.016 A 
BRANCH  23  26
ATOM     26  N   UNL d   1       3.749  -6.291   7.325  0.00  0.00    -0.116 N 
ATOM     27  O   UNL d   1       3.556  -7.465   6.975  0.00  0.00    -0.532 OA
ATOM     28  O   UNL d   1       3.670  -5.885   8.493  0.00  0.00    -0.532 OA
ENDBRANCH  23  26
ENDBRANCH  16  20
ENDBRANCH  13  14
ENDBRANCH   1  13
BRANCH   5  29
ATOM     29  C   UNL d   1       1.351   2.898   0.048  0.00  0.00     0.170 C 
BRANCH  29  30
ATOM     30  C   UNL d   1       0.732   3.576   1.242  0.00  0.00     0.264 C 
ATOM     31  O   UNL d   1       0.229   2.998   2.193  0.00  0.00    -0.265 OA
BRANCH  30  32
ATOM     32  O   UNL d   1       0.709   4.925   1.045  0.00  0.00    -0.322 OA
BRANCH  32  33
ATOM     33  C   UNL d   1      -0.295   5.639   1.783  0.00  0.00     0.174 C 
ATOM     34  C   UNL d   1       0.299   6.471   2.905  0.00  0.00     0.034 C 
ENDBRANCH  32  33
ENDBRANCH  30  32
ENDBRANCH  29  30
ENDBRANCH   5  29
TORSDOF 8
