REMARK  8 active torsions:
REMARK  status: ('A' for Active; 'I' for Inactive)
REMARK    1  A    between atoms: N_3  and  C_1 
REMARK    2  A    between atoms: N_5  and  C_1 
REMARK       I    between atoms: C_2  and  N_7 
REMARK    3  A    between atoms: C_12  and  C_2 
REMARK    4  A    between atoms: N_7  and  N_3 
REMARK    5  A    between atoms: O_17  and  C_4 
REMARK    6  A    between atoms: C_14  and  N_5 
REMARK    7  A    between atoms: O_22  and  C_8 
REMARK    8  A    between atoms: C_10  and  C_12 
ROOT
ATOM      1  C   UNL d   1       0.247   1.956   3.152  0.00  0.00     0.240 C 
ATOM      2  N   UNL d   1      -0.096   0.640   3.398  0.00  0.00    -0.268 N 
ATOM      3  O   UNL d   1      -0.095   2.553   2.131  0.00  0.00    -0.272 OA
ATOM      4  H   UNL d   1       0.150   0.133   4.246  0.00  0.00     0.190 HD
ENDROOT
BRANCH   2   5
ATOM      5  N   UNL d   1      -0.905  -0.011   2.459  0.00  0.00    -0.274 N 
ATOM      6  H   UNL d   1      -1.280   0.594   1.729  0.00  0.00     0.189 HD
BRANCH   5   7
ATOM      7  C   UNL d   1      -0.730  -1.345   2.213  0.00  0.00     0.191 C 
ATOM      8  S   UNL d   1      -0.412  -2.467   3.415  0.00  0.00    -0.039 SA
BRANCH   7   9
ATOM      9  N   UNL d   1      -0.901  -1.782   0.929  0.00  0.00    -0.332 N 
ATOM     10  H   UNL d   1      -1.039  -2.785   0.863  0.00  0.00     0.168 HD
BRANCH   9  11
ATOM     11  C   UNL d   1      -0.696  -1.110  -0.297  0.00  0.00     0.034 A 
ATOM     12  C   UNL d   1      -0.088   0.144  -0.413  0.00  0.00     0.031 A 
ATOM     13  C   UNL d   1       0.091   0.745  -1.663  0.00  0.00     0.026 A 
ATOM     14  C   UNL d   1      -0.299   0.073  -2.812  0.00  0.00     0.034 A 
ATOM     15  C   UNL d   1      -0.859  -1.198  -2.723  0.00  0.00     0.026 A 
ATOM     16 CL   UNL d   1      -0.057   0.802  -4.352  0.00  0.00    -0.084 Cl
ATOM     17  C   UNL d   1      -1.057  -1.786  -1.468  0.00  0.00     0.031 A 
ENDBRANCH   9  11
ENDBRANCH   7   9
ENDBRANCH   5   7
ENDBRANCH   2   5
BRANCH   1  18
ATOM     18  C   UNL d   1       1.024   2.617   4.275  0.00  0.00     0.143 C 
BRANCH  18  19
ATOM     19  C   UNL d   1       0.149   3.334   5.279  0.00  0.00    -0.047 A 
ATOM     20  C   UNL d   1      -1.134   2.864   5.611  0.00  0.00     0.047 A 
ATOM     21  C   UNL d   1      -1.947   3.517   6.548  0.00  0.00     0.102 A 
ATOM     22  C   UNL d   1      -1.437   4.647   7.206  0.00  0.00     0.101 A 
ATOM     23  C   UNL d   1      -0.158   5.119   6.883  0.00  0.00     0.040 A 
ATOM     24  C   UNL d   1       0.634   4.466   5.937  0.00  0.00     0.010 A 
BRANCH  21  25
ATOM     25  O   UNL d   1      -3.225   3.116   6.832  0.00  0.00    -0.353 OA
ATOM     26  C   UNL d   1      -3.765   2.022   6.099  0.00  0.00     0.210 C 
ENDBRANCH  21  25
BRANCH  22  27
ATOM     27  O   UNL d   1      -2.077   5.420   8.140  0.00  0.00    -0.353 OA
ATOM     28  C   UNL d   1      -3.006   4.755   8.987  0.00  0.00     0.210 C 
ENDBRANCH  22  27
ENDBRANCH  18  19
ENDBRANCH   1  18
TORSDOF 8
