REMARK  4 active torsions:
REMARK  status: ('A' for Active; 'I' for Inactive)
REMARK    1  A    between atoms: N_3  and  C_1 
REMARK    2  A    between atoms: N_4  and  C_1 
REMARK    3  A    between atoms: C_2  and  N_3 
REMARK    4  A    between atoms: C_5  and  N_4 
ROOT
ATOM      1  C   UNL d   1       0.995  -0.064   0.249  0.00  0.00     0.176 C 
ATOM      2  S   UNL d   1       2.614  -0.370  -0.032  0.00  0.00    -0.041 SA
ENDROOT
BRANCH   1   3
ATOM      3  N   UNL d   1       0.449   1.119   0.688  0.00  0.00    -0.331 N 
ATOM      4  H   UNL d   1      -0.138   0.970   1.505  0.00  0.00     0.168 HD
BRANCH   3   5
ATOM      5  C   UNL d   1       0.918   2.445   0.544  0.00  0.00     0.062 A 
ATOM      6  C   UNL d   1       0.805   3.297   1.664  0.00  0.00     0.061 A 
ATOM      7 CL   UNL d   1       0.182   2.712   3.174  0.00  0.00    -0.082 Cl
ATOM      8  C   UNL d   1       1.194   4.635   1.599  0.00  0.00     0.026 A 
ATOM      9  C   UNL d   1       1.683   5.150   0.405  0.00  0.00     0.002 A 
ATOM     10  C   UNL d   1       1.754   4.334  -0.723  0.00  0.00     0.009 A 
ATOM     11  C   UNL d   1       1.350   2.984  -0.683  0.00  0.00    -0.034 A 
ATOM     12  C   UNL d   1       1.313   2.265  -2.005  0.00  0.00     0.050 C 
ENDBRANCH   3   5
ENDBRANCH   1   3
BRANCH   1  13
ATOM     13  N   UNL d   1       0.102  -1.114   0.211  0.00  0.00    -0.333 N 
ATOM     14  H   UNL d   1       0.525  -2.034   0.216  0.00  0.00     0.168 HD
BRANCH  13  15
ATOM     15  C   UNL d   1      -1.290  -1.055  -0.047  0.00  0.00     0.040 A 
ATOM     16  C   UNL d   1      -2.123  -2.125   0.315  0.00  0.00    -0.035 A 
ATOM     17  C   UNL d   1      -3.484  -2.076  -0.043  0.00  0.00     0.009 A 
ATOM     18  C   UNL d   1      -1.655  -3.320   1.098  0.00  0.00     0.050 C 
ATOM     19  C   UNL d   1      -4.014  -0.987  -0.738  0.00  0.00     0.007 A 
ATOM     20  C   UNL d   1      -3.195   0.081  -1.093  0.00  0.00    -0.060 A 
ATOM     21  C   UNL d   1      -1.842   0.033  -0.743  0.00  0.00     0.037 A 
ATOM     22  C   UNL d   1      -3.740   1.248  -1.862  0.00  0.00     0.048 C 
ENDBRANCH  13  15
ENDBRANCH   1  13
TORSDOF 4
