REMARK  1 active torsions:
REMARK  status: ('A' for Active; 'I' for Inactive)
REMARK    1  A    between atoms: C_7  and  C_2 
ROOT
ATOM      1  S   UNL d   1       0.743   0.635   1.292  0.00  0.00    -0.038 SA
ATOM      2  C   UNL d   1       1.074  -0.507   0.013  0.00  0.00     0.118 A 
ATOM      3  C   UNL d   1      -0.808   0.961   0.552  0.00  0.00     0.161 A 
ATOM      4  N   UNL d   1       0.141  -0.646  -0.881  0.00  0.00    -0.288 N 
ATOM      5  HN  UNL d   1       0.190  -1.273  -1.684  1.00  0.00     0.188 HD
ATOM      6  N   UNL d   1      -0.926   0.180  -0.586  0.00  0.00    -0.279 N 
ATOM      7  S   UNL d   1      -1.901   2.049   1.182  0.00  0.00    -0.051 SA
ATOM      8  C   UNL d   1      -2.065   0.129  -1.489  0.00  0.00     0.179 C 
ENDROOT
BRANCH   2   9
ATOM      9  C   UNL d   1       2.358  -1.252  -0.003  0.00  0.00     0.067 A 
ATOM     10  N   UNL d   1       3.222  -1.019   1.020  0.00  0.00    -0.364 N 
ATOM     11  C   UNL d   1       4.386  -1.701   1.012  0.00  0.00     0.088 A 
ATOM     12  HN  UNL d   1       2.999  -0.356   1.762  1.00  0.00     0.165 HD
ATOM     13  C   UNL d   1       4.737  -2.611   0.030  0.00  0.00     0.017 A 
ATOM     14  C   UNL d   1       3.842  -2.835  -1.011  0.00  0.00     0.004 A 
ATOM     15  C   UNL d   1       2.630  -2.147  -1.032  0.00  0.00     0.032 A 
ENDBRANCH   2   9
TORSDOF 1
