REMARK  2 active torsions:
REMARK  status: ('A' for Active; 'I' for Inactive)
REMARK    1  A    between atoms: C_6  and  C_1 
REMARK    2  A    between atoms: N_3  and  C_10 
ROOT
ATOM      1  C   UNL d   1       1.308   0.627   0.087  0.00  0.00     0.178 A 
ATOM      2  O   UNL d   1       0.128   1.028   0.660  0.00  0.00    -0.259 OA
ATOM      3  N   UNL d   1       1.291  -0.637  -0.275  0.00  0.00    -0.276 N 
ATOM      4  HN  UNL d   1       2.052  -1.161  -0.707  1.00  0.00     0.189 HD
ATOM      5  N   UNL d   1       0.033  -1.114   0.046  0.00  0.00    -0.263 N 
ATOM      6  HN  UNL d   1      -0.317  -2.061  -0.100  1.00  0.00     0.190 HD
ATOM      7  C   UNL d   1      -0.620  -0.107   0.576  0.00  0.00     0.238 A 
ATOM      8  N   UNL d   1      -1.866  -0.035   1.045  0.00  0.00    -0.364 N 
ATOM      9  H   UNL d   1      -2.101   0.719   1.676  0.00  0.00     0.159 HD
ATOM     10  H   UNL d   1      -2.347  -0.910   1.218  0.00  0.00     0.159 HD
ENDROOT
BRANCH   1  11
ATOM     11  C   UNL d   1       2.357   1.631  -0.015  0.00  0.00     0.050 A 
ATOM     12  C   UNL d   1       3.323   1.629  -1.032  0.00  0.00     0.117 A 
ATOM     13  C   UNL d   1       4.340   2.596  -1.099  0.00  0.00     0.037 A 
ATOM     14  C   UNL d   1       4.400   3.592  -0.128  0.00  0.00     0.002 A 
ATOM     15  C   UNL d   1       3.455   3.618   0.896  0.00  0.00     0.001 A 
ATOM     16  C   UNL d   1       2.447   2.648   0.952  0.00  0.00     0.018 A 
BRANCH  12  17
ATOM     17  N   UNL d   1       3.273   0.658  -2.109  0.00  0.00    -0.115 N 
ATOM     18  O   UNL d   1       2.295   0.714  -2.866  0.00  0.00    -0.532 OA
ATOM     19  O   UNL d   1       4.253  -0.087  -2.235  0.00  0.00    -0.532 OA
ENDBRANCH  12  17
ENDBRANCH   1  11
TORSDOF 2
