REMARK  7 active torsions:
REMARK  status: ('A' for Active; 'I' for Inactive)
REMARK    1  A    between atoms: N_2  and  C_1 
REMARK    2  A    between atoms: C_3  and  C_1 
REMARK    3  A    between atoms: C_4  and  C_1 
REMARK    4  A    between atoms: N_5  and  C_1 
REMARK       I    between atoms: C_10  and  N_2 
REMARK    5  A    between atoms: C_6  and  N_5 
REMARK    6  A    between atoms: O_20  and  C_10 
REMARK    7  A    between atoms: C_22  and  O_20 
ROOT
ATOM      1  C   UNL d   1       0.945   0.178   0.045  0.00  0.00     0.309 C 
ENDROOT
BRANCH   1   2
ATOM      2  N   UNL d   1       0.520   0.791  -1.213  0.00  0.00    -0.295 N 
ATOM      3  C   UNL d   1      -0.810   0.867  -1.510  0.00  0.00     0.362 C 
ATOM      4  O   UNL d   1      -1.689   0.596  -0.700  0.00  0.00    -0.238 OA
ATOM      5  H   UNL d   1       1.136   0.721  -2.010  0.00  0.00     0.168 HD
BRANCH   3   6
ATOM      6  O   UNL d   1      -0.963   1.197  -2.805  0.00  0.00    -0.304 OA
BRANCH   6   7
ATOM      7  C   UNL d   1      -2.275   1.009  -3.342  0.00  0.00     0.176 C 
ATOM      8  C   UNL d   1      -2.350  -0.396  -3.930  0.00  0.00     0.034 C 
ENDBRANCH   6   7
ENDBRANCH   3   6
ENDBRANCH   1   2
BRANCH   1   9
ATOM      9  C   UNL d   1       0.390  -1.281   0.306  0.00  0.00     0.441 C 
ATOM     10  F   UNL d   1      -0.069  -1.853  -0.834  0.00  0.00    -0.166 F 
ATOM     11  F   UNL d   1       1.377  -2.094   0.768  0.00  0.00    -0.166 F 
ATOM     12  F   UNL d   1      -0.612  -1.373   1.207  0.00  0.00    -0.166 F 
ENDBRANCH   1   9
BRANCH   1  13
ATOM     13  C   UNL d   1       0.568   1.068   1.288  0.00  0.00     0.441 C 
ATOM     14  F   UNL d   1       0.035   2.264   0.922  0.00  0.00    -0.166 F 
ATOM     15  F   UNL d   1      -0.260   0.532   2.201  0.00  0.00    -0.166 F 
ATOM     16  F   UNL d   1       1.711   1.385   1.978  0.00  0.00    -0.166 F 
ENDBRANCH   1  13
BRANCH   1  17
ATOM     17  N   UNL d   1       2.461   0.178  -0.104  0.00  0.00    -0.334 N 
ATOM     18  H   UNL d   1       2.911   0.277   0.807  0.00  0.00     0.164 HD
BRANCH  17  19
ATOM     19  C   UNL d   1       3.078  -0.614  -1.016  0.00  0.00     0.126 A 
ATOM     20  N   UNL d   1       2.594  -0.971  -2.207  0.00  0.00    -0.245 N 
ATOM     21  O   UNL d   1       3.565  -1.759  -2.795  0.00  0.00    -0.241 OA
ATOM     22  HN  UNL d   1       1.690  -0.713  -2.603  1.00  0.00     0.196 HD
ATOM     23  C   UNL d   1       4.622  -1.877  -1.949  0.00  0.00     0.076 A 
ATOM     24  C   UNL d   1       4.362  -1.158  -0.808  0.00  0.00     0.084 A 
ATOM     25  C   UNL d   1       5.747  -2.705  -2.416  0.00  0.00     0.079 C 
ENDBRANCH  17  19
ENDBRANCH   1  17
TORSDOF 7
