REMARK  2 active torsions:
REMARK  status: ('A' for Active; 'I' for Inactive)
REMARK       I    between atoms: N_2  and  C_1 
REMARK    1  A    between atoms: C_3  and  C_1 
REMARK       I    between atoms: C_5  and  N_2 
REMARK    2  A    between atoms: C_4  and  N_6 
REMARK       I    between atoms: N_6  and  C_5 
ROOT
ATOM      1  C   UNL d   1       1.075   0.204   0.089  0.00  0.00     0.263 C 
ATOM      2  N   UNL d   1       0.472  -1.009   0.379  0.00  0.00    -0.275 N 
ATOM      3  C   UNL d   1       1.027  -2.253   0.595  0.00  0.00     0.327 C 
ATOM      4  N   UNL d   1       2.390  -2.324   0.501  0.00  0.00    -0.305 N 
ATOM      5  O   UNL d   1       2.290   0.324  -0.038  0.00  0.00    -0.267 OA
ATOM      6  O   UNL d   1       0.262  -3.164   0.896  0.00  0.00    -0.247 OA
ATOM      7  H   UNL d   1      -0.537  -1.054   0.438  0.00  0.00     0.173 HD
ATOM      8  H   UNL d   1       2.872  -1.428   0.541  0.00  0.00     0.171 HD
ENDROOT
BRANCH   4   9
ATOM      9  C   UNL d   1       3.172  -3.491   0.694  0.00  0.00     0.092 A 
ATOM     10  C   UNL d   1       2.706  -4.787   0.417  0.00  0.00     0.147 A 
ATOM     11  C   UNL d   1       3.482  -5.912   0.674  0.00  0.00     0.087 A 
ATOM     12  F   UNL d   1       1.530  -4.989  -0.195  0.00  0.00    -0.204 F 
ATOM     13  C   UNL d   1       4.756  -5.752   1.195  0.00  0.00     0.120 A 
ATOM     14  C   UNL d   1       5.275  -4.487   1.433  0.00  0.00     0.064 A 
ATOM     15  F   UNL d   1       5.502  -6.832   1.455  0.00  0.00    -0.206 F 
ATOM     16  C   UNL d   1       4.489  -3.360   1.170  0.00  0.00     0.043 A 
ATOM     17 BR   UNL d   1       5.254  -1.655   1.532  0.00  0.00    -0.049 Br
ENDBRANCH   4   9
BRANCH   1  18
ATOM     18  C   UNL d   1       0.161   1.385  -0.017  0.00  0.00     0.075 A 
ATOM     19  C   UNL d   1       0.541   2.626   0.529  0.00  0.00     0.051 A 
ATOM     20 CL   UNL d   1       2.019   2.886   1.392  0.00  0.00    -0.083 Cl
ATOM     21  C   UNL d   1      -0.314   3.738   0.444  0.00  0.00     0.025 A 
ATOM     22  C   UNL d   1      -1.558   3.630  -0.169  0.00  0.00     0.003 A 
ATOM     23  C   UNL d   1      -1.946   2.413  -0.716  0.00  0.00     0.025 A 
ATOM     24  C   UNL d   1      -1.093   1.302  -0.657  0.00  0.00     0.051 A 
ATOM     25 CL   UNL d   1      -1.678  -0.128  -1.440  0.00  0.00    -0.083 Cl
ENDBRANCH   1  18
TORSDOF 2
