REMARK  2 active torsions:
REMARK  status: ('A' for Active; 'I' for Inactive)
REMARK    1  A    between atoms: N_8  and  C_1 
REMARK    2  A    between atoms: N_5  and  C_9 
REMARK       I    between atoms: C_11  and  N_8 
ROOT
ATOM      1  C   UNL d   1      -1.798  -1.295  -0.051  0.00  0.00     0.112 A 
ATOM      2  C   UNL d   1      -2.081   0.171   0.075  0.00  0.00     0.315 A 
ATOM      3  O   UNL d   1      -1.007   1.049   0.028  0.00  0.00    -0.273 OA
ATOM      4  C   UNL d   1      -0.532  -1.727  -0.105  0.00  0.00     0.050 A 
ATOM      5  C   UNL d   1       0.577  -0.789  -0.034  0.00  0.00     0.002 A 
ATOM      6  C   UNL d   1       0.313   0.571   0.004  0.00  0.00     0.090 A 
ATOM      7  C   UNL d   1       2.963  -0.311   0.095  0.00  0.00     0.039 A 
ATOM      8  C   UNL d   1       1.904  -1.232   0.008  0.00  0.00     0.044 A 
ATOM      9  O   UNL d   1      -3.240   0.565   0.192  0.00  0.00    -0.257 OA
ATOM     10  C   UNL d   1       1.342   1.505   0.050  0.00  0.00     0.040 A 
ATOM     11  C   UNL d   1       2.668   1.063   0.096  0.00  0.00     0.033 A 
ENDROOT
BRANCH   1  12
ATOM     12  N   UNL d   1      -2.921  -2.106  -0.094  0.00  0.00    -0.322 N 
ATOM     13  C   UNL d   1      -2.985  -3.476  -0.246  0.00  0.00     0.218 C 
ATOM     14  O   UNL d   1      -2.027  -4.229  -0.392  0.00  0.00    -0.274 OA
ATOM     15  C   UNL d   1      -4.391  -4.018  -0.246  0.00  0.00     0.117 C 
ATOM     16  H   UNL d   1      -3.798  -1.592  -0.013  0.00  0.00     0.169 HD
ENDBRANCH   1  12
BRANCH   7  17
ATOM     17  N   UNL d   1       4.314  -0.772   0.207  0.00  0.00    -0.333 N 
ATOM     18  C   UNL d   1       4.745  -2.087   0.174  0.00  0.00     0.096 A 
ATOM     19  C   UNL d   1       6.110  -2.130   0.356  0.00  0.00     0.019 A 
ATOM     20  C   UNL d   1       6.551  -0.802   0.500  0.00  0.00     0.019 A 
ATOM     21  C   UNL d   1       5.441   0.009   0.399  0.00  0.00     0.096 A 
ENDBRANCH   7  17
TORSDOF 2
