REMARK  1 active torsions:
REMARK  status: ('A' for Active; 'I' for Inactive)
REMARK    1  A    between atoms: C_5  and  C_2 
ROOT
ATOM      1  N   UNL d   1      -2.423   0.583  -0.193  0.00  0.00    -0.331 N 
ATOM      2  C   UNL d   1      -2.379  -0.767   0.291  0.00  0.00     0.227 C 
ATOM      3  N   UNL d   1      -1.252  -1.433  -0.374  0.00  0.00    -0.358 N 
ATOM      4  C   UNL d   1      -1.308   1.371  -0.167  0.00  0.00     0.255 C 
ATOM      5  C   UNL d   1      -0.019   0.657  -0.099  0.00  0.00     0.058 A 
ATOM      6  C   UNL d   1      -0.027  -0.748  -0.216  0.00  0.00     0.047 A 
ATOM      7  O   UNL d   1      -1.387   2.591  -0.204  0.00  0.00    -0.268 OA
ATOM      8  C   UNL d   1      -1.222  -2.891  -0.389  0.00  0.00     0.152 C 
ATOM      9  C   UNL d   1       1.164   1.393   0.048  0.00  0.00     0.019 A 
ATOM     10  C   UNL d   1       1.226  -1.382  -0.204  0.00  0.00     0.030 A 
ATOM     11  C   UNL d   1       2.386   0.730   0.082  0.00  0.00     0.001 A 
ATOM     12  C   UNL d   1       2.415  -0.655  -0.045  0.00  0.00     0.002 A 
ATOM     13  H   UNL d   1      -3.290   1.095  -0.130  0.00  0.00     0.165 HD
ENDROOT
BRANCH   2  14
ATOM     14  C   UNL d   1      -3.759  -1.336   0.051  0.00  0.00     0.026 A 
ATOM     15  C   UNL d   1      -4.408  -1.562  -1.153  0.00  0.00     0.038 A 
ATOM     16  C   UNL d   1      -5.708  -2.087  -0.959  0.00  0.00     0.018 A 
ATOM     17 BR   UNL d   1      -6.843  -2.499  -2.407  0.00  0.00    -0.051 Br
ATOM     18  C   UNL d   1      -6.037  -2.253   0.361  0.00  0.00     0.069 A 
ATOM     19  S   UNL d   1      -4.753  -1.774   1.386  0.00  0.00    -0.101 SA
ENDBRANCH   2  14
TORSDOF 1
