REMARK  3 active torsions:
REMARK  status: ('A' for Active; 'I' for Inactive)
REMARK    1  A    between atoms: C_10  and  N_3 
REMARK    2  A    between atoms: C_13  and  N_6 
REMARK    3  A    between atoms: C_9  and  C_8 
ROOT
ATOM      1  C   UNL d   1      -0.011  -0.806  -0.633  0.00  0.00     0.260 C 
ATOM      2  C   UNL d   1       0.054   0.696  -0.736  0.00  0.00     0.149 C 
ATOM      3  N   UNL d   1      -1.645   0.058   0.762  0.00  0.00    -0.250 N 
ATOM      4  C   UNL d   1      -1.293  -1.088   0.087  0.00  0.00     0.263 C 
ATOM      5  C   UNL d   1      -1.005   1.155   0.238  0.00  0.00     0.241 C 
ATOM      6  N   UNL d   1       1.660  -0.097   0.718  0.00  0.00    -0.247 N 
ATOM      7  O   UNL d   1       0.993  -1.254   0.291  0.00  0.00    -0.261 OA
ATOM      8  C   UNL d   1       1.423   1.028  -0.180  0.00  0.00     0.164 C 
ATOM      9  O   UNL d   1      -1.874  -2.164   0.049  0.00  0.00    -0.270 OA
ATOM     10  O   UNL d   1      -1.181   2.346   0.480  0.00  0.00    -0.272 OA
ENDROOT
BRANCH   8  11
ATOM     11  C   UNL d   1       2.505   1.106  -1.252  0.00  0.00    -0.032 A 
ATOM     12  C   UNL d   1       2.756   2.333  -1.889  0.00  0.00     0.012 A 
ATOM     13  C   UNL d   1       3.775   2.442  -2.839  0.00  0.00     0.043 A 
ATOM     14  C   UNL d   1       4.541   1.330  -3.164  0.00  0.00     0.116 A 
ATOM     15  C   UNL d   1       4.309   0.104  -2.560  0.00  0.00     0.043 A 
ATOM     16  F   UNL d   1       5.523   1.442  -4.068  0.00  0.00    -0.206 F 
ATOM     17  C   UNL d   1       3.293  -0.007  -1.611  0.00  0.00     0.012 A 
ENDBRANCH   8  11
BRANCH   6  18
ATOM     18  C   UNL d   1       2.413  -0.064   1.886  0.00  0.00     0.058 A 
ATOM     19  C   UNL d   1       2.495  -1.202   2.703  0.00  0.00     0.031 A 
ATOM     20  C   UNL d   1       3.253  -1.210   3.878  0.00  0.00     0.002 A 
ATOM     21  C   UNL d   1       3.948  -0.070   4.264  0.00  0.00     0.000 A 
ATOM     22  C   UNL d   1       3.880   1.074   3.476  0.00  0.00     0.002 A 
ATOM     23  C   UNL d   1       3.121   1.073   2.301  0.00  0.00     0.031 A 
ENDBRANCH   6  18
BRANCH   3  24
ATOM     24  C   UNL d   1      -2.437   0.057   1.939  0.00  0.00     0.045 A 
ATOM     25  C   UNL d   1      -2.457  -1.090   2.756  0.00  0.00     0.030 A 
ATOM     26  C   UNL d   1      -3.090  -1.083   4.000  0.00  0.00     0.002 A 
ATOM     27  C   UNL d   1      -3.744   0.063   4.437  0.00  0.00     0.000 A 
ATOM     28  C   UNL d   1      -3.764   1.196   3.629  0.00  0.00     0.002 A 
ATOM     29  C   UNL d   1      -3.105   1.198   2.394  0.00  0.00     0.030 A 
ENDBRANCH   3  24
TORSDOF 3
