REMARK  3 active torsions:
REMARK  status: ('A' for Active; 'I' for Inactive)
REMARK    1  A    between atoms: C_5  and  C_1 
REMARK    2  A    between atoms: C_11  and  C_4 
REMARK       I    between atoms: N_10  and  C_5 
REMARK    3  A    between atoms: N_12  and  N_10 
ROOT
ATOM      1  C   UNL d   1       0.599  -1.030   0.071  0.00  0.00     0.241 A 
ATOM      2  N   UNL d   1       1.289   0.090  -0.017  0.00  0.00    -0.315 N 
ATOM      3  HN  UNL d   1       2.298   0.217  -0.093  1.00  0.00     0.169 HD
ATOM      4  C   UNL d   1       0.292   1.049   0.021  0.00  0.00     0.138 A 
ATOM      5  N   UNL d   1      -0.948   0.539   0.115  0.00  0.00    -0.242 N 
ATOM      6  HN  UNL d   1      -1.833   1.045   0.154  1.00  0.00     0.196 HD
ATOM      7  O   UNL d   1      -0.745  -0.837   0.149  0.00  0.00    -0.212 OA
ENDROOT
BRANCH   1   8
ATOM      8  C   UNL d   1       1.124  -2.377   0.116  0.00  0.00     0.309 C 
ATOM      9  O   UNL d   1       0.443  -3.398   0.229  0.00  0.00    -0.262 OA
ATOM     10  N   UNL d   1       2.519  -2.441   0.031  0.00  0.00    -0.287 N 
ATOM     11  H   UNL d   1       3.041  -1.582  -0.150  0.00  0.00     0.183 HD
BRANCH  10  12
ATOM     12  N   UNL d   1       3.184  -3.690   0.029  0.00  0.00    -0.247 NA
ATOM     13  H   UNL d   1       2.462  -4.420  -0.056  0.00  0.00     0.143 HD
ATOM     14  H   UNL d   1       3.581  -3.841   0.961  0.00  0.00     0.143 HD
ENDBRANCH  10  12
ENDBRANCH   1   8
BRANCH   4  15
ATOM     15  C   UNL d   1       0.576   2.481  -0.034  0.00  0.00     0.010 A 
ATOM     16  C   UNL d   1       1.895   2.944  -0.159  0.00  0.00     0.015 A 
ATOM     17  C   UNL d   1       2.166   4.314  -0.217  0.00  0.00     0.001 A 
ATOM     18  C   UNL d   1       1.123   5.236  -0.151  0.00  0.00     0.000 A 
ATOM     19  C   UNL d   1      -0.191   4.792  -0.022  0.00  0.00     0.001 A 
ATOM     20  C   UNL d   1      -0.463   3.423   0.036  0.00  0.00     0.015 A 
ENDBRANCH   4  15
TORSDOF 3
