REMARK  5 active torsions:
REMARK  status: ('A' for Active; 'I' for Inactive)
REMARK    1  A    between atoms: N_2  and  C_1 
REMARK    2  A    between atoms: C_3  and  O_7 
REMARK    3  A    between atoms: C_9  and  C_3 
REMARK    4  A    between atoms: C_4  and  C_8 
REMARK    5  A    between atoms: O_7  and  C_5 
ROOT
ATOM      1  C   UNL d   1      -0.396  -1.165  -1.745  0.00  0.00     0.137 A 
ATOM      2  C   UNL d   1       0.569  -1.227  -0.737  0.00  0.00     0.112 A 
ATOM      3  C   UNL d   1      -0.822   0.048  -2.296  0.00  0.00     0.055 A 
ATOM      4  C   UNL d   1      -0.271   1.245  -1.819  0.00  0.00     0.050 A 
ATOM      5  C   UNL d   1       1.085  -0.038  -0.228  0.00  0.00     0.041 A 
ATOM      6  C   UNL d   1       0.673   1.188  -0.773  0.00  0.00     0.019 A 
ENDROOT
BRANCH   2   7
ATOM      7  O   UNL d   1       0.937  -2.495  -0.247  0.00  0.00    -0.272 OA
BRANCH   7   8
ATOM      8  C   UNL d   1       2.268  -2.812   0.011  0.00  0.00     0.299 C 
ATOM      9  O   UNL d   1       3.208  -2.042   0.083  0.00  0.00    -0.259 OA
BRANCH   8  10
ATOM     10  C   UNL d   1       2.362  -4.294   0.153  0.00  0.00     0.045 A 
ATOM     11  C   UNL d   1       3.190  -4.909   1.112  0.00  0.00    -0.046 A 
ATOM     12  C   UNL d   1       4.022  -4.152   2.109  0.00  0.00     0.049 C 
ATOM     13  C   UNL d   1       3.281  -6.314   1.118  0.00  0.00     0.008 A 
ATOM     14  C   UNL d   1       2.557  -7.091   0.212  0.00  0.00     0.001 A 
ATOM     15  C   UNL d   1       1.734  -6.479  -0.724  0.00  0.00     0.001 A 
ATOM     16  C   UNL d   1       1.642  -5.089  -0.757  0.00  0.00     0.018 A 
ENDBRANCH   8  10
ENDBRANCH   7   8
ENDBRANCH   2   7
BRANCH   1  17
ATOM     17  N   UNL d   1      -0.972  -2.383  -2.260  0.00  0.00    -0.113 N 
ATOM     18  O   UNL d   1      -0.294  -3.026  -3.071  0.00  0.00    -0.532 OA
ATOM     19  O   UNL d   1      -2.110  -2.674  -1.869  0.00  0.00    -0.532 OA
ENDBRANCH   1  17
BRANCH   4  20
ATOM     20  C   UNL d   1      -0.670   2.576  -2.414  0.00  0.00     0.417 C 
ATOM     21  F   UNL d   1      -1.573   2.461  -3.427  0.00  0.00    -0.166 F 
ATOM     22  F   UNL d   1      -1.236   3.407  -1.498  0.00  0.00    -0.166 F 
ATOM     23  F   UNL d   1       0.391   3.250  -2.934  0.00  0.00    -0.166 F 
ENDBRANCH   4  20
TORSDOF 5
