REMARK  5 active torsions:
REMARK  status: ('A' for Active; 'I' for Inactive)
REMARK    1  A    between atoms: S_2  and  C_1 
REMARK    2  A    between atoms: C_8  and  S_2 
REMARK    3  A    between atoms: C_7  and  C_4 
REMARK       I    between atoms: N_16  and  C_7 
REMARK    4  A    between atoms: C_11  and  C_15 
REMARK    5  A    between atoms: N_12  and  N_16 
ROOT
ATOM      1  C   UNL d   1       0.649   1.250   0.020  0.00  0.00     0.078 A 
ATOM      2  C   UNL d   1       1.234  -0.072  -0.031  0.00  0.00    -0.017 A 
ATOM      3  C   UNL d   1       0.244  -1.063  -0.039  0.00  0.00     0.081 A 
ATOM      4  S   UNL d   1      -1.332  -0.389  -0.023  0.00  0.00    -0.094 SA
ATOM      5  C   UNL d   1      -0.731   1.202   0.021  0.00  0.00     0.075 A 
ATOM      6  C   UNL d   1       2.700  -0.404  -0.050  0.00  0.00     0.051 C 
ENDROOT
BRANCH   3   7
ATOM      7  C   UNL d   1       0.447  -2.520  -0.063  0.00  0.00     0.277 C 
ATOM      8  N   UNL d   1      -0.703  -3.310  -0.044  0.00  0.00    -0.266 N 
ATOM      9  H   UNL d   1      -1.621  -2.881  -0.014  0.00  0.00     0.190 HD
ATOM     10  O   UNL d   1       1.573  -3.020  -0.101  0.00  0.00    -0.265 OA
BRANCH   8  11
ATOM     11  N   UNL d   1      -0.566  -4.668  -0.095  0.00  0.00    -0.308 N 
ATOM     12  C   UNL d   1      -1.640  -5.389  -0.087  0.00  0.00     0.126 C 
ATOM     13  HN  UNL d   1       0.357  -5.101  -0.137  1.00  0.00     0.186 HD
BRANCH  12  14
ATOM     14  C   UNL d   1      -1.524  -6.826  -0.156  0.00  0.00     0.021 A 
ATOM     15  S   UNL d   1      -2.930  -7.796  -0.191  0.00  0.00    -0.101 SA
ATOM     16  C   UNL d   1      -2.010  -9.236  -0.295  0.00  0.00     0.050 A 
ATOM     17  C   UNL d   1      -0.655  -8.987  -0.293  0.00  0.00     0.008 A 
ATOM     18  C   UNL d   1      -0.376  -7.593  -0.209  0.00  0.00     0.021 A 
ENDBRANCH  12  14
ENDBRANCH   8  11
ENDBRANCH   3   7
BRANCH   1  19
ATOM     19  S   UNL d   1       1.484   2.786   0.070  0.00  0.00     0.207 S 
ATOM     20  O   UNL d   1       0.515   3.712   0.621  0.00  0.00    -0.217 OA
ATOM     21  O   UNL d   1       2.752   2.542   0.723  0.00  0.00    -0.217 OA
BRANCH  19  22
ATOM     22  C   UNL d   1       1.770   3.226  -1.626  0.00  0.00     0.064 A 
ATOM     23  C   UNL d   1       0.854   4.058  -2.282  0.00  0.00     0.025 A 
ATOM     24  C   UNL d   1       1.088   4.439  -3.606  0.00  0.00     0.025 A 
ATOM     25  C   UNL d   1       2.237   3.997  -4.262  0.00  0.00     0.034 A 
ATOM     26  C   UNL d   1       3.163   3.188  -3.601  0.00  0.00     0.025 A 
ATOM     27 CL   UNL d   1       2.518   4.461  -5.894  0.00  0.00    -0.084 Cl
ATOM     28  C   UNL d   1       2.936   2.807  -2.275  0.00  0.00     0.025 A 
ENDBRANCH  19  22
ENDBRANCH   1  19
TORSDOF 5
