REMARK  4 active torsions:
REMARK  status: ('A' for Active; 'I' for Inactive)
REMARK    1  A    between atoms: C_3  and  S_1 
REMARK    2  A    between atoms: N_5  and  S_1 
REMARK    3  A    between atoms: S_2  and  N_4 
REMARK    4  A    between atoms: C_6  and  S_2 
ROOT
ATOM      1  N   UNL d   1      -1.741   2.558   0.924  0.00  0.00    -0.304 N 
ATOM      2  N   UNL d   1       0.426   0.590   1.027  0.00  0.00    -0.203 NA
ATOM      3  C   UNL d   1      -2.015   1.116   0.662  0.00  0.00     0.151 C 
ATOM      4  C   UNL d   1       0.684   2.053   1.241  0.00  0.00     0.128 C 
ATOM      5  C   UNL d   1      -0.357   2.939   0.538  0.00  0.00     0.151 C 
ATOM      6  C   UNL d   1      -0.986   0.220   1.375  0.00  0.00     0.128 C 
ENDROOT
BRANCH   2   7
ATOM      7  S   UNL d   1       1.033  -0.101  -0.401  0.00  0.00     0.243 S 
ATOM      8  O   UNL d   1       0.630  -1.490  -0.451  0.00  0.00    -0.206 OA
ATOM      9  O   UNL d   1       0.746   0.806  -1.489  0.00  0.00    -0.206 OA
BRANCH   7  10
ATOM     10  C   UNL d   1       2.784  -0.094  -0.115  0.00  0.00     0.077 A 
ATOM     11  C   UNL d   1       3.289  -0.815   0.971  0.00  0.00     0.048 A 
ATOM     12  C   UNL d   1       4.663  -0.831   1.195  0.00  0.00     0.037 A 
ATOM     13 CL   UNL d   1       5.298  -1.708   2.531  0.00  0.00    -0.084 Cl
ATOM     14  C   UNL d   1       5.529  -0.141   0.347  0.00  0.00     0.047 A 
ATOM     15  C   UNL d   1       5.009   0.568  -0.735  0.00  0.00     0.037 A 
ATOM     16  C   UNL d   1       3.637   0.599  -0.977  0.00  0.00     0.048 A 
ATOM     17 CL   UNL d   1       6.077   1.414  -1.787  0.00  0.00    -0.084 Cl
ENDBRANCH   7  10
ENDBRANCH   2   7
BRANCH   1  18
ATOM     18  S   UNL d   1      -2.357   3.210   2.364  0.00  0.00     0.267 S 
ATOM     19  O   UNL d   1      -2.559   2.130   3.306  0.00  0.00    -0.200 OA
ATOM     20  O   UNL d   1      -1.595   4.388   2.718  0.00  0.00    -0.200 OA
BRANCH  18  21
ATOM     21  C   UNL d   1      -3.996   3.801   1.996  0.00  0.00     0.120 A 
ATOM     22  S   UNL d   1      -4.109   4.970   0.749  0.00  0.00    -0.088 SA
ATOM     23  C   UNL d   1      -5.813   5.044   0.885  0.00  0.00     0.051 A 
ATOM     24  C   UNL d   1      -6.291   4.201   1.864  0.00  0.00     0.009 A 
ATOM     25  C   UNL d   1      -5.239   3.493   2.516  0.00  0.00     0.033 A 
ENDBRANCH  18  21
ENDBRANCH   1  18
TORSDOF 4
