REMARK  4 active torsions:
REMARK  status: ('A' for Active; 'I' for Inactive)
REMARK    1  A    between atoms: C_2  and  S_1 
REMARK    2  A    between atoms: N_5  and  S_1 
REMARK    3  A    between atoms: C_13  and  C_4 
REMARK    4  A    between atoms: C_8  and  C_14 
ROOT
ATOM      1  S   UNL d   1       0.972  -0.016   0.008  0.00  0.00     0.250 S 
ATOM      2  O   UNL d   1       0.234   1.184   0.327  0.00  0.00    -0.205 OA
ATOM      3  O   UNL d   1       2.412   0.008  -0.150  0.00  0.00    -0.205 OA
ENDROOT
BRANCH   1   4
ATOM      4  C   UNL d   1       0.362  -0.570  -1.577  0.00  0.00     0.116 A 
ATOM      5  S   UNL d   1      -1.285  -0.258  -1.920  0.00  0.00    -0.075 SA
ATOM      6  C   UNL d   1      -1.183  -0.987  -3.462  0.00  0.00     0.035 A 
ATOM      7  C   UNL d   1       0.085  -1.472  -3.712  0.00  0.00     0.023 A 
ATOM      8  C   UNL d   1       0.978  -1.225  -2.627  0.00  0.00     0.034 A 
BRANCH   6   9
ATOM      9  C   UNL d   1      -2.332  -1.101  -4.419  0.00  0.00     0.074 A 
ATOM     10  C   UNL d   1      -3.629  -0.564  -4.254  0.00  0.00     0.077 A 
ATOM     11  C   UNL d   1      -4.316  -0.972  -5.373  0.00  0.00     0.184 A 
ATOM     12  O   UNL d   1      -3.482  -1.694  -6.167  0.00  0.00    -0.233 OA
ATOM     13  N   UNL d   1      -2.233  -1.769  -5.576  0.00  0.00    -0.260 N 
ATOM     14  HN  UNL d   1      -1.406  -2.238  -5.946  1.00  0.00     0.195 HD
BRANCH  11  15
ATOM     15  C   UNL d   1      -5.697  -0.801  -5.855  0.00  0.00     0.441 C 
ATOM     16  F   UNL d   1      -6.423  -0.006  -5.024  0.00  0.00    -0.164 F 
ATOM     17  F   UNL d   1      -5.750  -0.230  -7.084  0.00  0.00    -0.164 F 
ATOM     18  F   UNL d   1      -6.361  -1.982  -5.936  0.00  0.00    -0.164 F 
ENDBRANCH  11  15
ENDBRANCH   6   9
ENDBRANCH   1   4
BRANCH   1  19
ATOM     19  N   UNL d   1       0.599  -1.215   1.174  0.00  0.00    -0.200 NA
ATOM     20  C   UNL d   1       1.351  -2.487   0.946  0.00  0.00     0.165 C 
ATOM     21  C   UNL d   1       1.018  -3.428   2.049  0.00  0.00     0.031 A 
ATOM     22  N   UNL d   1       1.179  -4.785   2.002  0.00  0.00    -0.357 N 
ATOM     23  C   UNL d   1       0.523  -3.096   3.291  0.00  0.00    -0.021 A 
ATOM     24  C   UNL d   1       0.796  -5.343   3.205  0.00  0.00     0.043 A 
ATOM     25  H   UNL d   1       1.521  -5.315   1.212  0.00  0.00     0.166 HD
ATOM     26  C   UNL d   1       0.777  -6.686   3.607  0.00  0.00     0.033 A 
ATOM     27  C   UNL d   1       0.390  -4.297   4.041  0.00  0.00     0.002 A 
ATOM     28  C   UNL d   1       0.337  -6.965   4.903  0.00  0.00     0.044 A 
ATOM     29  C   UNL d   1      -0.063  -5.938   5.749  0.00  0.00     0.117 A 
ATOM     30  C   UNL d   1      -0.047  -4.604   5.343  0.00  0.00     0.056 A 
ATOM     31  F   UNL d   1      -0.477  -6.238   6.988  0.00  0.00    -0.206 F 
ATOM     32  C   UNL d   1       0.189  -1.689   3.638  0.00  0.00     0.057 C 
ATOM     33  C   UNL d   1       0.750  -0.704   2.588  0.00  0.00     0.112 C 
ENDBRANCH   1  19
TORSDOF 4
