REMARK  9 active torsions:
REMARK  status: ('A' for Active; 'I' for Inactive)
REMARK    1  A    between atoms: C_2  and  C_1 
REMARK    2  A    between atoms: O_10  and  C_3 
REMARK    3  A    between atoms: C_14  and  O_10 
REMARK    4  A    between atoms: C_11  and  C_14 
REMARK    5  A    between atoms: C_13  and  C_11 
REMARK    6  A    between atoms: O_16  and  C_11 
REMARK    7  A    between atoms: N_12  and  C_13 
REMARK    8  A    between atoms: C_18  and  N_12 
REMARK    9  A    between atoms: C_19  and  N_12 
ROOT
ATOM      1  C   UNL d   1       2.648   3.329   1.346  0.00  0.00     0.053 A 
ATOM      2  C   UNL d   1       0.907   2.570   2.807  0.00  0.00     0.142 A 
ATOM      3  N   UNL d   1       0.313   1.851   1.833  0.00  0.00    -0.347 N 
ATOM      4  HN  UNL d   1      -0.529   1.304   2.012  1.00  0.00     0.167 HD
ATOM      5  C   UNL d   1       2.064   3.310   2.618  0.00  0.00     0.072 A 
ATOM      6  C   UNL d   1       0.886   1.887   0.610  0.00  0.00     0.091 A 
ATOM      7  C   UNL d   1       2.038   2.602   0.320  0.00  0.00     0.033 A 
ENDROOT
BRANCH   2   8
ATOM      8  O   UNL d   1       0.368   2.597   4.081  0.00  0.00    -0.333 OA
BRANCH   8   9
ATOM      9  C   UNL d   1      -0.876   1.889   4.182  0.00  0.00     0.210 C 
BRANCH   9  10
ATOM     10  C   UNL d   1      -1.503   2.125   5.570  0.00  0.00     0.170 C 
BRANCH  10  11
ATOM     11  C   UNL d   1      -0.568   1.675   6.724  0.00  0.00     0.306 C 
BRANCH  11  12
ATOM     12  N   UNL d   1      -1.108   1.853   8.097  0.00  0.00     0.090 N 
BRANCH  12  13
ATOM     13  C   UNL d   1      -2.360   1.122   8.343  0.00  0.00     0.268 C 
ATOM     14  C   UNL d   1      -2.287  -0.396   8.211  0.00  0.00     0.037 C 
ENDBRANCH  12  13
BRANCH  12  15
ATOM     15  C   UNL d   1      -0.055   1.593   9.096  0.00  0.00     0.268 C 
ATOM     16  C   UNL d   1      -0.482   1.781  10.548  0.00  0.00     0.037 C 
ENDBRANCH  12  15
ENDBRANCH  11  12
ENDBRANCH  10  11
BRANCH  10  17
ATOM     17  O   UNL d   1      -1.829   3.517   5.696  0.00  0.00    -0.392 OA
ATOM     18  H   UNL d   1      -0.986   3.992   5.798  0.00  0.00     0.210 HD
ENDBRANCH  10  17
ENDBRANCH   9  10
ENDBRANCH   8   9
ENDBRANCH   2   8
BRANCH   1  19
ATOM     19  C   UNL d   1       3.902   4.116   1.075  0.00  0.00     0.417 C 
ATOM     20  F   UNL d   1       4.407   4.737   2.176  0.00  0.00    -0.166 F 
ATOM     21  F   UNL d   1       3.710   5.093   0.148  0.00  0.00    -0.166 F 
ATOM     22  F   UNL d   1       4.909   3.336   0.592  0.00  0.00    -0.166 F 
ENDBRANCH   1  19
TORSDOF 9
