REMARK  4 active torsions:
REMARK  status: ('A' for Active; 'I' for Inactive)
REMARK    1  A    between atoms: C_7  and  C_1 
REMARK    2  A    between atoms: C_6  and  C_7 
REMARK    3  A    between atoms: C_14  and  C_8 
REMARK    4  A    between atoms: C_18  and  C_14 
ROOT
ATOM      1  C   UNL d   1      -0.075   1.236   0.050  0.00  0.00     0.131 A 
ATOM      2  N   UNL d   1      -1.434  -0.697  -0.054  0.00  0.00    -0.305 N 
ATOM      3  HN  UNL d   1      -2.240  -1.318  -0.110  1.00  0.00     0.186 HD
ATOM      4  N   UNL d   1      -0.126  -1.060   0.074  0.00  0.00    -0.270 N 
ATOM      5  C   UNL d   1       0.773  -0.009   0.079  0.00  0.00     0.246 A 
ATOM      6  C   UNL d   1      -1.444   0.604  -0.091  0.00  0.00     0.017 A 
ATOM      7  O   UNL d   1       1.989  -0.089   0.089  0.00  0.00    -0.271 OA
ATOM      8  H   UNL d   1       0.148  -2.034   0.065  0.00  0.00     0.190 HD
ENDROOT
BRANCH   1   9
ATOM      9  C   UNL d   1       0.040   2.065   1.334  0.00  0.00     0.062 C 
BRANCH   9  10
ATOM     10  C   UNL d   1       1.461   2.522   1.619  0.00  0.00    -0.013 A 
ATOM     11  C   UNL d   1       2.082   3.504   0.819  0.00  0.00     0.042 A 
ATOM     12 CL   UNL d   1       1.211   4.389  -0.387  0.00  0.00    -0.084 Cl
ATOM     13  C   UNL d   1       3.440   3.811   0.969  0.00  0.00     0.024 A 
ATOM     14  C   UNL d   1       4.202   3.167   1.938  0.00  0.00     0.003 A 
ATOM     15  C   UNL d   1       3.600   2.235   2.776  0.00  0.00     0.024 A 
ATOM     16  C   UNL d   1       2.245   1.916   2.623  0.00  0.00     0.042 A 
ATOM     17 CL   UNL d   1       1.602   0.735   3.713  0.00  0.00    -0.084 Cl
ENDBRANCH   9  10
ENDBRANCH   1   9
BRANCH   6  18
ATOM     18  C   UNL d   1      -2.705   1.390  -0.296  0.00  0.00     0.054 C 
BRANCH  18  19
ATOM     19  C   UNL d   1      -2.691   2.227  -1.572  0.00  0.00     0.001 C 
ATOM     20  C   UNL d   1      -2.395   1.420  -2.828  0.00  0.00     0.005 C 
ENDBRANCH  18  19
ENDBRANCH   6  18
TORSDOF 4
