REMARK  5 active torsions:
REMARK  status: ('A' for Active; 'I' for Inactive)
REMARK    1  A    between atoms: C_2  and  S_1 
REMARK    2  A    between atoms: C_3  and  S_1 
REMARK    3  A    between atoms: C_8  and  C_3 
REMARK    4  A    between atoms: N_9  and  C_8 
REMARK    5  A    between atoms: C_14  and  N_9 
ROOT
ATOM      1  S   UNL d   1      -1.341  -0.461  -1.343  0.00  0.00     0.177 S 
ATOM      2  O   UNL d   1      -1.740  -1.275  -0.207  0.00  0.00    -0.223 OA
ATOM      3  O   UNL d   1      -1.590   0.967  -1.348  0.00  0.00    -0.223 OA
ENDROOT
BRANCH   1   4
ATOM      4  C   UNL d   1      -2.235  -1.129  -2.738  0.00  0.00     0.059 A 
ATOM      5  C   UNL d   1      -1.641  -2.002  -3.653  0.00  0.00     0.025 A 
ATOM      6  C   UNL d   1      -2.316  -2.336  -4.829  0.00  0.00     0.025 A 
ATOM      7  C   UNL d   1      -3.600  -1.849  -5.058  0.00  0.00     0.034 A 
ATOM      8  C   UNL d   1      -4.229  -1.044  -4.109  0.00  0.00     0.025 A 
ATOM      9 CL   UNL d   1      -4.403  -2.227  -6.531  0.00  0.00    -0.084 Cl
ATOM     10  C   UNL d   1      -3.542  -0.672  -2.950  0.00  0.00     0.025 A 
ENDBRANCH   1   4
BRANCH   1  11
ATOM     11  C   UNL d   1       0.393  -0.702  -1.593  0.00  0.00     0.175 C 
BRANCH  11  12
ATOM     12  C   UNL d   1       1.048   0.205  -2.635  0.00  0.00     0.285 C 
BRANCH  12  13
ATOM     13  N   UNL d   1       0.594  -0.059  -4.001  0.00  0.00     0.088 N 
ATOM     14  H   UNL d   1      -0.370   0.267  -4.083  0.00  0.00     0.316 HD
BRANCH  13  15
ATOM     15  C   UNL d   1       1.337   0.646  -5.063  0.00  0.00     0.220 C 
ATOM     16  C   UNL d   1       0.619   0.370  -6.402  0.00  0.00     0.035 C 
ATOM     17  C   UNL d   1       0.822  -1.055  -6.931  0.00  0.00     0.002 C 
ATOM     18  C   UNL d   1       2.297  -1.438  -6.989  0.00  0.00     0.000 C 
ATOM     19  C   UNL d   1       2.981  -1.217  -5.645  0.00  0.00     0.002 C 
ATOM     20  C   UNL d   1       2.815   0.228  -5.182  0.00  0.00     0.035 C 
ENDBRANCH  13  15
ENDBRANCH  12  13
ENDBRANCH  11  12
ENDBRANCH   1  11
TORSDOF 5
