REMARK  11 active torsions:
REMARK  status: ('A' for Active; 'I' for Inactive)
REMARK    1  A    between atoms: C_3  and  C_1 
REMARK       I    between atoms: N_8  and  C_1 
REMARK       I    between atoms: C_2  and  N_7 
REMARK    2  A    between atoms: C_4  and  C_2 
REMARK    3  A    between atoms: N_7  and  C_19 
REMARK    4  A    between atoms: C_20  and  N_8 
REMARK    5  A    between atoms: C_22  and  C_17 
REMARK    6  A    between atoms: C_21  and  C_18 
REMARK    7  A    between atoms: C_19  and  C_20 
REMARK    8  A    between atoms: C_24  and  C_21 
REMARK    9  A    between atoms: C_23  and  C_22 
REMARK   10  A    between atoms: C_25  and  C_23 
REMARK   11  A    between atoms: C_26  and  C_24 
ROOT
ATOM      1  C   UNL d   1       4.646   0.701   0.742  0.00  0.00     0.142 C 
ENDROOT
BRANCH   1   2
ATOM      2  N   UNL d   1       5.439   1.596   1.570  0.00  0.00    -0.355 N 
ATOM      3  C   UNL d   1       5.393   2.968   1.441  0.00  0.00     0.251 C 
ATOM      4  O   UNL d   1       4.682   3.554   0.633  0.00  0.00    -0.268 OA
ATOM      5  H   UNL d   1       6.232   1.188   2.048  0.00  0.00     0.162 HD
BRANCH   3   6
ATOM      6  C   UNL d   1       6.305   3.728   2.341  0.00  0.00     0.032 A 
ATOM      7  C   UNL d   1       6.823   4.955   1.918  0.00  0.00     0.017 A 
ATOM      8  C   UNL d   1       7.736   5.646   2.723  0.00  0.00     0.008 A 
ATOM      9  C   UNL d   1       8.127   5.123   3.964  0.00  0.00    -0.058 A 
ATOM     10  C   UNL d   1       7.543   3.931   4.412  0.00  0.00     0.008 A 
ATOM     11  C   UNL d   1       6.643   3.234   3.607  0.00  0.00     0.017 A 
BRANCH   9  12
ATOM     12  C   UNL d   1       9.170   5.824   4.803  0.00  0.00     0.038 C 
BRANCH  12  13
ATOM     13  C   UNL d   1      10.396   4.954   5.120  0.00  0.00     0.004 C 
BRANCH  13  14
ATOM     14  C   UNL d   1      11.169   4.516   3.873  0.00  0.00    -0.004 C 
ATOM     15  C   UNL d   1      12.370   3.659   4.244  0.00  0.00     0.005 C 
ENDBRANCH  13  14
ENDBRANCH  12  13
ENDBRANCH   9  12
ENDBRANCH   3   6
ENDBRANCH   1   2
BRANCH   1  16
ATOM     16  C   UNL d   1       3.133   0.851   0.953  0.00  0.00     0.142 C 
BRANCH  16  17
ATOM     17  N   UNL d   1       2.339  -0.054   0.136  0.00  0.00    -0.355 N 
ATOM     18  C   UNL d   1       2.333  -1.419   0.330  0.00  0.00     0.251 C 
ATOM     19  O   UNL d   1       3.051  -1.989   1.147  0.00  0.00    -0.268 OA
ATOM     20  H   UNL d   1       1.847   0.340  -0.655  0.00  0.00     0.162 HD
BRANCH  18  21
ATOM     21  C   UNL d   1       1.413  -2.201  -0.538  0.00  0.00     0.032 A 
ATOM     22  C   UNL d   1       0.163  -1.702  -0.920  0.00  0.00     0.017 A 
ATOM     23  C   UNL d   1      -0.707  -2.495  -1.678  0.00  0.00     0.008 A 
ATOM     24  C   UNL d   1      -0.341  -3.792  -2.065  0.00  0.00    -0.058 A 
ATOM     25  C   UNL d   1       0.926  -4.272  -1.703  0.00  0.00     0.008 A 
ATOM     26  C   UNL d   1       1.790  -3.490  -0.931  0.00  0.00     0.017 A 
BRANCH  24  27
ATOM     27  C   UNL d   1      -1.300  -4.651  -2.858  0.00  0.00     0.038 C 
BRANCH  27  28
ATOM     28  C   UNL d   1      -1.638  -6.001  -2.211  0.00  0.00     0.004 C 
BRANCH  28  29
ATOM     29  C   UNL d   1      -2.346  -5.870  -0.860  0.00  0.00    -0.004 C 
ATOM     30  C   UNL d   1      -2.660  -7.238  -0.273  0.00  0.00     0.005 C 
ENDBRANCH  28  29
ENDBRANCH  27  28
ENDBRANCH  24  27
ENDBRANCH  18  21
ENDBRANCH  16  17
ENDBRANCH   1  16
TORSDOF 11
