REMARK  4 active torsions:
REMARK  status: ('A' for Active; 'I' for Inactive)
REMARK    1  A    between atoms: N_2  and  C_1 
REMARK       I    between atoms: C_3  and  N_6 
REMARK       I    between atoms: N_10  and  C_3 
REMARK    2  A    between atoms: N_8  and  C_4 
REMARK    3  A    between atoms: C_5  and  C_9 
REMARK    4  A    between atoms: C_21  and  N_10 
ROOT
ATOM      1  C   UNL d   1       2.809  -6.155   0.671  0.00  0.00     0.322 C 
ATOM      2  N   UNL d   1       1.569  -5.517   0.674  0.00  0.00    -0.332 N 
ATOM      3  N   UNL d   1       1.098  -2.623   0.098  0.00  0.00    -0.377 N 
ATOM      4  N   UNL d   1       3.259  -6.580   1.904  0.00  0.00    -0.309 N 
ATOM      5  O   UNL d   1       3.416  -6.322  -0.385  0.00  0.00    -0.247 OA
ATOM      6  C   UNL d   1       1.047  -5.042  -0.618  0.00  0.00     0.147 C 
ATOM      7  C   UNL d   1       1.432  -3.591  -0.982  0.00  0.00     0.143 C 
ATOM      8  C   UNL d   1       1.335  -3.676   2.347  0.00  0.00     0.040 C 
ATOM      9  C   UNL d   1       0.837  -5.025   1.838  0.00  0.00     0.129 C 
ATOM     10  C   UNL d   1       1.975  -2.778   1.290  0.00  0.00     0.124 C 
ATOM     11  H   UNL d   1       2.705  -6.337   2.705  0.00  0.00     0.170 HD
ENDROOT
BRANCH   3  12
ATOM     12  C   UNL d   1       0.819  -1.269  -0.168  0.00  0.00     0.063 A 
ATOM     13  C   UNL d   1       1.172  -0.482  -1.279  0.00  0.00     0.130 A 
ATOM     14  C   UNL d   1       0.972   0.917  -1.322  0.00  0.00     0.054 A 
ATOM     15  C   UNL d   1       0.387   1.584  -0.241  0.00  0.00     0.050 A 
ATOM     16  C   UNL d   1      -0.079   0.816   0.827  0.00  0.00     0.018 A 
ATOM     17  C   UNL d   1       0.122  -0.571   0.848  0.00  0.00     0.032 A 
BRANCH  13  18
ATOM     18  N   UNL d   1       1.827  -1.025  -2.447  0.00  0.00    -0.113 N 
ATOM     19  O   UNL d   1       3.041  -1.264  -2.358  0.00  0.00    -0.532 OA
ATOM     20  O   UNL d   1       1.138  -1.147  -3.469  0.00  0.00    -0.532 OA
ENDBRANCH  13  18
BRANCH  15  21
ATOM     21  C   UNL d   1       0.291   3.089  -0.193  0.00  0.00     0.417 C 
ATOM     22  F   UNL d   1       0.829   3.701  -1.284  0.00  0.00    -0.166 F 
ATOM     23  F   UNL d   1      -0.992   3.531  -0.104  0.00  0.00    -0.166 F 
ATOM     24  F   UNL d   1       0.943   3.607   0.883  0.00  0.00    -0.166 F 
ENDBRANCH  15  21
ENDBRANCH   3  12
BRANCH   4  25
ATOM     25  C   UNL d   1       4.369  -7.416   2.174  0.00  0.00     0.036 A 
ATOM     26  C   UNL d   1       5.236  -7.912   1.198  0.00  0.00     0.029 A 
ATOM     27  C   UNL d   1       6.259  -8.805   1.536  0.00  0.00     0.002 A 
ATOM     28  C   UNL d   1       6.433  -9.207   2.857  0.00  0.00     0.000 A 
ATOM     29  C   UNL d   1       5.597  -8.697   3.846  0.00  0.00     0.002 A 
ATOM     30  C   UNL d   1       4.575  -7.803   3.507  0.00  0.00     0.029 A 
ENDBRANCH   4  25
TORSDOF 4
