REMARK  3 active torsions:
REMARK  status: ('A' for Active; 'I' for Inactive)
REMARK    1  A    between atoms: C_12  and  N_8 
REMARK    2  A    between atoms: C_21  and  N_11 
REMARK    3  A    between atoms: C_22  and  C_21 
ROOT
ATOM      1  C   UNL d   1      -0.302  -0.837   0.115  0.00  0.00     0.071 A 
ATOM      2  C   UNL d   1      -0.385  -1.499  -1.056  0.00  0.00     0.121 A 
ATOM      3  N   UNL d   1       0.416  -2.601  -1.272  0.00  0.00    -0.289 N 
ATOM      4  N   UNL d   1       1.468  -2.325   0.829  0.00  0.00    -0.270 N 
ATOM      5  C   UNL d   1       1.376  -3.036  -0.352  0.00  0.00     0.332 A 
ATOM      6  C   UNL d   1       0.662  -1.255   1.147  0.00  0.00     0.262 A 
ATOM      7  N   UNL d   1      -1.330  -1.036  -1.956  0.00  0.00    -0.360 N 
ATOM      8  N   UNL d   1      -2.375   0.545  -0.361  0.00  0.00    -0.388 N 
ATOM      9  C   UNL d   1      -1.236   0.281   0.512  0.00  0.00     0.167 C 
ATOM     10  C   UNL d   1      -2.521  -0.397  -1.444  0.00  0.00     0.243 C 
ATOM     11  O   UNL d   1       2.087  -4.021  -0.573  0.00  0.00    -0.246 OA
ATOM     12  O   UNL d   1       0.695  -0.670   2.229  0.00  0.00    -0.267 OA
ATOM     13  C   UNL d   1       0.291  -3.429  -2.462  0.00  0.00     0.163 C 
ATOM     14  C   UNL d   1       2.421  -2.801   1.813  0.00  0.00     0.164 C 
ATOM     15  H   UNL d   1      -1.510  -1.630  -2.749  0.00  0.00     0.162 HD
ENDROOT
BRANCH   8  16
ATOM     16  C   UNL d   1      -3.551   1.270   0.146  0.00  0.00     0.084 C 
ATOM     17  C   UNL d   1      -3.652   1.511   1.664  0.00  0.00     0.055 C 
ATOM     18  C   UNL d   1      -3.997   0.250   2.462  0.00  0.00     0.275 C 
ATOM     19  N   UNL d   1      -5.054  -0.612   1.925  0.00  0.00     0.092 N 
ATOM     20  C   UNL d   1      -5.272  -0.584   0.475  0.00  0.00     0.275 C 
ATOM     21  C   UNL d   1      -4.933   0.718  -0.245  0.00  0.00     0.055 C 
BRANCH  19  22
ATOM     22  C   UNL d   1      -4.817  -2.006   2.384  0.00  0.00     0.311 C 
BRANCH  22  23
ATOM     23  C   UNL d   1      -5.971  -2.933   2.086  0.00  0.00    -0.030 A 
ATOM     24  C   UNL d   1      -5.809  -4.046   1.248  0.00  0.00     0.009 A 
ATOM     25  C   UNL d   1      -6.907  -4.847   0.928  0.00  0.00     0.001 A 
ATOM     26  C   UNL d   1      -8.166  -4.543   1.447  0.00  0.00     0.000 A 
ATOM     27  C   UNL d   1      -8.329  -3.451   2.298  0.00  0.00     0.001 A 
ATOM     28  C   UNL d   1      -7.235  -2.653   2.620  0.00  0.00     0.009 A 
ENDBRANCH  22  23
ENDBRANCH  19  22
ENDBRANCH   8  16
TORSDOF 3
