REMARK  2 active torsions:
REMARK  status: ('A' for Active; 'I' for Inactive)
REMARK    1  A    between atoms: C_6  and  N_1 
REMARK    2  A    between atoms: N_7  and  C_4 
ROOT
ATOM      1  N   UNL d   1       0.121   0.841   0.103  0.00  0.00    -0.250 N 
ATOM      2  C   UNL d   1      -0.964   0.074   0.485  0.00  0.00     0.265 C 
ATOM      3  C   UNL d   1       1.218   0.045  -0.149  0.00  0.00     0.233 C 
ATOM      4  C   UNL d   1      -0.662  -1.374   0.144  0.00  0.00     0.323 C 
ATOM      5  C   UNL d   1       0.854  -1.389   0.090  0.00  0.00     0.149 C 
ATOM      6  O   UNL d   1      -2.021   0.427   0.987  0.00  0.00    -0.270 OA
ATOM      7  O   UNL d   1       2.362   0.374  -0.438  0.00  0.00    -0.273 OA
ENDROOT
BRANCH   1   8
ATOM      8  C   UNL d   1       0.124   2.266   0.011  0.00  0.00     0.045 A 
ATOM      9  C   UNL d   1      -0.817   3.061   0.685  0.00  0.00     0.037 A 
ATOM     10  C   UNL d   1      -0.817   4.469   0.588  0.00  0.00    -0.054 A 
ATOM     11  C   UNL d   1      -1.816   5.261   1.389  0.00  0.00     0.049 C 
ATOM     12  C   UNL d   1       0.126   5.106  -0.235  0.00  0.00    -0.056 A 
ATOM     13  C   UNL d   1       1.054   4.322  -0.927  0.00  0.00     0.009 A 
ATOM     14  C   UNL d   1       0.173   6.603  -0.374  0.00  0.00     0.049 C 
ATOM     15  C   UNL d   1       1.057   2.930  -0.797  0.00  0.00     0.031 A 
ENDBRANCH   1   8
BRANCH   4  16
ATOM     16  N   UNL d   1      -1.300  -1.889  -1.089  0.00  0.00     0.106 N 
ATOM     17  C   UNL d   1      -0.987  -1.230  -2.370  0.00  0.00     0.299 C 
ATOM     18  C   UNL d   1      -1.877  -0.022  -2.700  0.00  0.00     0.198 C 
ATOM     19  O   UNL d   1      -3.258  -0.395  -2.689  0.00  0.00    -0.388 OA
ATOM     20  C   UNL d   1      -3.636  -0.911  -1.407  0.00  0.00     0.198 C 
ATOM     21  C   UNL d   1      -2.757  -2.105  -0.990  0.00  0.00     0.299 C 
ENDBRANCH   4  16
TORSDOF 2
