REMARK  7 active torsions:
REMARK  status: ('A' for Active; 'I' for Inactive)
REMARK    1  A    between atoms: N_3  and  S_1 
REMARK    2  A    between atoms: C_5  and  S_1 
REMARK    3  A    between atoms: C_2  and  C_7 
REMARK    4  A    between atoms: C_13  and  N_3 
REMARK       I    between atoms: C_4  and  N_6 
REMARK    5  A    between atoms: C_10  and  C_4 
REMARK    6  A    between atoms: N_6  and  C_25 
REMARK    7  A    between atoms: C_11  and  C_12 
ROOT
ATOM      1  C   UNL d   1       0.627   1.500  -0.781  0.00  0.00     0.080 A 
ATOM      2  C   UNL d   1      -0.326   1.400  -1.797  0.00  0.00     0.027 A 
ATOM      3  C   UNL d   1       1.169   2.738  -0.445  0.00  0.00     0.027 A 
ATOM      4  C   UNL d   1      -0.155   3.799  -2.183  0.00  0.00     0.035 A 
ATOM      5  C   UNL d   1       0.778   3.881  -1.147  0.00  0.00     0.031 A 
ATOM      6  C   UNL d   1      -0.694   2.545  -2.512  0.00  0.00     0.031 A 
ENDROOT
BRANCH   1   7
ATOM      7  S   UNL d   1       1.154   0.048   0.092  0.00  0.00     0.263 S 
ATOM      8  O   UNL d   1       1.648   0.462   1.389  0.00  0.00    -0.200 OA
ATOM      9  O   UNL d   1       0.116  -0.957  -0.021  0.00  0.00    -0.200 OA
BRANCH   7  10
ATOM     10  N   UNL d   1       2.515  -0.429  -0.798  0.00  0.00    -0.281 N 
ATOM     11  H   UNL d   1       3.276  -0.693  -0.173  0.00  0.00     0.179 HD
BRANCH  10  12
ATOM     12  C   UNL d   1       2.289  -1.230  -1.950  0.00  0.00     0.043 A 
ATOM     13  C   UNL d   1       1.960  -0.616  -3.157  0.00  0.00     0.046 A 
ATOM     14  C   UNL d   1       1.561  -1.385  -4.261  0.00  0.00     0.050 A 
ATOM     15  C   UNL d   1       1.554  -2.785  -4.141  0.00  0.00     0.016 A 
ATOM     16  C   UNL d   1       1.912  -3.393  -2.940  0.00  0.00     0.003 A 
ATOM     17  C   UNL d   1       2.266  -2.619  -1.839  0.00  0.00     0.030 A 
BRANCH  14  18
ATOM     18  C   UNL d   1       1.101  -0.724  -5.535  0.00  0.00     0.417 C 
ATOM     19  F   UNL d   1       1.119   0.637  -5.480  0.00  0.00    -0.166 F 
ATOM     20  F   UNL d   1       1.857  -1.067  -6.611  0.00  0.00    -0.166 F 
ATOM     21  F   UNL d   1      -0.182  -1.059  -5.854  0.00  0.00    -0.166 F 
ENDBRANCH  14  18
ENDBRANCH  10  12
ENDBRANCH   7  10
ENDBRANCH   1   7
BRANCH   4  22
ATOM     22  N   UNL d   1      -0.623   4.916  -2.910  0.00  0.00    -0.323 N 
ATOM     23  C   UNL d   1      -0.289   6.248  -2.713  0.00  0.00     0.256 C 
ATOM     24  O   UNL d   1       0.525   6.683  -1.904  0.00  0.00    -0.267 OA
ATOM     25  H   UNL d   1      -1.359   4.718  -3.574  0.00  0.00     0.169 HD
BRANCH  23  26
ATOM     26  C   UNL d   1      -1.062   7.230  -3.529  0.00  0.00     0.032 A 
ATOM     27  C   UNL d   1      -1.323   8.496  -2.994  0.00  0.00     0.017 A 
ATOM     28  C   UNL d   1      -2.152   9.398  -3.675  0.00  0.00     0.009 A 
ATOM     29  C   UNL d   1      -2.736   9.063  -4.911  0.00  0.00    -0.051 A 
ATOM     30  C   UNL d   1      -2.387   7.820  -5.468  0.00  0.00     0.009 A 
ATOM     31  C   UNL d   1      -1.560   6.915  -4.793  0.00  0.00     0.017 A 
BRANCH  29  32
ATOM     32  C   UNL d   1      -3.747  10.009  -5.589  0.00  0.00    -0.024 C 
ATOM     33  C   UNL d   1      -4.292   9.450  -6.924  0.00  0.00     0.019 C 
ATOM     34  C   UNL d   1      -4.960  10.225  -4.657  0.00  0.00     0.019 C 
ATOM     35  C   UNL d   1      -3.109  11.381  -5.891  0.00  0.00     0.019 C 
ENDBRANCH  29  32
ENDBRANCH  23  26
ENDBRANCH   4  22
TORSDOF 7
