REMARK  3 active torsions:
REMARK  status: ('A' for Active; 'I' for Inactive)
REMARK       I    between atoms: N_2  and  C_1 
REMARK    1  A    between atoms: C_3  and  C_1 
REMARK    2  A    between atoms: N_4  and  C_17 
REMARK    3  A    between atoms: C_17  and  C_22 
ROOT
ATOM      1  C   UNL d   1       0.872  -0.126   0.205  0.00  0.00     0.253 C 
ATOM      2  N   UNL d   1       0.213  -1.004  -0.656  0.00  0.00    -0.348 N 
ATOM      3  O   UNL d   1       1.868  -0.450   0.853  0.00  0.00    -0.267 OA
ATOM      4  C   UNL d   1       0.624  -2.406  -0.685  0.00  0.00     0.126 C 
ATOM      5  C   UNL d   1      -0.914  -0.700  -1.533  0.00  0.00     0.126 C 
ATOM      6  C   UNL d   1      -2.127  -1.498  -1.061  0.00  0.00     0.026 C 
ATOM      7  C   UNL d   1      -0.544  -3.312  -0.280  0.00  0.00     0.026 C 
ATOM      8  C   UNL d   1      -1.846  -3.016  -1.059  0.00  0.00     0.007 C 
ENDROOT
BRANCH   1   9
ATOM      9  C   UNL d   1       0.407   1.278   0.369  0.00  0.00     0.033 A 
ATOM     10  C   UNL d   1      -0.935   1.606   0.581  0.00  0.00     0.042 A 
ATOM     11  C   UNL d   1      -1.325   2.944   0.700  0.00  0.00     0.056 A 
ATOM     12 CL   UNL d   1      -3.015   3.271   0.851  0.00  0.00    -0.083 Cl
ATOM     13  C   UNL d   1      -0.362   3.959   0.680  0.00  0.00     0.055 A 
ATOM     14  C   UNL d   1       0.989   3.628   0.547  0.00  0.00     0.026 A 
ATOM     15 CL   UNL d   1      -0.774   5.629   0.826  0.00  0.00    -0.083 Cl
ATOM     16  C   UNL d   1       1.372   2.293   0.389  0.00  0.00     0.019 A 
ENDBRANCH   1   9
BRANCH   8  17
ATOM     17  C   UNL d   1      -1.800  -3.622  -2.475  0.00  0.00     0.132 C 
BRANCH  17  18
ATOM     18  N   UNL d   1      -3.021  -3.397  -3.236  0.00  0.00    -0.366 N 
ATOM     19  C   UNL d   1      -3.132  -2.580  -4.332  0.00  0.00     0.090 A 
ATOM     20  C   UNL d   1      -4.452  -2.583  -4.728  0.00  0.00     0.019 A 
ATOM     21  C   UNL d   1      -5.155  -3.441  -3.851  0.00  0.00     0.019 A 
ATOM     22  C   UNL d   1      -4.245  -3.941  -2.946  0.00  0.00     0.090 A 
ENDBRANCH  17  18
ENDBRANCH   8  17
TORSDOF 3
