REMARK  7 active torsions:
REMARK  status: ('A' for Active; 'I' for Inactive)
REMARK    1  A    between atoms: C_8  and  N_1 
REMARK    2  A    between atoms: N_2  and  C_7 
REMARK    3  A    between atoms: N_3  and  O_9 
REMARK    4  A    between atoms: C_10  and  C_5 
REMARK    5  A    between atoms: N_24  and  C_5 
REMARK    6  A    between atoms: C_6  and  C_14 
REMARK    7  A    between atoms: O_9  and  C_6 
ROOT
ATOM      1  N   UNL d   1      -3.374  -0.879  -4.426  0.00  0.00    -0.246 N 
ATOM      2  HN  UNL d   1      -3.203  -1.872  -4.590  1.00  0.00     0.196 HD
ATOM      3  C   UNL d   1      -4.206  -0.177  -5.133  0.00  0.00     0.109 C 
ENDROOT
BRANCH   3   4
ATOM      4  C   UNL d   1      -4.873  -0.855  -6.303  0.00  0.00     0.006 A 
ATOM      5  C   UNL d   1      -5.110  -2.242  -6.297  0.00  0.00     0.044 A 
ATOM      6  C   UNL d   1      -5.677  -2.878  -7.419  0.00  0.00     0.039 A 
ATOM      7  C   UNL d   1      -6.007  -2.099  -8.540  0.00  0.00     0.030 A 
ATOM      8  C   UNL d   1      -5.775  -0.722  -8.544  0.00  0.00     0.003 A 
ATOM      9  C   UNL d   1      -5.209  -0.100  -7.432  0.00  0.00     0.015 A 
BRANCH   6  10
ATOM     10  N   UNL d   1      -5.895  -4.295  -7.437  0.00  0.00    -0.333 N 
ATOM     11  C   UNL d   1      -6.371  -5.048  -8.502  0.00  0.00     0.096 A 
ATOM     12  C   UNL d   1      -6.418  -6.378  -8.143  0.00  0.00     0.019 A 
ATOM     13  C   UNL d   1      -5.974  -6.463  -6.812  0.00  0.00     0.019 A 
ATOM     14  C   UNL d   1      -5.666  -5.184  -6.402  0.00  0.00     0.096 A 
ENDBRANCH   6  10
ENDBRANCH   3   4
BRANCH   3  15
ATOM     15  N   UNL d   1      -4.508   1.141  -4.878  0.00  0.00    -0.286 NA
ATOM     16  H   UNL d   1      -4.240   1.424  -3.943  0.00  0.00     0.125 HD
ATOM     17  H   UNL d   1      -5.458   1.419  -5.106  0.00  0.00     0.125 HD
ENDBRANCH   3  15
BRANCH   1  18
ATOM     18  O   UNL d   1      -2.722  -0.138  -3.404  0.00  0.00    -0.193 OA
BRANCH  18  19
ATOM     19  C   UNL d   1      -1.878  -0.991  -2.738  0.00  0.00     0.315 C 
ATOM     20  O   UNL d   1      -1.797  -2.205  -2.899  0.00  0.00    -0.257 OA
BRANCH  19  21
ATOM     21  C   UNL d   1      -0.995  -0.309  -1.740  0.00  0.00     0.041 A 
ATOM     22  C   UNL d   1      -1.018   1.060  -1.457  0.00  0.00     0.020 A 
ATOM     23  C   UNL d   1      -0.135   1.603  -0.500  0.00  0.00     0.037 A 
ATOM     24  C   UNL d   1       0.773   0.768   0.173  0.00  0.00     0.102 A 
ATOM     25  C   UNL d   1       0.805  -0.599  -0.102  0.00  0.00     0.037 A 
ATOM     26  C   UNL d   1      -0.075  -1.127  -1.052  0.00  0.00     0.020 A 
BRANCH  24  27
ATOM     27  N   UNL d   1       1.699   1.327   1.172  0.00  0.00    -0.116 N 
ATOM     28  O   UNL d   1       2.471   0.544   1.744  0.00  0.00    -0.532 OA
ATOM     29  O   UNL d   1       1.652   2.547   1.382  0.00  0.00    -0.532 OA
ENDBRANCH  24  27
ENDBRANCH  19  21
ENDBRANCH  18  19
ENDBRANCH   1  18
TORSDOF 7
