REMARK  3 active torsions:
REMARK  status: ('A' for Active; 'I' for Inactive)
REMARK    1  A    between atoms: C_7  and  N_1 
REMARK    2  A    between atoms: C_13  and  C_7 
REMARK    3  A    between atoms: O_14  and  C_13 
ROOT
ATOM      1  N   UNL d   1       2.275  -0.157   0.096  0.00  0.00    -0.277 N 
ATOM      2  C   UNL d   1       1.556  -1.348   0.182  0.00  0.00     0.261 A 
ATOM      3  C   UNL d   1       1.705   1.114   0.082  0.00  0.00     0.261 A 
ATOM      4  C   UNL d   1       0.079  -1.248   0.118  0.00  0.00     0.044 A 
ATOM      5  C   UNL d   1       0.228   1.191   0.042  0.00  0.00     0.044 A 
ATOM      6  C   UNL d   1      -0.528   0.012   0.055  0.00  0.00     0.005 A 
ATOM      7  O   UNL d   1       2.090  -2.447   0.317  0.00  0.00    -0.267 OA
ATOM      8  O   UNL d   1       2.363   2.153   0.101  0.00  0.00    -0.267 OA
ATOM      9  C   UNL d   1      -1.940   0.098   0.007  0.00  0.00    -0.024 A 
ATOM     10  C   UNL d   1      -0.400   2.442  -0.019  0.00  0.00     0.018 A 
ATOM     11  C   UNL d   1      -0.695  -2.416   0.122  0.00  0.00     0.018 A 
ATOM     12  C   UNL d   1      -2.084  -2.330   0.071  0.00  0.00     0.002 A 
ATOM     13  C   UNL d   1      -1.789   2.525  -0.064  0.00  0.00     0.002 A 
ATOM     14  C   UNL d   1      -2.554   1.359  -0.050  0.00  0.00     0.012 A 
ATOM     15  C   UNL d   1      -2.703  -1.081   0.017  0.00  0.00     0.012 A 
ENDROOT
BRANCH   1  16
ATOM     16  C   UNL d   1       3.735  -0.238   0.148  0.00  0.00     0.167 C 
BRANCH  16  17
ATOM     17  C   UNL d   1       4.274  -0.144   1.589  0.00  0.00     0.132 C 
ATOM     18  C   UNL d   1       5.795  -0.202   1.604  0.00  0.00     0.041 C 
BRANCH  17  19
ATOM     19  O   UNL d   1       3.785  -1.209   2.410  0.00  0.00    -0.394 OA
ATOM     20  H   UNL d   1       3.612  -1.985   1.842  0.00  0.00     0.210 HD
ENDBRANCH  17  19
ENDBRANCH  16  17
ENDBRANCH   1  16
TORSDOF 3
