REMARK  4 active torsions:
REMARK  status: ('A' for Active; 'I' for Inactive)
REMARK    1  A    between atoms: C_2  and  C_1 
REMARK       I    between atoms: N_4  and  C_1 
REMARK    2  A    between atoms: C_3  and  O_7 
REMARK    3  A    between atoms: C_14  and  N_4 
REMARK    4  A    between atoms: O_7  and  C_15 
ROOT
ATOM      1  C   UNL d   1      -1.094   1.052  -0.522  0.00  0.00     0.035 A 
ATOM      2  C   UNL d   1      -3.901   1.240  -0.450  0.00  0.00     0.076 A 
ATOM      3  C   UNL d   1      -1.786   0.930   0.686  0.00  0.00     0.032 A 
ATOM      4  C   UNL d   1      -1.819   1.354  -1.682  0.00  0.00     0.032 A 
ATOM      5  C   UNL d   1      -3.179   1.045   0.727  0.00  0.00     0.039 A 
ATOM      6  C   UNL d   1      -3.217   1.447  -1.646  0.00  0.00     0.039 A 
ENDROOT
BRANCH   2   7
ATOM      7  O   UNL d   1      -5.276   1.275  -0.501  0.00  0.00    -0.308 OA
BRANCH   7   8
ATOM      8  C   UNL d   1      -6.005   0.371   0.262  0.00  0.00     0.103 A 
ATOM      9  C   UNL d   1      -7.260   0.800   0.722  0.00  0.00     0.076 A 
ATOM     10  N   UNL d   1      -7.746   2.030   0.426  0.00  0.00    -0.363 N 
ATOM     11  C   UNL d   1      -8.011  -0.106   1.508  0.00  0.00    -0.007 A 
ATOM     12  C   UNL d   1      -8.969   2.375   0.884  0.00  0.00     0.088 A 
ATOM     13  HN  UNL d   1      -7.198   2.683  -0.133  1.00  0.00     0.165 HD
ATOM     14  C   UNL d   1      -9.761   1.552   1.657  0.00  0.00     0.018 A 
ATOM     15  C   UNL d   1      -9.269   0.295   1.977  0.00  0.00     0.015 A 
ATOM     16  C   UNL d   1      -7.514  -1.385   1.808  0.00  0.00     0.014 A 
ATOM     17  C   UNL d   1      -6.289  -1.802   1.300  0.00  0.00     0.004 A 
ATOM     18  C   UNL d   1      -5.546  -0.935   0.508  0.00  0.00     0.040 A 
ENDBRANCH   7   8
ENDBRANCH   2   7
BRANCH   1  19
ATOM     19  N   UNL d   1       0.298   0.863  -0.652  0.00  0.00    -0.323 N 
ATOM     20  C   UNL d   1       1.190   0.451   0.329  0.00  0.00     0.263 C 
ATOM     21  O   UNL d   1       0.887   0.263   1.504  0.00  0.00    -0.267 OA
ATOM     22  H   UNL d   1       0.689   0.968  -1.580  0.00  0.00     0.169 HD
BRANCH  20  23
ATOM     23  C   UNL d   1       2.561   0.220  -0.125  0.00  0.00     0.072 A 
ATOM     24  S   UNL d   1       3.066   0.446  -1.746  0.00  0.00    -0.097 SA
ATOM     25  C   UNL d   1       4.668  -0.041  -1.389  0.00  0.00     0.050 A 
ATOM     26  C   UNL d   1       4.826  -0.368  -0.061  0.00  0.00     0.009 A 
ATOM     27  C   UNL d   1       3.612  -0.218   0.665  0.00  0.00     0.025 A 
ENDBRANCH  20  23
ENDBRANCH   1  19
TORSDOF 4
