REMARK  6 active torsions:
REMARK  status: ('A' for Active; 'I' for Inactive)
REMARK    1  A    between atoms: N_13  and  C_2 
REMARK    2  A    between atoms: C_6  and  C_3 
REMARK    3  A    between atoms: N_9  and  C_8 
REMARK    4  A    between atoms: C_20  and  N_13 
REMARK    5  A    between atoms: C_18  and  C_19 
REMARK    6  A    between atoms: C_19  and  C_20 
ROOT
ATOM      1  C   UNL d   1       0.236  -1.307   0.372  0.00  0.00     0.074 C 
ATOM      2  C   UNL d   1      -1.103  -1.334   0.262  0.00  0.00     0.009 C 
ATOM      3  C   UNL d   1      -1.093   1.156  -0.376  0.00  0.00     0.031 C 
ATOM      4  C   UNL d   1       0.979  -0.027   0.446  0.00  0.00     0.151 C 
ATOM      5  C   UNL d   1      -1.899  -0.044   0.172  0.00  0.00     0.066 C 
ATOM      6  C   UNL d   1       0.200   1.269   0.441  0.00  0.00     0.092 C 
ATOM      7  O   UNL d   1       2.202  -0.045   0.577  0.00  0.00    -0.293 OA
ENDROOT
BRANCH   2   8
ATOM      8  N   UNL d   1      -1.831  -2.513   0.165  0.00  0.00    -0.393 N 
ATOM      9  H   UNL d   1      -2.782  -2.374  -0.177  0.00  0.00     0.159 HD
BRANCH   8  10
ATOM     10  C   UNL d   1      -1.764  -3.606   1.143  0.00  0.00     0.125 C 
BRANCH  10  11
ATOM     11  C   UNL d   1      -2.825  -3.403   2.227  0.00  0.00     0.076 C 
BRANCH  11  12
ATOM     12  C   UNL d   1      -2.800  -4.509   3.245  0.00  0.00     0.010 A 
ATOM     13  N   UNL d   1      -3.551  -5.604   2.980  0.00  0.00    -0.369 N 
ATOM     14  C   UNL d   1      -3.536  -6.603   3.890  0.00  0.00     0.088 A 
ATOM     15  HN  UNL d   1      -4.107  -5.672   2.127  1.00  0.00     0.165 HD
ATOM     16  C   UNL d   1      -2.796  -6.567   5.059  0.00  0.00     0.017 A 
ATOM     17  C   UNL d   1      -2.024  -5.441   5.312  0.00  0.00     0.003 A 
ATOM     18  C   UNL d   1      -2.021  -4.395   4.394  0.00  0.00     0.025 A 
ENDBRANCH  11  12
ENDBRANCH  10  11
ENDBRANCH   8  10
ENDBRANCH   2   8
BRANCH   3  19
ATOM     19  C   UNL d   1      -0.935   1.113  -1.896  0.00  0.00    -0.053 A 
ATOM     20  C   UNL d   1       0.294   1.200  -2.550  0.00  0.00     0.010 A 
ATOM     21  C   UNL d   1       0.381   1.112  -3.953  0.00  0.00     0.030 A 
ATOM     22  C   UNL d   1      -0.744   0.931  -4.770  0.00  0.00     0.029 A 
ATOM     23  C   UNL d   1      -1.973   0.893  -4.101  0.00  0.00     0.030 A 
ATOM     24  C   UNL d   1      -2.074   1.001  -2.705  0.00  0.00     0.010 A 
BRANCH  22  25
ATOM     25  N   UNL d   1      -0.653   0.728  -6.144  0.00  0.00    -0.390 N 
ATOM     26  C   UNL d   1      -1.695   1.229  -7.039  0.00  0.00     0.149 C 
ATOM     27  C   UNL d   1       0.645   0.531  -6.784  0.00  0.00     0.149 C 
ENDBRANCH  22  25
ENDBRANCH   3  19
TORSDOF 6
