REMARK  2 active torsions:
REMARK  status: ('A' for Active; 'I' for Inactive)
REMARK    1  A    between atoms: C_4  and  C_5 
REMARK    2  A    between atoms: C_14  and  C_10 
ROOT
ATOM      1  N   UNL d   1      -1.266   1.383  -0.043  0.00  0.00    -0.352 N 
ATOM      2  HN  UNL d   1      -1.301   2.402  -0.070  1.00  0.00     0.166 HD
ATOM      3  C   UNL d   1      -0.077   0.731  -0.036  0.00  0.00     0.077 A 
ATOM      4  C   UNL d   1       2.398  -0.662  -0.010  0.00  0.00     0.051 A 
ATOM      5  C   UNL d   1      -0.044  -0.683  -0.017  0.00  0.00     0.061 A 
ATOM      6  C   UNL d   1       1.149   1.409  -0.039  0.00  0.00     0.040 A 
ATOM      7  N   UNL d   1      -1.168  -1.417  -0.008  0.00  0.00    -0.362 N 
ATOM      8  HN  UNL d   1      -1.143  -2.436  -0.003  1.00  0.00     0.165 HD
ATOM      9  C   UNL d   1      -2.408   0.652  -0.014  0.00  0.00     0.058 A 
ATOM     10  C   UNL d   1       2.373   0.733  -0.026  0.00  0.00     0.037 A 
ATOM     11  C   UNL d   1       1.176  -1.349  -0.005  0.00  0.00     0.048 A 
ATOM     12  C   UNL d   1      -2.337  -0.732  -0.006  0.00  0.00     0.118 A 
ATOM     13 BR   UNL d   1       1.202   3.312  -0.053  0.00  0.00    -0.049 Br
ENDROOT
BRANCH   9  14
ATOM     14  C   UNL d   1      -3.667   1.417   0.033  0.00  0.00    -0.008 A 
ATOM     15  C   UNL d   1      -3.761   2.682  -0.584  0.00  0.00     0.017 A 
ATOM     16  C   UNL d   1      -4.935   3.438  -0.520  0.00  0.00     0.043 A 
ATOM     17  C   UNL d   1      -6.029   2.941   0.172  0.00  0.00     0.116 A 
ATOM     18  C   UNL d   1      -5.975   1.700   0.791  0.00  0.00     0.043 A 
ATOM     19  F   UNL d   1      -7.150   3.670   0.252  0.00  0.00    -0.206 F 
ATOM     20  C   UNL d   1      -4.802   0.942   0.719  0.00  0.00     0.017 A 
ENDBRANCH   9  14
BRANCH   4  21
ATOM     21  C   UNL d   1       3.696  -1.430   0.003  0.00  0.00     0.417 C 
ATOM     22  F   UNL d   1       4.797  -0.631  -0.009  0.00  0.00    -0.166 F 
ATOM     23  F   UNL d   1       3.818  -2.222   1.102  0.00  0.00    -0.166 F 
ATOM     24  F   UNL d   1       3.819  -2.254  -1.073  0.00  0.00    -0.166 F 
ENDBRANCH   4  21
TORSDOF 2
