REMARK  4 active torsions:
REMARK  status: ('A' for Active; 'I' for Inactive)
REMARK    1  A    between atoms: C_3  and  C_1 
REMARK    2  A    between atoms: C_7  and  C_1 
REMARK    3  A    between atoms: C_12  and  C_2 
REMARK    4  A    between atoms: N_4  and  C_3 
ROOT
ATOM      1  C   UNL d   1       1.045   0.051   0.073  0.00  0.00     0.054 C 
ATOM      2  C   UNL d   1       0.395  -1.133   0.095  0.00  0.00     0.035 C 
ENDROOT
BRANCH   1   3
ATOM      3  C   UNL d   1       2.565   0.051   0.073  0.00  0.00    -0.035 C 
BRANCH   3   4
ATOM      4  N   UNL d   1       3.826   0.051   0.073  0.00  0.00    -0.365 N 
ATOM      5  HN2 UNL d   1       2.806   0.051   0.073  1.00  0.00     0.165 HD
ATOM      6  HN1 UNL d   1       4.846   0.051   0.073  1.00  0.00     0.165 HD
ENDBRANCH   3   4
ENDBRANCH   1   3
BRANCH   1   7
ATOM      7  C   UNL d   1       0.334   1.353   0.073  0.00  0.00     0.051 A 
ATOM      8  N   UNL d   1      -1.024   1.302   0.098  0.00  0.00    -0.365 N 
ATOM      9  C   UNL d   1      -1.702   2.472   0.110  0.00  0.00     0.088 A 
ATOM     10  HN  UNL d   1      -1.516   0.409   0.107  1.00  0.00     0.165 HD
ATOM     11  C   UNL d   1      -1.097   3.715   0.099  0.00  0.00     0.017 A 
ATOM     12  C   UNL d   1       0.289   3.763   0.071  0.00  0.00     0.004 A 
ATOM     13  C   UNL d   1       1.014   2.572   0.058  0.00  0.00     0.031 A 
ENDBRANCH   1   7
BRANCH   2  14
ATOM     14  C   UNL d   1       1.074  -2.436   0.111  0.00  0.00    -0.032 A 
ATOM     15  C   UNL d   1       1.432  -3.034   1.318  0.00  0.00     0.028 A 
ATOM     16  C   UNL d   1       2.118  -4.237   1.277  0.00  0.00     0.088 A 
ATOM     17  N   UNL d   1       2.458  -4.870   0.134  0.00  0.00    -0.375 N 
ATOM     18  C   UNL d   1       2.103  -4.268  -1.021  0.00  0.00     0.088 A 
ATOM     19  HN  UNL d   1       2.958  -5.759   0.142  1.00  0.00     0.164 HD
ATOM     20  C   UNL d   1       1.418  -3.066  -1.086  0.00  0.00     0.028 A 
ENDBRANCH   2  14
TORSDOF 4
