REMARK  5 active torsions:
REMARK  status: ('A' for Active; 'I' for Inactive)
REMARK    1  A    between atoms: C_6  and  N_1 
REMARK    2  A    between atoms: C_8  and  C_2 
REMARK       I    between atoms: C_3  and  N_12 
REMARK    3  A    between atoms: C_9  and  C_3 
REMARK    4  A    between atoms: N_12  and  N_4 
REMARK    5  A    between atoms: O_25  and  C_19 
ROOT
ATOM      1  N   UNL d   1       2.107  -2.866  -0.080  0.00  0.00    -0.307 N 
ATOM      2  HN  UNL d   1       1.182  -3.295  -0.080  1.00  0.00     0.186 HD
ATOM      3  C   UNL d   1       2.240  -1.577  -0.056  0.00  0.00     0.137 C 
ENDROOT
BRANCH   1   4
ATOM      4  N   UNL d   1       3.244  -3.645  -0.104  0.00  0.00    -0.266 N 
ATOM      5  C   UNL d   1       4.474  -3.271  -0.637  0.00  0.00     0.270 C 
ATOM      6  O   UNL d   1       4.693  -2.194  -1.189  0.00  0.00    -0.266 OA
ATOM      7  H   UNL d   1       3.044  -4.623   0.058  0.00  0.00     0.190 HD
BRANCH   5   8
ATOM      8  C   UNL d   1       5.598  -4.256  -0.527  0.00  0.00     0.033 A 
ATOM      9  C   UNL d   1       5.484  -5.526   0.055  0.00  0.00     0.020 A 
ATOM     10  C   UNL d   1       6.601  -6.372   0.144  0.00  0.00     0.038 A 
ATOM     11  C   UNL d   1       7.844  -5.955  -0.333  0.00  0.00     0.068 A 
ATOM     12  C   UNL d   1       7.959  -4.700  -0.927  0.00  0.00     0.038 A 
ATOM     13  C   UNL d   1       6.851  -3.856  -1.018  0.00  0.00     0.020 A 
BRANCH  11  14
ATOM     14  O   UNL d   1       8.998  -6.685  -0.299  0.00  0.00    -0.356 OA
ATOM     15  C   UNL d   1       9.067  -7.700   0.696  0.00  0.00     0.210 C 
ENDBRANCH  11  14
ENDBRANCH   5   8
ENDBRANCH   1   4
BRANCH   3  16
ATOM     16  C   UNL d   1       1.081  -0.717  -0.067  0.00  0.00     0.056 C 
ATOM     17  N   UNL d   1       1.056   0.602  -0.516  0.00  0.00    -0.321 N 
ATOM     18  C   UNL d   1      -0.141   1.161  -0.098  0.00  0.00     0.097 C 
ATOM     19  C   UNL d   1      -0.939   0.173   0.428  0.00  0.00     0.020 C 
ATOM     20  C   UNL d   1      -0.181  -1.012   0.427  0.00  0.00     0.033 C 
BRANCH  17  21
ATOM     21  C   UNL d   1       2.014   1.275  -1.336  0.00  0.00     0.039 A 
ATOM     22  C   UNL d   1       2.793   0.557  -2.255  0.00  0.00     0.031 A 
ATOM     23  C   UNL d   1       3.644   1.232  -3.137  0.00  0.00     0.026 A 
ATOM     24  C   UNL d   1       3.725   2.621  -3.099  0.00  0.00     0.034 A 
ATOM     25  C   UNL d   1       2.975   3.343  -2.175  0.00  0.00     0.026 A 
ATOM     26 CL   UNL d   1       4.738   3.450  -4.215  0.00  0.00    -0.084 Cl
ATOM     27  C   UNL d   1       2.116   2.674  -1.297  0.00  0.00     0.031 A 
ENDBRANCH  17  21
ENDBRANCH   3  16
TORSDOF 5
