REMARK  5 active torsions:
REMARK  status: ('A' for Active; 'I' for Inactive)
REMARK    1  A    between atoms: N_4  and  C_1 
REMARK       I    between atoms: C_5  and  N_4 
REMARK    2  A    between atoms: C_8  and  C_5 
REMARK    3  A    between atoms: C_7  and  C_6 
REMARK    4  A    between atoms: C_15  and  C_11 
REMARK    5  A    between atoms: O_23  and  C_15 
ROOT
ATOM      1  C   UNL d   1       0.111  -1.179   0.025  0.00  0.00     0.153 A 
ATOM      2  N   UNL d   1       1.280  -0.606   0.234  0.00  0.00    -0.335 N 
ATOM      3  HN  UNL d   1       2.156  -1.110   0.377  1.00  0.00     0.168 HD
ATOM      4  C   UNL d   1       1.157   0.775   0.234  0.00  0.00     0.058 A 
ATOM      5  S   UNL d   1      -1.158  -0.079  -0.321  0.00  0.00    -0.063 SA
ATOM      6  C   UNL d   1      -0.105   1.240  -0.064  0.00  0.00     0.084 A 
ENDROOT
BRANCH   1   7
ATOM      7  N   UNL d   1      -0.070  -2.572   0.003  0.00  0.00    -0.302 N 
ATOM      8  C   UNL d   1      -1.351  -3.155   0.106  0.00  0.00     0.230 C 
ATOM      9  O   UNL d   1      -2.402  -2.518   0.260  0.00  0.00    -0.273 OA
ATOM     10  C   UNL d   1       1.124  -3.417  -0.036  0.00  0.00     0.161 C 
BRANCH   8  11
ATOM     11  C   UNL d   1      -1.459  -4.706   0.040  0.00  0.00     0.092 C 
ATOM     12  C   UNL d   1      -2.471  -5.261  -1.024  0.00  0.00     0.096 C 
ATOM     13  C   UNL d   1      -2.750  -6.407  -0.019  0.00  0.00     0.017 C 
ATOM     14  C   UNL d   1      -2.345  -5.423   1.099  0.00  0.00     0.016 C 
BRANCH  12  15
ATOM     15  C   UNL d   1      -1.871  -5.614  -2.402  0.00  0.00     0.144 C 
ATOM     16  O   UNL d   1      -0.709  -5.953  -2.603  0.00  0.00    -0.650 OA
BRANCH  15  17
ATOM     17  O   UNL d   1      -2.745  -5.494  -3.436  0.00  0.00    -0.776 OA
ATOM     18  H   UNL d   1      -3.635  -5.199  -3.163  0.00  0.00     0.167 HD
ENDBRANCH  15  17
ENDBRANCH  12  15
ENDBRANCH   8  11
ENDBRANCH   1   7
BRANCH   4  19
ATOM     19  C   UNL d   1       2.323   1.663   0.552  0.00  0.00     0.033 A 
ATOM     20  S   UNL d   1       2.249   3.371   0.668  0.00  0.00    -0.076 SA
ATOM     21  C   UNL d   1       3.885   3.464   1.080  0.00  0.00     0.075 A 
ATOM     22 CL   UNL d   1       4.596   4.993   1.404  0.00  0.00    -0.076 Cl
ATOM     23  C   UNL d   1       4.510   2.245   1.116  0.00  0.00     0.033 A 
ATOM     24  C   UNL d   1       3.597   1.190   0.808  0.00  0.00     0.023 A 
ENDBRANCH   4  19
TORSDOF 5
