REMARK  3 active torsions:
REMARK  status: ('A' for Active; 'I' for Inactive)
REMARK    1  A    between atoms: C_5  and  C_3 
REMARK    2  A    between atoms: O_7  and  C_3 
REMARK    3  A    between atoms: C_8  and  O_7 
ROOT
ATOM      1  C   UNL d   1       0.601   0.490   0.752  0.00  0.00     0.155 C 
ATOM      2  C   UNL d   1       0.554  -0.989   0.522  0.00  0.00    -0.020 C 
ATOM      3  C   UNL d   1      -0.630  -1.573   0.276  0.00  0.00    -0.016 C 
ATOM      4  C   UNL d   1      -1.732   0.633  -0.291  0.00  0.00     0.031 C 
ATOM      5  C   UNL d   1      -0.680   1.295   0.614  0.00  0.00     0.091 C 
ATOM      6  C   UNL d   1      -1.922  -0.827   0.151  0.00  0.00     0.035 C 
ATOM      7  O   UNL d   1       1.650   1.035   1.084  0.00  0.00    -0.293 OA
ATOM      8  C   UNL d   1       1.837  -1.755   0.523  0.00  0.00     0.052 C 
ENDROOT
BRANCH   4   9
ATOM      9  C   UNL d   1      -1.483   0.863  -1.830  0.00  0.00     0.068 C 
ATOM     10  C   UNL d   1      -0.110   0.389  -2.340  0.00  0.00     0.047 C 
ATOM     11  C   UNL d   1      -2.540   0.168  -2.711  0.00  0.00     0.047 C 
BRANCH   9  12
ATOM     12  O   UNL d   1      -1.452   2.297  -2.119  0.00  0.00    -0.311 OA
BRANCH  12  13
ATOM     13  C   UNL d   1      -2.551   3.082  -1.981  0.00  0.00     0.255 C 
ATOM     14  O   UNL d   1      -3.653   2.717  -1.601  0.00  0.00    -0.266 OA
ATOM     15  C   UNL d   1      -2.213   4.505  -2.310  0.00  0.00     0.126 C 
ENDBRANCH  12  13
ENDBRANCH   9  12
ENDBRANCH   4   9
TORSDOF 3
