REMARK  5 active torsions:
REMARK  status: ('A' for Active; 'I' for Inactive)
REMARK    1  A    between atoms: C_13  and  C_3 
REMARK    2  A    between atoms: N_9  and  C_4 
REMARK    3  A    between atoms: C_15  and  N_9 
REMARK    4  A    between atoms: C_16  and  N_10 
REMARK    5  A    between atoms: C_21  and  C_16 
ROOT
ATOM      1  C   UNL d   1       1.364  -2.138  -0.925  0.00  0.00     0.070 A 
ATOM      2  S   UNL d   1       1.152  -1.234  -2.375  0.00  0.00    -0.088 SA
ATOM      3  C   UNL d   1       2.838  -0.907  -2.549  0.00  0.00    -0.007 A 
ATOM      4  C   UNL d   1       0.415  -2.777  -0.106  0.00  0.00     0.101 A 
ATOM      5  C   UNL d   1       3.541  -1.506  -1.519  0.00  0.00     0.046 A 
ATOM      6  C   UNL d   1       2.715  -2.207  -0.592  0.00  0.00     0.054 A 
ATOM      7  N   UNL d   1       0.890  -3.443   0.974  0.00  0.00    -0.342 N 
ATOM      8  HN  UNL d   1       0.251  -3.936   1.597  1.00  0.00     0.167 HD
ATOM      9  N   UNL d   1       3.171  -2.869   0.497  0.00  0.00    -0.351 N 
ATOM     10  HN  UNL d   1       4.159  -2.920   0.745  1.00  0.00     0.166 HD
ATOM     11  C   UNL d   1       2.209  -3.447   1.217  0.00  0.00     0.182 A 
ENDROOT
BRANCH   4  12
ATOM     12  N   UNL d   1      -0.970  -2.740  -0.359  0.00  0.00    -0.273 NA
ATOM     13  H   UNL d   1      -1.125  -2.449  -1.320  0.00  0.00     0.129 HD
BRANCH  12  14
ATOM     14  C   UNL d   1      -1.725  -3.942   0.049  0.00  0.00     0.065 C 
ATOM     15  C   UNL d   1      -2.951  -4.144  -0.854  0.00  0.00     0.050 C 
ATOM     16  C   UNL d   1      -4.150  -3.273  -0.475  0.00  0.00     0.274 C 
ATOM     17  N   UNL d   1      -4.516  -3.404   0.946  0.00  0.00     0.092 N 
ATOM     18  C   UNL d   1      -3.369  -3.007   1.780  0.00  0.00     0.274 C 
ATOM     19  C   UNL d   1      -2.152  -3.896   1.520  0.00  0.00     0.050 C 
BRANCH  17  20
ATOM     20  C   UNL d   1      -5.703  -2.559   1.214  0.00  0.00     0.311 C 
BRANCH  20  21
ATOM     21  C   UNL d   1      -6.217  -2.587   2.640  0.00  0.00    -0.030 A 
ATOM     22  C   UNL d   1      -6.213  -1.415   3.414  0.00  0.00     0.009 A 
ATOM     23  C   UNL d   1      -6.699  -1.422   4.723  0.00  0.00     0.001 A 
ATOM     24  C   UNL d   1      -7.200  -2.599   5.274  0.00  0.00     0.000 A 
ATOM     25  C   UNL d   1      -7.216  -3.769   4.516  0.00  0.00     0.001 A 
ATOM     26  C   UNL d   1      -6.727  -3.765   3.206  0.00  0.00     0.009 A 
ENDBRANCH  20  21
ENDBRANCH  17  20
ENDBRANCH  12  14
ENDBRANCH   4  12
BRANCH   3  27
ATOM     27  C   UNL d   1       3.370  -0.055  -3.713  0.00  0.00    -0.018 C 
ATOM     28  C   UNL d   1       2.740   1.352  -3.680  0.00  0.00     0.020 C 
ATOM     29  C   UNL d   1       4.904   0.124  -3.625  0.00  0.00     0.020 C 
ATOM     30  C   UNL d   1       3.062  -0.727  -5.066  0.00  0.00     0.020 C 
ENDBRANCH   3  27
TORSDOF 5
