REMARK  4 active torsions:
REMARK  status: ('A' for Active; 'I' for Inactive)
REMARK    1  A    between atoms: O_7  and  N_1 
REMARK    2  A    between atoms: C_12  and  C_2 
REMARK    3  A    between atoms: C_9  and  O_7 
REMARK    4  A    between atoms: C_11  and  C_9 
ROOT
ATOM      1  N   UNL d   1       2.526  -0.622  -0.313  0.00  0.00    -0.157 N 
ATOM      2  C   UNL d   1       2.526   0.744  -0.518  0.00  0.00     0.148 C 
ATOM      3  C   UNL d   1       1.378  -1.357  -0.028  0.00  0.00     0.286 C 
ATOM      4  N   UNL d   1       1.408   1.415  -0.551  0.00  0.00    -0.339 N 
ATOM      5  HN  UNL d   1       1.420   2.423  -0.705  1.00  0.00     0.167 HD
ATOM      6  C   UNL d   1       0.115  -0.627  -0.156  0.00  0.00     0.061 A 
ATOM      7  C   UNL d   1       0.190   0.745  -0.375  0.00  0.00     0.049 A 
ATOM      8  O   UNL d   1       1.357  -2.520   0.372  0.00  0.00    -0.265 OA
ATOM      9  C   UNL d   1      -1.113  -1.281  -0.003  0.00  0.00     0.019 A 
ATOM     10  C   UNL d   1      -0.999   1.476  -0.408  0.00  0.00     0.030 A 
ATOM     11  C   UNL d   1      -2.292  -0.542  -0.051  0.00  0.00     0.001 A 
ATOM     12  C   UNL d   1      -2.233   0.838  -0.243  0.00  0.00     0.002 A 
ENDROOT
BRANCH   1  13
ATOM     13  O   UNL d   1       3.695  -1.335   0.025  0.00  0.00    -0.183 OA
BRANCH  13  14
ATOM     14  C   UNL d   1       3.955  -2.356  -0.843  0.00  0.00     0.315 C 
ATOM     15  O   UNL d   1       3.827  -2.307  -2.054  0.00  0.00    -0.257 OA
BRANCH  14  16
ATOM     16  C   UNL d   1       4.356  -3.577  -0.080  0.00  0.00     0.041 A 
ATOM     17  C   UNL d   1       4.915  -4.659  -0.775  0.00  0.00     0.021 A 
ATOM     18  C   UNL d   1       5.185  -5.859  -0.106  0.00  0.00     0.043 A 
ATOM     19  C   UNL d   1       4.886  -5.979   1.248  0.00  0.00     0.116 A 
ATOM     20  C   UNL d   1       4.335  -4.918   1.953  0.00  0.00     0.043 A 
ATOM     21  F   UNL d   1       5.117  -7.139   1.877  0.00  0.00    -0.206 F 
ATOM     22  C   UNL d   1       4.075  -3.715   1.293  0.00  0.00     0.021 A 
ENDBRANCH  14  16
ENDBRANCH  13  14
ENDBRANCH   1  13
BRANCH   2  23
ATOM     23  C   UNL d   1       3.789   1.527  -0.742  0.00  0.00     0.010 A 
ATOM     24  C   UNL d   1       3.677   2.702  -1.514  0.00  0.00     0.015 A 
ATOM     25  C   UNL d   1       4.775   3.536  -1.736  0.00  0.00     0.001 A 
ATOM     26  C   UNL d   1       6.010   3.208  -1.191  0.00  0.00     0.000 A 
ATOM     27  C   UNL d   1       6.138   2.055  -0.418  0.00  0.00     0.001 A 
ATOM     28  C   UNL d   1       5.033   1.222  -0.183  0.00  0.00     0.015 A 
ENDBRANCH   2  23
TORSDOF 4
