REMARK  4 active torsions:
REMARK  status: ('A' for Active; 'I' for Inactive)
REMARK    1  A    between atoms: C_11  and  C_1 
REMARK    2  A    between atoms: C_12  and  C_1 
REMARK    3  A    between atoms: N_6  and  N_2 
REMARK    4  A    between atoms: C_4  and  N_6 
ROOT
ATOM      1  N   UNL d   1       1.027  -1.732   1.460  0.00  0.00    -0.297 N 
ATOM      2  H   UNL d   1       1.810  -1.288   1.960  0.00  0.00     0.187 HD
ENDROOT
BRANCH   1   3
ATOM      3  C   UNL d   1       0.247  -2.597   2.263  0.00  0.00     0.089 A 
ATOM      4  C   UNL d   1       0.696  -2.922   3.551  0.00  0.00     0.077 A 
ATOM      5  C   UNL d   1      -0.036  -3.796   4.355  0.00  0.00     0.136 A 
ATOM      6  F   UNL d   1       0.420  -4.065   5.587  0.00  0.00    -0.205 F 
ATOM      7  C   UNL d   1      -1.211  -4.381   3.890  0.00  0.00     0.052 A 
ATOM      8  C   UNL d   1      -1.665  -4.090   2.608  0.00  0.00     0.067 A 
ATOM      9 BR   UNL d   1      -2.190  -5.579   4.974  0.00  0.00    -0.048 Br
ATOM     10  C   UNL d   1      -0.937  -3.209   1.808  0.00  0.00     0.145 A 
ATOM     11  F   UNL d   1      -1.396  -2.985   0.565  0.00  0.00    -0.204 F 
ENDBRANCH   1   3
BRANCH   1  12
ATOM     12  N   UNL d   1       0.355  -0.966   0.558  0.00  0.00    -0.294 N 
ATOM     13  C   UNL d   1       1.025  -0.073  -0.118  0.00  0.00     0.139 C 
ATOM     14  HN  UNL d   1      -0.648  -1.088   0.414  1.00  0.00     0.187 HD
BRANCH  13  15
ATOM     15  C   UNL d   1       0.221   0.788  -1.066  0.00  0.00     0.177 C 
ATOM     16  O   UNL d   1       0.661   1.896  -1.357  0.00  0.00    -0.291 OA
ATOM     17  C   UNL d   1      -1.074   0.249  -1.599  0.00  0.00     0.098 C 
ENDBRANCH  13  15
BRANCH  13  18
ATOM     18  C   UNL d   1       2.523   0.125   0.041  0.00  0.00     0.177 C 
ATOM     19  O   UNL d   1       3.025   0.041   1.159  0.00  0.00    -0.291 OA
ATOM     20  C   UNL d   1       3.334   0.334  -1.206  0.00  0.00     0.098 C 
ENDBRANCH  13  18
ENDBRANCH   1  12
TORSDOF 4
