REMARK  5 active torsions:
REMARK  status: ('A' for Active; 'I' for Inactive)
REMARK    1  A    between atoms: C_13  and  C_1 
REMARK    2  A    between atoms: C_4  and  C_19 
REMARK       I    between atoms: N_5  and  C_4 
REMARK    3  A    between atoms: C_8  and  N_5 
REMARK    4  A    between atoms: S_12  and  C_13 
REMARK    5  A    between atoms: C_19  and  S_12 
ROOT
ATOM      1  C   UNL d   1      -2.919   5.141  -0.167  0.00  0.00     0.231 C 
ATOM      2  N   UNL d   1      -3.968   4.245  -0.290  0.00  0.00    -0.326 N 
ATOM      3  O   UNL d   1      -3.036   6.360  -0.046  0.00  0.00    -0.272 OA
ATOM      4  H   UNL d   1      -3.702   3.262  -0.312  0.00  0.00     0.169 HD
ENDROOT
BRANCH   1   5
ATOM      5  C   UNL d   1      -1.533   4.508  -0.063  0.00  0.00     0.177 C 
BRANCH   5   6
ATOM      6  S   UNL d   1      -1.344   3.081  -1.176  0.00  0.00    -0.155 SA
BRANCH   6   7
ATOM      7  C   UNL d   1       0.432   2.724  -0.951  0.00  0.00     0.116 C 
BRANCH   7   8
ATOM      8  C   UNL d   1       0.961   2.513   0.456  0.00  0.00    -0.005 A 
ATOM      9  C   UNL d   1       0.338   1.683   1.413  0.00  0.00     0.042 A 
ATOM     10 CL   UNL d   1      -1.060   0.719   1.075  0.00  0.00    -0.084 Cl
ATOM     11  C   UNL d   1       0.858   1.543   2.709  0.00  0.00     0.024 A 
ATOM     12  C   UNL d   1       2.046   2.165   3.068  0.00  0.00     0.003 A 
ATOM     13  C   UNL d   1       2.732   2.910   2.120  0.00  0.00     0.024 A 
ATOM     14  C   UNL d   1       2.203   3.078   0.832  0.00  0.00     0.042 A 
ATOM     15 CL   UNL d   1       3.196   3.971  -0.274  0.00  0.00    -0.084 Cl
ENDBRANCH   7   8
ENDBRANCH   6   7
ENDBRANCH   5   6
ENDBRANCH   1   5
BRANCH   2  16
ATOM     16  C   UNL d   1      -5.341   4.542  -0.424  0.00  0.00     0.036 A 
ATOM     17  C   UNL d   1      -5.838   5.839  -0.601  0.00  0.00     0.056 A 
ATOM     18  C   UNL d   1      -7.212   6.058  -0.736  0.00  0.00     0.074 A 
ATOM     19 CL   UNL d   1      -7.794   7.663  -0.976  0.00  0.00    -0.081 Cl
ATOM     20  C   UNL d   1      -8.095   4.987  -0.693  0.00  0.00     0.138 A 
ATOM     21  C   UNL d   1      -7.621   3.691  -0.522  0.00  0.00     0.046 A 
ATOM     22  F   UNL d   1      -9.419   5.175  -0.814  0.00  0.00    -0.204 F 
ATOM     23  C   UNL d   1      -6.243   3.468  -0.396  0.00  0.00     0.032 A 
ENDBRANCH   2  16
TORSDOF 5
