REMARK  6 active torsions:
REMARK  status: ('A' for Active; 'I' for Inactive)
REMARK    1  A    between atoms: O_6  and  C_1 
REMARK       I    between atoms: N_7  and  C_1 
REMARK    2  A    between atoms: C_2  and  O_8 
REMARK    3  A    between atoms: N_3  and  C_4 
REMARK    4  A    between atoms: C_5  and  O_6 
REMARK    5  A    between atoms: C_13  and  N_7 
REMARK    6  A    between atoms: O_8  and  C_14 
ROOT
ATOM      1  C   UNL d   1       1.079  -1.717  -0.955  0.00  0.00     0.370 C 
ATOM      2  N   UNL d   1       1.710  -2.648  -0.173  0.00  0.00    -0.302 N 
ATOM      3  O   UNL d   1       1.226  -1.754  -2.183  0.00  0.00    -0.238 OA
ATOM      4  H   UNL d   1       2.295  -3.253  -0.738  0.00  0.00     0.171 HD
ENDROOT
BRANCH   1   5
ATOM      5  O   UNL d   1       0.303  -0.791  -0.294  0.00  0.00    -0.259 OA
BRANCH   5   6
ATOM      6  C   UNL d   1      -0.922  -0.455  -0.924  0.00  0.00     0.107 A 
ATOM      7  C   UNL d   1      -1.402   0.867  -0.818  0.00  0.00     0.064 A 
ATOM      8  C   UNL d   1      -2.746   1.056  -1.191  0.00  0.00     0.032 A 
ATOM      9  C   UNL d   1      -3.549   0.009  -1.668  0.00  0.00     0.002 A 
ATOM     10  C   UNL d   1      -3.030  -1.269  -1.797  0.00  0.00     0.003 A 
ATOM     11  C   UNL d   1      -1.717  -1.510  -1.411  0.00  0.00     0.040 A 
BRANCH   7  12
ATOM     12  N   UNL d   1      -0.632   1.930  -0.362  0.00  0.00    -0.379 N 
ATOM     13  C   UNL d   1       0.738   2.120  -0.847  0.00  0.00     0.123 C 
ATOM     14  C   UNL d   1       0.884   3.466  -1.574  0.00  0.00     0.020 C 
ATOM     15  C   UNL d   1       0.268   4.638  -0.810  0.00  0.00     0.003 C 
ATOM     16  C   UNL d   1      -1.163   4.323  -0.387  0.00  0.00     0.020 C 
ATOM     17  C   UNL d   1      -1.206   3.027   0.416  0.00  0.00     0.123 C 
ENDBRANCH   7  12
ENDBRANCH   5   6
ENDBRANCH   1   5
BRANCH   2  18
ATOM     18  C   UNL d   1       1.706  -2.872   1.213  0.00  0.00     0.037 A 
ATOM     19  C   UNL d   1       0.898  -2.211   2.138  0.00  0.00     0.032 A 
ATOM     20  C   UNL d   1       1.058  -2.427   3.521  0.00  0.00     0.039 A 
ATOM     21  C   UNL d   1       2.002  -3.336   3.986  0.00  0.00     0.078 A 
ATOM     22  C   UNL d   1       2.773  -4.036   3.057  0.00  0.00     0.039 A 
ATOM     23  C   UNL d   1       2.615  -3.822   1.685  0.00  0.00     0.032 A 
BRANCH  21  24
ATOM     24  O   UNL d   1       2.297  -3.642   5.278  0.00  0.00    -0.255 OA
BRANCH  24  25
ATOM     25  C   UNL d   1       1.438  -3.236   6.327  0.00  0.00     0.530 C 
ATOM     26  F   UNL d   1       0.139  -3.207   5.965  0.00  0.00    -0.144 F 
ATOM     27  F   UNL d   1       1.561  -4.128   7.336  0.00  0.00    -0.144 F 
ATOM     28  F   UNL d   1       1.803  -2.022   6.791  0.00  0.00    -0.144 F 
ENDBRANCH  24  25
ENDBRANCH  21  24
ENDBRANCH   2  18
TORSDOF 6
