REMARK  4 active torsions:
REMARK  status: ('A' for Active; 'I' for Inactive)
REMARK    1  A    between atoms: N_5  and  C_1 
REMARK    2  A    between atoms: C_8  and  N_5 
REMARK    3  A    between atoms: C_15  and  N_5 
REMARK    4  A    between atoms: C_13  and  C_15 
ROOT
ATOM      1  N   UNL d   1       2.199   1.288  -0.415  0.00  0.00    -0.324 N 
ENDROOT
BRANCH   1   2
ATOM      2  C   UNL d   1       1.056   0.533  -0.097  0.00  0.00     0.148 C 
ATOM      3  N   UNL d   1       0.044   0.994   0.597  0.00  0.00    -0.357 N 
ATOM      4  C   UNL d   1      -1.083   0.030   0.720  0.00  0.00     0.058 C 
ATOM      5  HN  UNL d   1       0.031   1.925   1.013  1.00  0.00     0.162 HD
ATOM      6  C   UNL d   1      -2.263   0.619  -0.068  0.00  0.00     0.044 C 
ATOM      7  C   UNL d   1      -1.454  -0.093   2.202  0.00  0.00     0.044 C 
ATOM      8  C   UNL d   1      -0.653  -1.296   0.144  0.00  0.00     0.004 C 
ATOM      9  S   UNL d   1       0.849  -1.127  -0.668  0.00  0.00    -0.057 SA
ATOM     10  C   UNL d   1      -1.235  -2.497   0.264  0.00  0.00     0.029 C 
ENDBRANCH   1   2
BRANCH   1  11
ATOM     11  C   UNL d   1       3.522   0.752  -0.517  0.00  0.00     0.042 A 
ATOM     12  C   UNL d   1       4.652   1.205   0.217  0.00  0.00    -0.035 A 
ATOM     13  C   UNL d   1       5.898   0.534   0.086  0.00  0.00     0.015 A 
ATOM     14  C   UNL d   1       4.682   2.401   1.136  0.00  0.00     0.050 C 
ATOM     15  C   UNL d   1       6.052  -0.605  -0.703  0.00  0.00    -0.061 A 
ATOM     16  C   UNL d   1       4.969  -1.027  -1.456  0.00  0.00     0.009 A 
ATOM     17  C   UNL d   1       7.368  -1.319  -0.774  0.00  0.00     0.048 C 
ATOM     18  C   UNL d   1       3.756  -0.332  -1.391  0.00  0.00     0.031 A 
ENDBRANCH   1  11
BRANCH   1  19
ATOM     19  C   UNL d   1       2.081   2.748  -0.356  0.00  0.00     0.158 C 
BRANCH  19  20
ATOM     20  C   UNL d   1       1.190   3.298  -1.444  0.00  0.00    -0.017 C 
ATOM     21  C   UNL d   1       1.027   2.802  -2.678  0.00  0.00     0.008 C 
ENDBRANCH  19  20
ENDBRANCH   1  19
TORSDOF 4
