REMARK  5 active torsions:
REMARK  status: ('A' for Active; 'I' for Inactive)
REMARK    1  A    between atoms: N_2  and  C_1 
REMARK    2  A    between atoms: C_3  and  C_8 
REMARK    3  A    between atoms: O_7  and  C_4 
REMARK    4  A    between atoms: C_5  and  O_7 
REMARK    5  A    between atoms: C_9  and  C_5 
ROOT
ATOM      1  C   UNL d   1       1.178   0.304  -0.018  0.00  0.00     0.137 A 
ATOM      2  C   UNL d   1       0.694  -1.005  -0.071  0.00  0.00     0.112 A 
ATOM      3  C   UNL d   1       0.331   1.413  -0.005  0.00  0.00     0.055 A 
ATOM      4  C   UNL d   1      -1.054   1.206  -0.056  0.00  0.00     0.050 A 
ATOM      5  C   UNL d   1      -0.677  -1.221  -0.128  0.00  0.00     0.041 A 
ATOM      6  C   UNL d   1      -1.545  -0.116  -0.118  0.00  0.00     0.019 A 
ENDROOT
BRANCH   2   7
ATOM      7  O   UNL d   1       1.662  -2.034  -0.041  0.00  0.00    -0.272 OA
BRANCH   7   8
ATOM      8  C   UNL d   1       1.505  -3.410   0.064  0.00  0.00     0.298 C 
ATOM      9  O   UNL d   1       0.455  -4.029   0.086  0.00  0.00    -0.259 OA
BRANCH   8  10
ATOM     10  C   UNL d   1       2.862  -4.011   0.221  0.00  0.00     0.041 A 
ATOM     11  C   UNL d   1       2.960  -5.366   0.561  0.00  0.00     0.041 A 
ATOM     12  C   UNL d   1       4.218  -5.934   0.770  0.00  0.00     0.035 A 
ATOM     13 CL   UNL d   1       4.342  -7.594   1.208  0.00  0.00    -0.084 Cl
ATOM     14  C   UNL d   1       5.379  -5.172   0.642  0.00  0.00     0.024 A 
ATOM     15  C   UNL d   1       5.288  -3.828   0.287  0.00  0.00     0.003 A 
ATOM     16  C   UNL d   1       4.037  -3.251   0.072  0.00  0.00     0.018 A 
ENDBRANCH   8  10
ENDBRANCH   7   8
ENDBRANCH   2   7
BRANCH   1  17
ATOM     17  N   UNL d   1       2.602   0.525   0.052  0.00  0.00    -0.113 N 
ATOM     18  O   UNL d   1       3.086   0.708   1.176  0.00  0.00    -0.532 OA
ATOM     19  O   UNL d   1       3.227   0.509  -1.016  0.00  0.00    -0.532 OA
ENDBRANCH   1  17
BRANCH   4  20
ATOM     20  C   UNL d   1      -2.009   2.377  -0.008  0.00  0.00     0.417 C 
ATOM     21  F   UNL d   1      -1.392   3.575  -0.203  0.00  0.00    -0.166 F 
ATOM     22  F   UNL d   1      -2.984   2.300  -0.952  0.00  0.00    -0.166 F 
ATOM     23  F   UNL d   1      -2.645   2.473   1.191  0.00  0.00    -0.166 F 
ENDBRANCH   4  20
TORSDOF 5
