REMARK  5 active torsions:
REMARK  status: ('A' for Active; 'I' for Inactive)
REMARK    1  A    between atoms: C_8  and  C_2 
REMARK    2  A    between atoms: S_9  and  C_5 
REMARK    3  A    between atoms: C_17  and  S_9 
REMARK    4  A    between atoms: C_10  and  C_17 
REMARK    5  A    between atoms: C_13  and  C_10 
ROOT
ATOM      1  N   UNL d   1       0.821  -0.589  -0.290  0.00  0.00    -0.320 N 
ATOM      2  C   UNL d   1       0.850   0.618   0.367  0.00  0.00     0.132 A 
ATOM      3  N   UNL d   1      -0.338   0.810   0.915  0.00  0.00    -0.283 N 
ATOM      4  HN  UNL d   1      -0.617   1.626   1.459  1.00  0.00     0.188 HD
ATOM      5  C   UNL d   1      -0.413  -1.113  -0.071  0.00  0.00     0.161 A 
ATOM      6  N   UNL d   1      -1.139  -0.279   0.629  0.00  0.00    -0.278 N 
ATOM      7  HN  UNL d   1      -2.111  -0.408   0.909  1.00  0.00     0.189 HD
ATOM      8  H   UNL d   1       1.578  -1.043  -0.775  0.00  0.00     0.169 HD
ENDROOT
BRANCH   5   9
ATOM      9  S   UNL d   1      -0.811  -2.683  -0.645  0.00  0.00    -0.085 SA
BRANCH   9  10
ATOM     10  C   UNL d   1      -2.522  -2.853  -0.047  0.00  0.00     0.166 C 
BRANCH  10  11
ATOM     11  C   UNL d   1      -3.066  -4.256  -0.290  0.00  0.00     0.169 C 
ATOM     12  O   UNL d   1      -2.390  -5.187  -0.724  0.00  0.00    -0.291 OA
BRANCH  11  13
ATOM     13  C   UNL d   1      -4.511  -4.520   0.019  0.00  0.00     0.011 A 
ATOM     14  C   UNL d   1      -5.345  -3.560   0.607  0.00  0.00     0.017 A 
ATOM     15  C   UNL d   1      -6.696  -3.848   0.837  0.00  0.00     0.025 A 
ATOM     16  C   UNL d   1      -7.216  -5.094   0.489  0.00  0.00     0.034 A 
ATOM     17  C   UNL d   1      -6.394  -6.064  -0.074  0.00  0.00     0.025 A 
ATOM     18 CL   UNL d   1      -8.883  -5.428   0.751  0.00  0.00    -0.084 Cl
ATOM     19  C   UNL d   1      -5.045  -5.779  -0.306  0.00  0.00     0.017 A 
ENDBRANCH  11  13
ENDBRANCH  10  11
ENDBRANCH   9  10
ENDBRANCH   5   9
BRANCH   2  20
ATOM     20  C   UNL d   1       2.026   1.480   0.487  0.00  0.00     0.013 A 
ATOM     21  C   UNL d   1       3.014   1.533  -0.506  0.00  0.00     0.039 A 
ATOM     22  C   UNL d   1       4.133   2.355  -0.341  0.00  0.00     0.036 A 
ATOM     23 CL   UNL d   1       5.334   2.409  -1.572  0.00  0.00    -0.084 Cl
ATOM     24  C   UNL d   1       4.291   3.127   0.807  0.00  0.00     0.047 A 
ATOM     25  C   UNL d   1       3.308   3.082   1.790  0.00  0.00     0.036 A 
ATOM     26  C   UNL d   1       2.180   2.274   1.633  0.00  0.00     0.039 A 
ATOM     27 CL   UNL d   1       3.492   4.024   3.218  0.00  0.00    -0.084 Cl
ENDBRANCH   2  20
TORSDOF 5
