REMARK  5 active torsions:
REMARK  status: ('A' for Active; 'I' for Inactive)
REMARK    1  A    between atoms: S_2  and  C_1 
REMARK    2  A    between atoms: C_12  and  S_2 
REMARK    3  A    between atoms: N_7  and  C_5 
REMARK    4  A    between atoms: S_6  and  C_8 
REMARK    5  A    between atoms: C_16  and  S_6 
ROOT
ATOM      1  C   UNL d   1      -0.605   1.155   0.137  0.00  0.00     0.168 A 
ATOM      2  N   UNL d   1      -1.307  -0.013   0.035  0.00  0.00    -0.335 N 
ATOM      3  HN  UNL d   1      -2.326  -0.030   0.032  1.00  0.00     0.167 HD
ATOM      4  C   UNL d   1       0.777   1.207   0.146  0.00  0.00     0.141 A 
ATOM      5  C   UNL d   1      -0.570  -1.153  -0.062  0.00  0.00     0.134 A 
ATOM      6  C   UNL d   1       1.508   0.018   0.023  0.00  0.00     0.042 A 
ATOM      7  C   UNL d   1       0.820  -1.191  -0.089  0.00  0.00     0.045 A 
ENDROOT
BRANCH   1   8
ATOM      8  S   UNL d   1      -1.627   2.614  -0.033  0.00  0.00     0.224 S 
ATOM      9  O   UNL d   1      -0.806   3.605  -0.710  0.00  0.00    -0.216 OA
ATOM     10  O   UNL d   1      -2.882   2.207  -0.639  0.00  0.00    -0.216 OA
BRANCH   8  11
ATOM     11  C   UNL d   1      -2.022   3.223   1.585  0.00  0.00     0.065 A 
ATOM     12  C   UNL d   1      -1.692   4.536   1.933  0.00  0.00     0.024 A 
ATOM     13  C   UNL d   1      -1.979   4.997   3.217  0.00  0.00     0.002 A 
ATOM     14  C   UNL d   1      -2.602   4.154   4.139  0.00  0.00     0.000 A 
ATOM     15  C   UNL d   1      -2.956   2.853   3.775  0.00  0.00     0.002 A 
ATOM     16  C   UNL d   1      -2.671   2.382   2.493  0.00  0.00     0.024 A 
ENDBRANCH   8  11
ENDBRANCH   1   8
BRANCH   4  17
ATOM     17  N   UNL d   1       1.489   2.431   0.405  0.00  0.00    -0.113 N 
ATOM     18  O   UNL d   1       1.192   3.028   1.446  0.00  0.00    -0.532 OA
ATOM     19  O   UNL d   1       2.399   2.732  -0.374  0.00  0.00    -0.532 OA
ENDBRANCH   4  17
BRANCH   5  20
ATOM     20  S   UNL d   1      -1.526  -2.671  -0.010  0.00  0.00     0.222 S 
ATOM     21  O   UNL d   1      -0.558  -3.756  -0.065  0.00  0.00    -0.216 OA
ATOM     22  O   UNL d   1      -2.435  -2.573   1.118  0.00  0.00    -0.216 OA
BRANCH  20  23
ATOM     23  C   UNL d   1      -2.507  -2.776  -1.487  0.00  0.00     0.065 A 
ATOM     24  C   UNL d   1      -2.341  -3.862  -2.353  0.00  0.00     0.024 A 
ATOM     25  C   UNL d   1      -3.136  -3.958  -3.496  0.00  0.00     0.002 A 
ATOM     26  C   UNL d   1      -4.090  -2.977  -3.767  0.00  0.00     0.000 A 
ATOM     27  C   UNL d   1      -4.256  -1.899  -2.895  0.00  0.00     0.002 A 
ATOM     28  C   UNL d   1      -3.469  -1.796  -1.748  0.00  0.00     0.024 A 
ENDBRANCH  20  23
ENDBRANCH   5  20
TORSDOF 5
