REMARK  6 active torsions:
REMARK  status: ('A' for Active; 'I' for Inactive)
REMARK    1  A    between atoms: C_2  and  N_1 
REMARK       I    between atoms: C_3  and  N_1 
REMARK    2  A    between atoms: N_4  and  C_2 
REMARK    3  A    between atoms: C_7  and  C_3 
REMARK    4  A    between atoms: C_8  and  N_4 
REMARK    5  A    between atoms: C_16  and  C_9 
REMARK    6  A    between atoms: C_17  and  C_16 
ROOT
ATOM      1  C   UNL d   1       0.274   0.074   0.910  0.00  0.00     0.179 C 
ATOM      2  S   UNL d   1       1.111  -0.057  -0.547  0.00  0.00    -0.040 SA
ENDROOT
BRANCH   1   3
ATOM      3  N   UNL d   1      -1.084  -0.058   0.749  0.00  0.00    -0.299 N 
ATOM      4  C   UNL d   1      -2.240   0.068   1.520  0.00  0.00     0.257 C 
ATOM      5  O   UNL d   1      -2.255   0.229   2.738  0.00  0.00    -0.267 OA
ATOM      6  H   UNL d   1      -1.243  -0.305  -0.217  0.00  0.00     0.171 HD
BRANCH   4   7
ATOM      7  C   UNL d   1      -3.511  -0.133   0.713  0.00  0.00     0.032 A 
ATOM      8  C   UNL d   1      -4.678  -0.577   1.345  0.00  0.00     0.017 A 
ATOM      9  C   UNL d   1      -5.800  -0.930   0.587  0.00  0.00     0.001 A 
ATOM     10  C   UNL d   1      -5.777  -0.837  -0.805  0.00  0.00     0.000 A 
ATOM     11  C   UNL d   1      -4.649  -0.333  -1.443  0.00  0.00     0.001 A 
ATOM     12  C   UNL d   1      -3.537   0.046  -0.688  0.00  0.00     0.017 A 
ENDBRANCH   4   7
ENDBRANCH   1   3
BRANCH   1  13
ATOM     13  N   UNL d   1       0.781   0.245   2.178  0.00  0.00    -0.333 N 
ATOM     14  H   UNL d   1       0.223  -0.206   2.899  0.00  0.00     0.168 HD
BRANCH  13  15
ATOM     15  C   UNL d   1       2.186   0.310   2.400  0.00  0.00     0.034 A 
ATOM     16  C   UNL d   1       2.945   1.322   1.803  0.00  0.00     0.030 A 
ATOM     17  C   UNL d   1       4.341   1.265   1.806  0.00  0.00     0.009 A 
ATOM     18  C   UNL d   1       5.013   0.199   2.417  0.00  0.00    -0.058 A 
ATOM     19  C   UNL d   1       4.248  -0.753   3.111  0.00  0.00     0.009 A 
ATOM     20  C   UNL d   1       2.842  -0.689   3.120  0.00  0.00     0.030 A 
BRANCH  18  21
ATOM     21  C   UNL d   1       6.526   0.163   2.381  0.00  0.00     0.038 C 
BRANCH  21  22
ATOM     22  C   UNL d   1       7.195  -1.149   1.941  0.00  0.00     0.000 C 
ATOM     23  C   UNL d   1       7.047  -1.456   0.457  0.00  0.00     0.005 C 
ENDBRANCH  21  22
ENDBRANCH  18  21
ENDBRANCH  13  15
ENDBRANCH   1  13
TORSDOF 6
