REMARK  2 active torsions:
REMARK  status: ('A' for Active; 'I' for Inactive)
REMARK    1  A    between atoms: C_11  and  C_6 
REMARK    2  A    between atoms: C_14  and  C_10 
ROOT
ATOM      1  N   UNL d   1      -0.271  -0.581   0.116  0.00  0.00    -0.203 N 
ATOM      2  C   UNL d   1      -0.217   0.797   0.008  0.00  0.00     0.133 A 
ATOM      3  N   UNL d   1      -1.553  -1.038   0.191  0.00  0.00    -0.288 N 
ATOM      4  HN  UNL d   1      -1.872  -1.997   0.325  1.00  0.00     0.188 HD
ATOM      5  C   UNL d   1      -1.504   1.239  -0.066  0.00  0.00     0.083 A 
ATOM      6  C   UNL d   1      -2.299   0.070   0.048  0.00  0.00     0.069 A 
ATOM      7  C   UNL d   1       0.863  -1.415   0.138  0.00  0.00     0.270 A 
ATOM      8  C   UNL d   1       2.157  -0.685   0.073  0.00  0.00     0.106 A 
ATOM      9  N   UNL d   1       0.990   1.403  -0.030  0.00  0.00    -0.340 N 
ATOM     10  C   UNL d   1       2.154   0.663   0.011  0.00  0.00     0.049 A 
ATOM     11  O   UNL d   1       0.777  -2.635   0.208  0.00  0.00    -0.266 OA
ATOM     12  H   UNL d   1       1.098   2.414  -0.089  0.00  0.00     0.167 HD
ENDROOT
BRANCH  10  13
ATOM     13  C   UNL d   1       3.429   1.387   0.017  0.00  0.00    -0.009 A 
ATOM     14  C   UNL d   1       4.073   1.718  -1.182  0.00  0.00     0.013 A 
ATOM     15  C   UNL d   1       5.317   2.354  -1.156  0.00  0.00     0.001 A 
ATOM     16  C   UNL d   1       5.919   2.664   0.064  0.00  0.00     0.000 A 
ATOM     17  C   UNL d   1       5.273   2.357   1.260  0.00  0.00     0.001 A 
ATOM     18  C   UNL d   1       4.030   1.723   1.237  0.00  0.00     0.013 A 
ENDBRANCH  10  13
BRANCH   6  19
ATOM     19  C   UNL d   1      -3.800   0.040   0.008  0.00  0.00     0.033 A 
ATOM     20  S   UNL d   1      -4.762   1.421  -0.309  0.00  0.00    -0.100 SA
ATOM     21  C   UNL d   1      -6.210   0.523  -0.186  0.00  0.00     0.050 A 
ATOM     22  C   UNL d   1      -5.971  -0.799   0.113  0.00  0.00     0.008 A 
ATOM     23  C   UNL d   1      -4.575  -1.084   0.210  0.00  0.00     0.021 A 
ENDBRANCH   6  19
TORSDOF 2
