REMARK  3 active torsions:
REMARK  status: ('A' for Active; 'I' for Inactive)
REMARK    1  A    between atoms: C_3  and  C_1 
REMARK    2  A    between atoms: C_9  and  C_2 
REMARK    3  A    between atoms: C_15  and  C_8 
ROOT
ATOM      1  C   UNL d   1      -0.024  -1.272   0.011  0.00  0.00     0.078 A 
ATOM      2  C   UNL d   1      -1.363  -0.791   0.032  0.00  0.00     0.087 A 
ATOM      3  N   UNL d   1      -1.356   0.544   0.194  0.00  0.00    -0.259 N 
ATOM      4  HN  UNL d   1      -2.171   1.153   0.265  1.00  0.00     0.195 HD
ATOM      5  O   UNL d   1      -0.033   0.933   0.245  0.00  0.00    -0.241 OA
ATOM      6  C   UNL d   1       0.767  -0.157   0.148  0.00  0.00     0.089 A 
ATOM      7  C   UNL d   1       2.223   0.089   0.150  0.00  0.00     0.080 C 
ENDROOT
BRANCH   1   8
ATOM      8  C   UNL d   1       0.496  -2.649  -0.134  0.00  0.00     0.187 A 
ATOM      9  N   UNL d   1      -0.181  -3.654  -0.637  0.00  0.00    -0.318 N 
ATOM     10  C   UNL d   1       0.711  -4.703  -0.569  0.00  0.00     0.138 A 
ATOM     11  HN  UNL d   1      -1.136  -3.658  -0.993  1.00  0.00     0.169 HD
ATOM     12  N   UNL d   1       1.887  -4.375  -0.015  0.00  0.00    -0.242 N 
ATOM     13  O   UNL d   1       1.763  -3.015   0.241  0.00  0.00    -0.217 OA
ATOM     14  HN  UNL d   1       2.685  -4.981   0.175  1.00  0.00     0.196 HD
BRANCH  10  15
ATOM     15  C   UNL d   1       0.414  -6.021  -1.116  0.00  0.00     0.010 A 
ATOM     16  C   UNL d   1       1.296  -7.096  -0.918  0.00  0.00     0.022 A 
ATOM     17  C   UNL d   1       1.047  -8.349  -1.495  0.00  0.00    -0.061 A 
ATOM     18  C   UNL d   1       2.002  -9.489  -1.296  0.00  0.00     0.048 C 
ATOM     19  C   UNL d   1      -0.101  -8.523  -2.275  0.00  0.00     0.007 A 
ATOM     20  C   UNL d   1      -0.992  -7.466  -2.468  0.00  0.00     0.002 A 
ATOM     21  C   UNL d   1      -0.738  -6.223  -1.888  0.00  0.00     0.015 A 
ENDBRANCH  10  15
ENDBRANCH   1   8
BRANCH   2  22
ATOM     22  C   UNL d   1      -2.623  -1.538  -0.009  0.00  0.00     0.054 A 
ATOM     23  C   UNL d   1      -2.756  -2.692   0.779  0.00  0.00     0.130 A 
ATOM     24  F   UNL d   1      -1.774  -3.065   1.615  0.00  0.00    -0.205 F 
ATOM     25  C   UNL d   1      -3.904  -3.482   0.750  0.00  0.00     0.043 A 
ATOM     26  C   UNL d   1      -4.983  -3.102  -0.038  0.00  0.00     0.005 A 
ATOM     27  C   UNL d   1      -4.901  -1.931  -0.790  0.00  0.00     0.025 A 
ATOM     28  C   UNL d   1      -3.728  -1.157  -0.788  0.00  0.00     0.049 A 
ATOM     29 CL   UNL d   1      -3.737   0.240  -1.812  0.00  0.00    -0.083 Cl
ENDBRANCH   2  22
TORSDOF 3
