REMARK  5 active torsions:
REMARK  status: ('A' for Active; 'I' for Inactive)
REMARK    1  A    between atoms: C_2  and  S_1 
REMARK    2  A    between atoms: N_3  and  S_1 
REMARK    3  A    between atoms: C_12  and  N_3 
REMARK    4  A    between atoms: C_13  and  N_6 
REMARK    5  A    between atoms: C_19  and  C_13 
ROOT
ATOM      1  N   UNL d   1      -0.024   1.527  -0.938  0.00  0.00    -0.211 NA
ATOM      2  H   UNL d   1       0.225   0.543  -0.825  0.00  0.00     0.140 HD
ENDROOT
BRANCH   1   3
ATOM      3  S   UNL d   1      -1.044   1.954   0.360  0.00  0.00     0.242 S 
ATOM      4  O   UNL d   1      -1.461   0.704   0.953  0.00  0.00    -0.206 OA
ATOM      5  O   UNL d   1      -0.380   2.982   1.130  0.00  0.00    -0.206 OA
BRANCH   3   6
ATOM      6  C   UNL d   1      -2.460   2.617  -0.504  0.00  0.00     0.081 A 
ATOM      7  C   UNL d   1      -3.102   1.724  -1.385  0.00  0.00     0.033 A 
ATOM      8  C   UNL d   1      -4.151   2.146  -2.212  0.00  0.00    -0.039 A 
ATOM      9  C   UNL d   1      -4.825   1.154  -3.115  0.00  0.00     0.050 C 
ATOM     10  C   UNL d   1      -4.514   3.496  -2.181  0.00  0.00     0.040 A 
ATOM     11  C   UNL d   1      -3.916   4.372  -1.268  0.00  0.00     0.032 A 
ATOM     12 CL   UNL d   1      -5.703   4.137  -3.257  0.00  0.00    -0.084 Cl
ATOM     13  C   UNL d   1      -2.918   3.937  -0.375  0.00  0.00    -0.037 A 
ATOM     14  C   UNL d   1      -2.401   4.935   0.622  0.00  0.00     0.050 C 
ENDBRANCH   3   6
ENDBRANCH   1   3
BRANCH   1  15
ATOM     15  C   UNL d   1       1.116   2.437  -1.263  0.00  0.00     0.074 C 
ATOM     16  C   UNL d   1       0.659   3.729  -1.934  0.00  0.00     0.050 C 
ATOM     17  C   UNL d   1       0.409   3.607  -3.437  0.00  0.00     0.274 C 
ATOM     18  N   UNL d   1       1.536   2.968  -4.134  0.00  0.00     0.092 N 
ATOM     19  C   UNL d   1       1.753   1.620  -3.596  0.00  0.00     0.274 C 
ATOM     20  C   UNL d   1       2.142   1.694  -2.122  0.00  0.00     0.050 C 
BRANCH  18  21
ATOM     21  C   UNL d   1       1.313   2.899  -5.596  0.00  0.00     0.311 C 
BRANCH  21  22
ATOM     22  C   UNL d   1       1.107   4.259  -6.231  0.00  0.00    -0.030 A 
ATOM     23  C   UNL d   1       2.108   5.239  -6.159  0.00  0.00     0.009 A 
ATOM     24  C   UNL d   1       1.865   6.534  -6.619  0.00  0.00     0.001 A 
ATOM     25  C   UNL d   1       0.625   6.856  -7.170  0.00  0.00     0.000 A 
ATOM     26  C   UNL d   1      -0.362   5.880  -7.286  0.00  0.00     0.001 A 
ATOM     27  C   UNL d   1      -0.122   4.585  -6.824  0.00  0.00     0.009 A 
ENDBRANCH  21  22
ENDBRANCH  18  21
ENDBRANCH   1  15
TORSDOF 5
