REMARK  4 active torsions:
REMARK  status: ('A' for Active; 'I' for Inactive)
REMARK    1  A    between atoms: N_10  and  C_1 
REMARK    2  A    between atoms: C_5  and  C_4 
REMARK    3  A    between atoms: N_13  and  C_5 
REMARK    4  A    between atoms: O_14  and  N_8 
ROOT
ATOM      1  C   UNL d   1       3.797  -5.531   0.072  0.00  0.00     0.107 A 
ATOM      2  C   UNL d   1       3.734  -4.120   0.081  0.00  0.00     0.146 A 
ATOM      3  C   UNL d   1       2.542  -6.175   0.085  0.00  0.00     0.146 A 
ATOM      4  C   UNL d   1       1.317  -4.083   0.099  0.00  0.00     0.010 A 
ATOM      5  C   UNL d   1       1.329  -5.479   0.092  0.00  0.00     0.059 A 
ATOM      6  C   UNL d   1       2.534  -3.407   0.103  0.00  0.00     0.059 A 
ATOM      7  F   UNL d   1       4.862  -3.393   0.015  0.00  0.00    -0.204 F 
ATOM      8  F   UNL d   1       2.468  -7.516   0.136  0.00  0.00    -0.204 F 
ENDROOT
BRANCH   4   9
ATOM      9  C   UNL d   1       0.012  -3.348   0.112  0.00  0.00     0.108 C 
ATOM     10  N   UNL d   1      -1.093  -4.040   0.029  0.00  0.00    -0.258 N 
ATOM     11  HN  UNL d   1      -1.134  -5.058  -0.023  1.00  0.00     0.195 HD
BRANCH  10  12
ATOM     12  O   UNL d   1      -2.217  -3.195   0.022  0.00  0.00    -0.289 OA
ATOM     13  H   UNL d   1      -2.951  -3.838   0.007  0.00  0.00     0.244 HD
ENDBRANCH  10  12
BRANCH   9  14
ATOM     14  N   UNL d   1      -0.008  -1.976   0.206  0.00  0.00    -0.286 NA
ATOM     15  H   UNL d   1       0.653  -1.476  -0.372  0.00  0.00     0.125 HD
ATOM     16  H   UNL d   1      -0.960  -1.648   0.049  0.00  0.00     0.125 HD
ENDBRANCH   9  14
ENDBRANCH   4   9
BRANCH   1  17
ATOM     17  N   UNL d   1       5.004  -6.220   0.042  0.00  0.00    -0.385 N 
ATOM     18  C   UNL d   1       6.199  -5.687   0.682  0.00  0.00     0.149 C 
ATOM     19  C   UNL d   1       5.113  -7.562  -0.514  0.00  0.00     0.149 C 
ENDBRANCH   1  17
TORSDOF 4
