REMARK  6 active torsions:
REMARK  status: ('A' for Active; 'I' for Inactive)
REMARK    1  A    between atoms: C_2  and  N_1 
REMARK    2  A    between atoms: C_4  and  C_2 
REMARK    3  A    between atoms: S_3  and  C_4 
REMARK    4  A    between atoms: C_5  and  S_3 
REMARK    5  A    between atoms: C_8  and  C_4 
REMARK    6  A    between atoms: N_12  and  C_9 
ROOT
ATOM      1  C   UNL d   1       1.170   2.010  -1.435  0.00  0.00     0.109 C 
ENDROOT
BRANCH   1   2
ATOM      2  S   UNL d   1       2.437   1.143  -2.488  0.00  0.00    -0.117 SA
BRANCH   2   3
ATOM      3  C   UNL d   1       3.534   2.492  -2.963  0.00  0.00     0.022 A 
ATOM      4  C   UNL d   1       3.970   2.600  -4.304  0.00  0.00     0.022 A 
ATOM      5  C   UNL d   1       4.703   3.730  -4.688  0.00  0.00     0.024 A 
ATOM      6  C   UNL d   1       5.085   4.687  -3.747  0.00  0.00     0.002 A 
ATOM      7  C   UNL d   1       4.726   4.534  -2.414  0.00  0.00     0.001 A 
ATOM      8  C   UNL d   1       3.960   3.437  -2.021  0.00  0.00     0.020 A 
BRANCH   4   9
ATOM      9  N   UNL d   1       3.485   1.739  -5.313  0.00  0.00    -0.302 NA
ATOM     10  H   UNL d   1       3.224   0.832  -4.927  0.00  0.00     0.124 HD
ATOM     11  H   UNL d   1       4.116   1.652  -6.104  0.00  0.00     0.124 HD
ENDBRANCH   4   9
ENDBRANCH   2   3
ENDBRANCH   1   2
BRANCH   1  12
ATOM     12  C   UNL d   1       0.123   1.026  -0.901  0.00  0.00     0.221 C 
BRANCH  12  13
ATOM     13  N   UNL d   1       0.778  -0.059  -0.106  0.00  0.00    -0.154 N 
ATOM     14  O   UNL d   1       0.576  -1.223  -0.463  0.00  0.00    -0.536 OA
ATOM     15  O   UNL d   1       1.432   0.289   0.889  0.00  0.00    -0.536 OA
ENDBRANCH  12  13
ENDBRANCH   1  12
BRANCH   1  16
ATOM     16  C   UNL d   1       0.453   3.191  -2.109  0.00  0.00    -0.042 A 
ATOM     17  C   UNL d   1       0.469   3.437  -3.493  0.00  0.00     0.010 A 
ATOM     18  C   UNL d   1      -0.146   4.569  -4.038  0.00  0.00     0.024 A 
ATOM     19  C   UNL d   1      -0.839   5.445  -3.213  0.00  0.00     0.034 A 
ATOM     20  C   UNL d   1      -0.916   5.203  -1.847  0.00  0.00     0.024 A 
ATOM     21 CL   UNL d   1      -1.601   6.833  -3.885  0.00  0.00    -0.084 Cl
ATOM     22  C   UNL d   1      -0.265   4.093  -1.297  0.00  0.00     0.010 A 
ENDBRANCH   1  16
TORSDOF 6
