REMARK  7 active torsions:
REMARK  status: ('A' for Active; 'I' for Inactive)
REMARK    1  A    between atoms: N_4  and  S_1 
REMARK    2  A    between atoms: C_8  and  S_1 
REMARK    3  A    between atoms: C_6  and  C_2 
REMARK    4  A    between atoms: C_3  and  N_4 
REMARK    5  A    between atoms: O_16  and  C_6 
REMARK    6  A    between atoms: O_18  and  C_9 
REMARK    7  A    between atoms: O_19  and  C_10 
ROOT
ATOM      1  C   UNL d   1       2.141  -2.261   1.760  0.00  0.00     0.062 A 
ATOM      2  C   UNL d   1       0.816  -1.802   1.809  0.00  0.00     0.042 A 
ATOM      3  C   UNL d   1       2.401  -3.600   2.085  0.00  0.00     0.059 A 
ATOM      4  C   UNL d   1      -0.216  -2.678   2.193  0.00  0.00     0.065 A 
ATOM      5  C   UNL d   1       1.378  -4.471   2.479  0.00  0.00     0.102 A 
ATOM      6  C   UNL d   1       0.058  -4.001   2.569  0.00  0.00     0.103 A 
ENDROOT
BRANCH   2   7
ATOM      7  N   UNL d   1       0.455  -0.435   1.456  0.00  0.00    -0.180 NA
ATOM      8  H   UNL d   1      -0.394  -0.148   1.958  0.00  0.00     0.146 HD
BRANCH   7   9
ATOM      9  S   UNL d   1       0.080  -0.241  -0.225  0.00  0.00     0.245 S 
ATOM     10  O   UNL d   1      -1.195  -0.897  -0.424  0.00  0.00    -0.206 OA
ATOM     11  O   UNL d   1       1.254  -0.554  -0.999  0.00  0.00    -0.206 OA
BRANCH   9  12
ATOM     12  C   UNL d   1      -0.185   1.519  -0.297  0.00  0.00     0.075 A 
ATOM     13  C   UNL d   1       0.851   2.389   0.063  0.00  0.00     0.028 A 
ATOM     14  C   UNL d   1       0.617   3.767   0.075  0.00  0.00     0.044 A 
ATOM     15  C   UNL d   1      -0.633   4.257  -0.289  0.00  0.00     0.116 A 
ATOM     16  C   UNL d   1      -1.658   3.397  -0.673  0.00  0.00     0.044 A 
ATOM     17  F   UNL d   1      -0.855   5.577  -0.271  0.00  0.00    -0.206 F 
ATOM     18  C   UNL d   1      -1.438   2.017  -0.677  0.00  0.00     0.028 A 
ENDBRANCH   9  12
ENDBRANCH   7   9
ENDBRANCH   2   7
BRANCH   1  19
ATOM     19  C   UNL d   1       3.332  -1.408   1.472  0.00  0.00     0.178 C 
ATOM     20  O   UNL d   1       4.447  -1.869   1.280  0.00  0.00    -0.646 OA
BRANCH  19  21
ATOM     21  O   UNL d   1       3.105  -0.081   1.548  0.00  0.00    -0.773 OA
ATOM     22  H   UNL d   1       2.157   0.116   1.690  0.00  0.00     0.167 HD
ENDBRANCH  19  21
ENDBRANCH   1  19
BRANCH   6  23
ATOM     23  O   UNL d   1      -0.888  -4.864   3.051  0.00  0.00    -0.353 OA
ATOM     24  C   UNL d   1      -2.182  -4.363   3.355  0.00  0.00     0.210 C 
ENDBRANCH   6  23
BRANCH   5  25
ATOM     25  O   UNL d   1       1.835  -5.719   2.815  0.00  0.00    -0.353 OA
ATOM     26  C   UNL d   1       0.951  -6.813   2.600  0.00  0.00     0.210 C 
ENDBRANCH   5  25
TORSDOF 7
