REMARK  5 active torsions:
REMARK  status: ('A' for Active; 'I' for Inactive)
REMARK    1  A    between atoms: C_2  and  CA_1 
REMARK    2  A    between atoms: N_3  and  CA_1 
REMARK    3  A    between atoms: C_6  and  CA_1 
REMARK    4  A    between atoms: OXT_8  and  C_2 
REMARK    5  A    between atoms: C_4  and  N_3 
ROOT
ATOM      1  CA  UNL d   1       2.460  -0.008  -0.070  0.00  0.00     0.192 C 
ENDROOT
BRANCH   1   2
ATOM      2  C   UNL d   1       2.788  -0.556  -1.479  0.00  0.00     0.163 C 
ATOM      3  O   UNL d   1       3.192   0.130  -2.412  0.00  0.00    -0.649 OA
BRANCH   2   4
ATOM      4  OXT UNL d   1       2.583  -1.892  -1.615  0.00  0.00    -0.775 OA
ATOM      5  HXT UNL d   1       2.200  -2.319  -0.824  0.00  0.00     0.167 HD
ENDBRANCH   2   4
ENDBRANCH   1   2
BRANCH   1   6
ATOM      6  N   UNL d   1       3.060   1.322   0.150  0.00  0.00    -0.275 NA
ATOM      7  H   UNL d   1       3.058   1.833  -0.739  0.00  0.00     0.129 HD
BRANCH   6   8
ATOM      8  C   UNL d   1       4.350   1.425   0.690  0.00  0.00     0.009 A 
ATOM      9  C   UNL d   1       5.372   0.491   0.486  0.00  0.00     0.030 A 
ATOM     10  C   UNL d   1       6.674   0.721   0.965  0.00  0.00    -0.060 A 
ATOM     11  C   UNL d   1       7.766  -0.284   0.746  0.00  0.00     0.048 C 
ATOM     12  C   UNL d   1       6.953   1.910   1.646  0.00  0.00     0.007 A 
ATOM     13  C   UNL d   1       5.957   2.863   1.826  0.00  0.00     0.002 A 
ATOM     14  C   UNL d   1       4.672   2.625   1.337  0.00  0.00     0.023 A 
ENDBRANCH   6   8
ENDBRANCH   1   6
BRANCH   1  15
ATOM     15  C   UNL d   1       0.954   0.117   0.119  0.00  0.00    -0.030 A 
ATOM     16  C   UNL d   1       0.299  -0.603   1.132  0.00  0.00     0.009 A 
ATOM     17  C   UNL d   1      -1.079  -0.470   1.319  0.00  0.00     0.001 A 
ATOM     18  C   UNL d   1      -1.818   0.384   0.503  0.00  0.00     0.000 A 
ATOM     19  C   UNL d   1      -1.184   1.106  -0.504  0.00  0.00     0.001 A 
ATOM     20  C   UNL d   1       0.191   0.970  -0.699  0.00  0.00     0.009 A 
ENDBRANCH   1  15
TORSDOF 5
