REMARK  8 active torsions:
REMARK  status: ('A' for Active; 'I' for Inactive)
REMARK    1  A    between atoms: S_2  and  N_1 
REMARK    2  A    between atoms: S_3  and  N_1 
REMARK    3  A    between atoms: C_4  and  N_1 
REMARK    4  A    between atoms: C_7  and  S_2 
REMARK    5  A    between atoms: C_8  and  S_3 
REMARK    6  A    between atoms: C_6  and  C_5 
REMARK       I    between atoms: C_13  and  N_15 
REMARK       I    between atoms: C_14  and  N_16 
REMARK    7  A    between atoms: N_15  and  C_26 
REMARK    8  A    between atoms: N_16  and  C_27 
ROOT
ATOM      1  N   UNL d   1       0.953   0.032   0.247  0.00  0.00    -0.157 N 
ENDROOT
BRANCH   1   2
ATOM      2  S   UNL d   1       0.085  -1.388   0.030  0.00  0.00     0.278 S 
ATOM      3  O   UNL d   1      -0.325  -1.851   1.341  0.00  0.00    -0.199 OA
ATOM      4  O   UNL d   1      -0.899  -1.220  -1.019  0.00  0.00    -0.199 OA
BRANCH   2   5
ATOM      5  C   UNL d   1       1.247  -2.604  -0.575  0.00  0.00     0.081 A 
ATOM      6  C   UNL d   1       1.931  -3.426   0.320  0.00  0.00     0.027 A 
ATOM      7  C   UNL d   1       2.817  -4.391  -0.173  0.00  0.00     0.031 A 
ATOM      8  C   UNL d   1       3.028  -4.534  -1.553  0.00  0.00     0.034 A 
ATOM      9  C   UNL d   1       2.305  -3.728  -2.436  0.00  0.00     0.031 A 
ATOM     10  C   UNL d   1       1.402  -2.777  -1.953  0.00  0.00     0.027 A 
BRANCH   8  11
ATOM     11  N   UNL d   1       3.951  -5.515  -1.973  0.00  0.00    -0.328 N 
ATOM     12  C   UNL d   1       4.455  -5.685  -3.250  0.00  0.00     0.218 C 
ATOM     13  O   UNL d   1       4.250  -4.961  -4.218  0.00  0.00    -0.274 OA
ATOM     14  C   UNL d   1       5.362  -6.884  -3.377  0.00  0.00     0.117 C 
ATOM     15  H   UNL d   1       4.331  -6.108  -1.246  0.00  0.00     0.169 HD
ENDBRANCH   8  11
ENDBRANCH   2   5
ENDBRANCH   1   2
BRANCH   1  16
ATOM     16  S   UNL d   1       0.108   1.486   0.158  0.00  0.00     0.278 S 
ATOM     17  O   UNL d   1       0.931   2.517   0.771  0.00  0.00    -0.199 OA
ATOM     18  O   UNL d   1      -0.373   1.685  -1.195  0.00  0.00    -0.199 OA
BRANCH  16  19
ATOM     19  C   UNL d   1      -1.281   1.267   1.246  0.00  0.00     0.081 A 
ATOM     20  C   UNL d   1      -1.046   1.240   2.621  0.00  0.00     0.027 A 
ATOM     21  C   UNL d   1      -2.111   1.072   3.504  0.00  0.00     0.031 A 
ATOM     22  C   UNL d   1      -3.424   0.965   3.030  0.00  0.00     0.034 A 
ATOM     23  C   UNL d   1      -3.652   1.022   1.651  0.00  0.00     0.031 A 
ATOM     24  C   UNL d   1      -2.583   1.172   0.753  0.00  0.00     0.027 A 
BRANCH  22  25
ATOM     25  N   UNL d   1      -4.430   0.811   4.005  0.00  0.00    -0.328 N 
ATOM     26  C   UNL d   1      -5.793   0.728   3.812  0.00  0.00     0.218 C 
ATOM     27  O   UNL d   1      -6.387   0.779   2.739  0.00  0.00    -0.274 OA
ATOM     28  C   UNL d   1      -6.561   0.572   5.104  0.00  0.00     0.117 C 
ATOM     29  H   UNL d   1      -4.104   0.768   4.962  0.00  0.00     0.169 HD
ENDBRANCH  22  25
ENDBRANCH  16  19
ENDBRANCH   1  16
BRANCH   1  30
ATOM     30  C   UNL d   1       2.332   0.098  -0.146  0.00  0.00     0.077 A 
ATOM     31  C   UNL d   1       3.362  -0.028   0.807  0.00  0.00     0.076 A 
ATOM     32  C   UNL d   1       4.699  -0.058   0.362  0.00  0.00     0.018 A 
ATOM     33  C   UNL d   1       5.010   0.060  -0.990  0.00  0.00     0.001 A 
ATOM     34  C   UNL d   1       3.991   0.229  -1.920  0.00  0.00     0.002 A 
ATOM     35  C   UNL d   1       2.660   0.258  -1.502  0.00  0.00     0.032 A 
BRANCH  31  36
ATOM     36  C   UNL d   1       3.131  -0.143   2.292  0.00  0.00     0.419 C 
ATOM     37  F   UNL d   1       1.856   0.094   2.695  0.00  0.00    -0.166 F 
ATOM     38  F   UNL d   1       3.433  -1.390   2.754  0.00  0.00    -0.166 F 
ATOM     39  F   UNL d   1       3.908   0.714   3.011  0.00  0.00    -0.166 F 
ENDBRANCH  31  36
ENDBRANCH   1  30
TORSDOF 8
