REMARK  6 active torsions:
REMARK  status: ('A' for Active; 'I' for Inactive)
REMARK    1  A    between atoms: C_4  and  S_1 
REMARK    2  A    between atoms: N_6  and  S_1 
REMARK    3  A    between atoms: N_2  and  C_9 
REMARK    4  A    between atoms: O_5  and  C_3 
REMARK    5  A    between atoms: C_13  and  O_5 
REMARK    6  A    between atoms: C_20  and  N_6 
ROOT
ATOM      1  C   UNL d   1      -0.069  -4.273  -1.224  0.00  0.00     0.119 A 
ATOM      2  C   UNL d   1       0.508  -1.627  -0.512  0.00  0.00     0.083 A 
ATOM      3  C   UNL d   1       1.162  -3.951  -0.629  0.00  0.00     0.071 A 
ATOM      4  C   UNL d   1      -0.968  -3.236  -1.528  0.00  0.00     0.071 A 
ATOM      5  C   UNL d   1      -0.683  -1.915  -1.180  0.00  0.00     0.052 A 
ATOM      6  C   UNL d   1       1.437  -2.634  -0.245  0.00  0.00     0.052 A 
ATOM      7 CL   UNL d   1       2.418  -5.113  -0.386  0.00  0.00    -0.081 Cl
ATOM      8 CL   UNL d   1      -2.454  -3.550  -2.352  0.00  0.00    -0.081 Cl
ENDROOT
BRANCH   2   9
ATOM      9  S   UNL d   1       0.871   0.054  -0.066  0.00  0.00     0.263 S 
ATOM     10  O   UNL d   1       0.354   0.894  -1.122  0.00  0.00    -0.200 OA
ATOM     11  O   UNL d   1       2.256   0.121   0.351  0.00  0.00    -0.200 OA
BRANCH   9  12
ATOM     12  N   UNL d   1      -0.117   0.290   1.263  0.00  0.00    -0.281 N 
ATOM     13  H   UNL d   1      -0.849   0.994   1.179  0.00  0.00     0.179 HD
BRANCH  12  14
ATOM     14  C   UNL d   1       0.116  -0.380   2.482  0.00  0.00     0.044 A 
ATOM     15  C   UNL d   1      -0.723  -1.434   2.843  0.00  0.00     0.057 A 
ATOM     16  C   UNL d   1      -0.526  -2.083   4.061  0.00  0.00     0.074 A 
ATOM     17 CL   UNL d   1      -1.541  -3.409   4.480  0.00  0.00    -0.081 Cl
ATOM     18  C   UNL d   1       0.487  -1.659   4.921  0.00  0.00     0.138 A 
ATOM     19  C   UNL d   1       1.313  -0.595   4.569  0.00  0.00     0.046 A 
ATOM     20  F   UNL d   1       0.681  -2.263   6.102  0.00  0.00    -0.204 F 
ATOM     21  C   UNL d   1       1.129   0.048   3.344  0.00  0.00     0.033 A 
ENDBRANCH  12  14
ENDBRANCH   9  12
ENDBRANCH   2   9
BRANCH   1  22
ATOM     22  O   UNL d   1      -0.412  -5.538  -1.647  0.00  0.00    -0.306 OA
BRANCH  22  23
ATOM     23  C   UNL d   1      -0.408  -6.600  -0.766  0.00  0.00     0.098 A 
ATOM     24  C   UNL d   1      -0.322  -7.885  -1.331  0.00  0.00     0.070 A 
ATOM     25  C   UNL d   1      -0.242  -9.020  -0.522  0.00  0.00     0.062 A 
ATOM     26 CL   UNL d   1      -0.299  -8.109  -3.045  0.00  0.00    -0.081 Cl
ATOM     27  C   UNL d   1      -0.252  -8.868   0.868  0.00  0.00     0.104 A 
ATOM     28  C   UNL d   1      -0.391  -7.599   1.446  0.00  0.00     0.039 A 
ATOM     29  C   UNL d   1      -0.493  -6.470   0.626  0.00  0.00     0.041 A 
BRANCH  27  30
ATOM     30  N   UNL d   1      -0.104 -10.049   1.728  0.00  0.00    -0.116 N 
ATOM     31  O   UNL d   1      -0.084 -11.160   1.181  0.00  0.00    -0.532 OA
ATOM     32  O   UNL d   1      -0.002  -9.862   2.948  0.00  0.00    -0.532 OA
ENDBRANCH  27  30
ENDBRANCH  22  23
ENDBRANCH   1  22
TORSDOF 6
