REMARK  6 active torsions:
REMARK  status: ('A' for Active; 'I' for Inactive)
REMARK    1  A    between atoms: C_4  and  C_1 
REMARK    2  A    between atoms: C_5  and  C_1 
REMARK    3  A    between atoms: C_6  and  C_2 
REMARK    4  A    between atoms: N_3  and  C_7 
REMARK    5  A    between atoms: O_16  and  C_4 
REMARK    6  A    between atoms: O_15  and  C_5 
ROOT
ATOM      1  C   UNL d   1       1.115   2.429   0.282  0.00  0.00    -0.008 A 
ATOM      2  C   UNL d   1       2.203   2.626  -0.611  0.00  0.00     0.040 A 
ATOM      3  C   UNL d   1       0.692   3.452   1.146  0.00  0.00     0.014 A 
ATOM      4  C   UNL d   1       2.842   3.879  -0.567  0.00  0.00     0.030 A 
ATOM      5  C   UNL d   1       1.348   4.681   1.156  0.00  0.00     0.001 A 
ATOM      6  C   UNL d   1       2.423   4.893   0.302  0.00  0.00     0.002 A 
ENDROOT
BRANCH   1   7
ATOM      7  C   UNL d   1       0.398   1.139   0.344  0.00  0.00     0.039 C 
ATOM      8  C   UNL d   1       0.717   0.048   1.075  0.00  0.00     0.111 C 
BRANCH   8   9
ATOM      9  C   UNL d   1       0.063  -1.252   0.770  0.00  0.00     0.183 C 
ATOM     10  O   UNL d   1       0.550  -2.303   1.164  0.00  0.00    -0.646 OA
BRANCH   9  11
ATOM     11  O   UNL d   1      -1.048  -1.250   0.010  0.00  0.00    -0.772 OA
ATOM     12  H   UNL d   1      -1.492  -0.402  -0.153  0.00  0.00     0.167 HD
ENDBRANCH   9  11
ENDBRANCH   8   9
BRANCH   8  13
ATOM     13  C   UNL d   1       1.794   0.094   2.111  0.00  0.00     0.183 C 
ATOM     14  O   UNL d   1       2.198   1.121   2.636  0.00  0.00    -0.646 OA
BRANCH  13  15
ATOM     15  O   UNL d   1       2.277  -1.109   2.501  0.00  0.00    -0.772 OA
ATOM     16  H   UNL d   1       1.841  -1.893   2.086  0.00  0.00     0.167 HD
ENDBRANCH  13  15
ENDBRANCH   8  13
ENDBRANCH   1   7
BRANCH   2  17
ATOM     17  N   UNL d   1       2.659   1.613  -1.447  0.00  0.00    -0.377 N 
ATOM     18  C   UNL d   1       4.068   1.542  -1.870  0.00  0.00     0.153 C 
ATOM     19  C   UNL d   1       4.461   0.054  -2.069  0.00  0.00     0.291 C 
ATOM     20  N   UNL d   1       3.540  -0.732  -2.932  0.00  0.00     0.087 N 
ATOM     21  C   UNL d   1       2.132  -0.505  -2.537  0.00  0.00     0.291 C 
ATOM     22  C   UNL d   1       3.857  -2.159  -2.824  0.00  0.00     0.310 C 
ATOM     23  C   UNL d   1       1.769   0.993  -2.440  0.00  0.00     0.153 C 
ENDBRANCH   2  17
TORSDOF 6
