REMARK  3 active torsions:
REMARK  status: ('A' for Active; 'I' for Inactive)
REMARK    1  A    between atoms: N_2  and  C_1 
REMARK    2  A    between atoms: N_4  and  N_2 
REMARK       I    between atoms: C_3  and  N_4 
REMARK       I    between atoms: N_5  and  C_3 
REMARK    3  A    between atoms: C_11  and  N_5 
ROOT
ATOM      1  N   UNL d   1      -0.406   2.010   0.544  0.00  0.00    -0.293 N 
ATOM      2  H   UNL d   1       0.389   2.465   1.013  0.00  0.00     0.187 HD
ENDROOT
BRANCH   1   3
ATOM      3  C   UNL d   1      -0.079   0.760  -0.053  0.00  0.00     0.091 A 
ATOM      4  C   UNL d   1      -0.637   0.223  -1.238  0.00  0.00     0.063 A 
ATOM      5 CL   UNL d   1      -1.699   1.085  -2.309  0.00  0.00    -0.082 Cl
ATOM      6  C   UNL d   1      -0.344  -1.089  -1.651  0.00  0.00     0.026 A 
ATOM      7  C   UNL d   1       0.481  -1.911  -0.894  0.00  0.00     0.003 A 
ATOM      8  C   UNL d   1       1.040  -1.421   0.278  0.00  0.00     0.026 A 
ATOM      9  C   UNL d   1       0.767  -0.108   0.688  0.00  0.00     0.063 A 
ATOM     10 CL   UNL d   1       1.496   0.415   2.175  0.00  0.00    -0.082 Cl
ENDBRANCH   1   3
BRANCH   1  11
ATOM     11  N   UNL d   1      -1.216   2.887  -0.166  0.00  0.00    -0.251 N 
ATOM     12  C   UNL d   1      -1.058   4.243   0.055  0.00  0.00     0.335 C 
ATOM     13  N   UNL d   1      -2.065   4.939  -0.580  0.00  0.00    -0.338 N 
ATOM     14  O   UNL d   1      -0.154   4.736   0.718  0.00  0.00    -0.246 OA
ATOM     15  H   UNL d   1      -2.465   4.459  -1.371  0.00  0.00     0.164 HD
ATOM     16  H   UNL d   1      -2.176   2.569  -0.242  0.00  0.00     0.191 HD
BRANCH  13  17
ATOM     17  C   UNL d   1      -2.204   6.390  -0.572  0.00  0.00     0.078 C 
ATOM     18  C   UNL d   1      -2.435   6.944   0.831  0.00  0.00     0.032 C 
ATOM     19  C   UNL d   1      -1.046   7.087  -1.276  0.00  0.00     0.032 C 
ENDBRANCH  13  17
ENDBRANCH   1  11
TORSDOF 3
