REMARK  3 active torsions:
REMARK  status: ('A' for Active; 'I' for Inactive)
REMARK       I    between atoms: N_2  and  C_1 
REMARK    1  A    between atoms: C_7  and  C_1 
REMARK    2  A    between atoms: C_3  and  N_2 
REMARK    3  A    between atoms: C_4  and  C_7 
ROOT
ATOM      1  C   UNL d   1       1.185   0.035   0.021  0.00  0.00     0.226 C 
ATOM      2  N   UNL d   1       1.296   1.363   0.402  0.00  0.00    -0.324 N 
ATOM      3  O   UNL d   1       1.752  -0.904   0.580  0.00  0.00    -0.273 OA
ATOM      4  H   UNL d   1       0.486   1.947   0.224  0.00  0.00     0.169 HD
ENDROOT
BRANCH   1   5
ATOM      5  C   UNL d   1       0.296  -0.182  -1.192  0.00  0.00     0.142 C 
BRANCH   5   6
ATOM      6  C   UNL d   1      -1.192  -0.181  -0.903  0.00  0.00    -0.038 A 
ATOM      7  C   UNL d   1      -1.910  -1.364  -0.536  0.00  0.00    -0.019 A 
ATOM      8  C   UNL d   1      -3.314  -1.263  -0.314  0.00  0.00    -0.025 A 
ATOM      9  C   UNL d   1      -1.324  -2.637  -0.387  0.00  0.00     0.013 A 
ATOM     10  C   UNL d   1      -4.059  -2.407   0.026  0.00  0.00     0.012 A 
ATOM     11  C   UNL d   1      -3.961  -0.029  -0.445  0.00  0.00     0.012 A 
ATOM     12  C   UNL d   1      -3.451  -3.652   0.149  0.00  0.00     0.001 A 
ATOM     13  C   UNL d   1      -2.082  -3.767  -0.057  0.00  0.00     0.001 A 
ATOM     14  C   UNL d   1      -3.250   1.113  -0.798  0.00  0.00     0.001 A 
ATOM     15  C   UNL d   1      -1.883   1.036  -1.030  0.00  0.00     0.008 A 
ENDBRANCH   5   6
ENDBRANCH   1   5
BRANCH   2  16
ATOM     16  C   UNL d   1       2.151   1.810   1.432  0.00  0.00     0.073 A 
ATOM     17  C   UNL d   1       1.686   2.805   2.299  0.00  0.00     0.145 A 
ATOM     18  C   UNL d   1       2.463   3.268   3.353  0.00  0.00     0.086 A 
ATOM     19  F   UNL d   1       0.444   3.290   2.141  0.00  0.00    -0.204 F 
ATOM     20  C   UNL d   1       3.748   2.766   3.506  0.00  0.00     0.119 A 
ATOM     21  C   UNL d   1       4.254   1.809   2.630  0.00  0.00     0.044 A 
ATOM     22  F   UNL d   1       4.514   3.212   4.509  0.00  0.00    -0.206 F 
ATOM     23  C   UNL d   1       3.450   1.317   1.597  0.00  0.00     0.036 A 
ENDBRANCH   2  16
TORSDOF 3
