REMARK  4 active torsions:
REMARK  status: ('A' for Active; 'I' for Inactive)
REMARK    1  A    between atoms: C_3  and  N_1 
REMARK    2  A    between atoms: C_2  and  C_8 
REMARK    3  A    between atoms: N_7  and  C_6 
REMARK    4  A    between atoms: C_8  and  N_7 
ROOT
ATOM      1  C   UNL d   1       1.282   0.391   2.347  0.00  0.00     0.115 C 
ATOM      2  C   UNL d   1       0.020   0.092   2.908  0.00  0.00     0.026 A 
ATOM      3  C   UNL d   1      -0.759   1.166   3.400  0.00  0.00     0.071 A 
ATOM      4  C   UNL d   1      -0.252   2.490   3.334  0.00  0.00     0.056 C 
ATOM      5  C   UNL d   1       1.833   1.670   2.394  0.00  0.00     0.039 C 
ATOM      6  N   UNL d   1      -1.979   0.954   3.948  0.00  0.00    -0.363 N 
ATOM      7  HN  UNL d   1      -2.551   1.740   4.256  1.00  0.00     0.165 HD
ATOM      8  C   UNL d   1       1.074   2.701   2.928  0.00  0.00     0.034 C 
ATOM      9  C   UNL d   1      -0.510  -1.215   3.039  0.00  0.00     0.017 A 
ATOM     10  C   UNL d   1      -2.430  -0.313   4.080  0.00  0.00     0.088 A 
ATOM     11  C   UNL d   1      -1.739  -1.422   3.648  0.00  0.00     0.018 A 
ENDROOT
BRANCH   4  12
ATOM     12  N   UNL d   1      -1.095   3.550   3.670  0.00  0.00    -0.383 N 
ATOM     13  H   UNL d   1      -2.051   3.247   3.869  0.00  0.00     0.160 HD
BRANCH  12  14
ATOM     14  C   UNL d   1      -0.793   4.978   3.734  0.00  0.00     0.086 C 
ATOM     15  C   UNL d   1      -1.598   5.547   4.916  0.00  0.00     0.033 C 
BRANCH  14  16
ATOM     16  C   UNL d   1      -1.047   5.730   2.373  0.00  0.00    -0.019 C 
ATOM     17  C   UNL d   1      -2.522   5.666   1.889  0.00  0.00     0.016 C 
ATOM     18  C   UNL d   1      -2.702   6.430   0.559  0.00  0.00    -0.013 C 
ATOM     19  C   UNL d   1      -2.307   7.904   0.751  0.00  0.00     0.009 C 
ATOM     20  C   UNL d   1      -1.800   5.814  -0.521  0.00  0.00     0.009 C 
ATOM     21  C   UNL d   1      -0.841   8.001   1.199  0.00  0.00    -0.013 C 
ATOM     22  C   UNL d   1      -0.669   7.237   2.524  0.00  0.00     0.016 C 
ATOM     23  C   UNL d   1       0.061   7.376   0.127  0.00  0.00     0.009 C 
ATOM     24  C   UNL d   1      -0.332   5.909  -0.087  0.00  0.00    -0.013 C 
ATOM     25  C   UNL d   1      -0.156   5.150   1.235  0.00  0.00     0.016 C 
ENDBRANCH  14  16
ENDBRANCH  12  14
ENDBRANCH   4  12
BRANCH   1  26
ATOM     26  N   UNL d   1       2.054  -0.632   1.666  0.00  0.00    -0.115 N 
ATOM     27  O   UNL d   1       1.514  -1.225   0.724  0.00  0.00    -0.532 OA
ATOM     28  O   UNL d   1       3.215  -0.818   2.061  0.00  0.00    -0.532 OA
ENDBRANCH   1  26
TORSDOF 4
