REMARK  2 active torsions:
REMARK  status: ('A' for Active; 'I' for Inactive)
REMARK    1  A    between atoms: N_2  and  C_1 
REMARK    2  A    between atoms: N_5  and  C_3 
REMARK       I    between atoms: C_8  and  N_5 
ROOT
ATOM      1  C   UNL d   1       0.104  -1.851  -0.099  0.00  0.00     0.135 A 
ATOM      2  C   UNL d   1       1.280  -1.089   0.020  0.00  0.00     0.107 A 
ATOM      3  C   UNL d   1       1.141   0.301   0.126  0.00  0.00     0.148 A 
ATOM      4  C   UNL d   1      -1.161  -1.236  -0.133  0.00  0.00     0.080 A 
ATOM      5  C   UNL d   1      -0.099   0.926   0.071  0.00  0.00     0.087 A 
ATOM      6  C   UNL d   1      -1.238   0.147  -0.061  0.00  0.00     0.121 A 
ATOM      7  F   UNL d   1       2.241   1.062   0.244  0.00  0.00    -0.203 F 
ATOM      8  F   UNL d   1      -2.441   0.740  -0.088  0.00  0.00    -0.206 F 
ENDROOT
BRANCH   2   9
ATOM      9  N   UNL d   1       2.606  -1.588   0.038  0.00  0.00    -0.323 N 
ATOM     10  C   UNL d   1       3.042  -2.591  -0.806  0.00  0.00     0.218 C 
ATOM     11  O   UNL d   1       2.367  -3.072  -1.708  0.00  0.00    -0.274 OA
ATOM     12  C   UNL d   1       4.467  -3.013  -0.565  0.00  0.00     0.117 C 
ATOM     13  H   UNL d   1       3.320  -0.948   0.373  0.00  0.00     0.169 HD
ENDBRANCH   2   9
BRANCH   1  14
ATOM     14  N   UNL d   1       0.110  -3.304  -0.004  0.00  0.00    -0.113 N 
ATOM     15  O   UNL d   1       0.764  -3.807   0.923  0.00  0.00    -0.532 OA
ATOM     16  O   UNL d   1      -0.624  -3.923  -0.783  0.00  0.00    -0.532 OA
ENDBRANCH   1  14
TORSDOF 2
