REMARK  7 active torsions:
REMARK  status: ('A' for Active; 'I' for Inactive)
REMARK    1  A    between atoms: N_6  and  C_1 
REMARK    2  A    between atoms: S_2  and  N_6 
REMARK    3  A    between atoms: C_11  and  S_2 
REMARK    4  A    between atoms: C_9  and  N_3 
REMARK    5  A    between atoms: C_16  and  C_8 
REMARK    6  A    between atoms: C_10  and  O_18 
REMARK    7  A    between atoms: O_18  and  C_28 
ROOT
ATOM      1  C   UNL d   1      -0.389  -1.122  -0.160  0.00  0.00     0.139 C 
ATOM      2  N   UNL d   1       0.915  -0.699   0.035  0.00  0.00    -0.239 N 
ATOM      3  N   UNL d   1       0.956   0.637   0.279  0.00  0.00    -0.291 N 
ATOM      4  HN  UNL d   1       1.734   1.179   0.656  1.00  0.00     0.187 HD
ATOM      5  C   UNL d   1      -1.106   0.009  -0.450  0.00  0.00     0.082 C 
ATOM      6  C   UNL d   1      -0.257   1.086  -0.090  0.00  0.00     0.062 C 
ENDROOT
BRANCH   1   7
ATOM      7  N   UNL d   1      -0.967  -2.419  -0.101  0.00  0.00    -0.264 N 
ATOM      8  H   UNL d   1      -0.696  -3.161  -0.744  0.00  0.00     0.180 HD
BRANCH   7   9
ATOM      9  S   UNL d   1      -1.492  -3.021   1.416  0.00  0.00     0.264 S 
ATOM     10  O   UNL d   1      -2.545  -2.163   1.882  0.00  0.00    -0.200 OA
ATOM     11  O   UNL d   1      -1.701  -4.449   1.194  0.00  0.00    -0.200 OA
BRANCH   9  12
ATOM     12  C   UNL d   1      -0.115  -2.872   2.553  0.00  0.00     0.082 A 
ATOM     13  C   UNL d   1       0.721  -3.964   2.786  0.00  0.00     0.067 A 
ATOM     14  C   UNL d   1       1.725  -3.857   3.746  0.00  0.00     0.117 A 
ATOM     15  F   UNL d   1       2.545  -4.894   3.966  0.00  0.00    -0.206 F 
ATOM     16  C   UNL d   1       1.902  -2.687   4.477  0.00  0.00     0.042 A 
ATOM     17  C   UNL d   1       1.050  -1.605   4.257  0.00  0.00     0.005 A 
ATOM     18  C   UNL d   1       0.024  -1.703   3.312  0.00  0.00     0.025 A 
ENDBRANCH   9  12
ENDBRANCH   7   9
ENDBRANCH   1   7
BRANCH   2  19
ATOM     19  C   UNL d   1       2.088  -1.487   0.015  0.00  0.00     0.059 A 
ATOM     20  C   UNL d   1       2.136  -2.637  -0.784  0.00  0.00     0.039 A 
ATOM     21  C   UNL d   1       3.291  -3.424  -0.840  0.00  0.00    -0.054 A 
ATOM     22  C   UNL d   1       3.321  -4.619  -1.754  0.00  0.00     0.049 C 
ATOM     23  C   UNL d   1       4.406  -3.062  -0.058  0.00  0.00    -0.056 A 
ATOM     24  C   UNL d   1       4.343  -1.907   0.742  0.00  0.00     0.009 A 
ATOM     25  C   UNL d   1       5.672  -3.870  -0.091  0.00  0.00     0.049 C 
ATOM     26  C   UNL d   1       3.203  -1.105   0.760  0.00  0.00     0.032 A 
ENDBRANCH   2  19
BRANCH   6  27
ATOM     27  C   UNL d   1      -0.630   2.498  -0.008  0.00  0.00    -0.008 A 
ATOM     28  C   UNL d   1      -0.009   3.331   0.928  0.00  0.00     0.016 A 
ATOM     29  C   UNL d   1      -0.404   4.663   1.071  0.00  0.00     0.038 A 
ATOM     30  C   UNL d   1      -1.385   5.201   0.242  0.00  0.00     0.078 A 
ATOM     31  C   UNL d   1      -2.027   4.369  -0.678  0.00  0.00     0.038 A 
ATOM     32  C   UNL d   1      -1.654   3.027  -0.803  0.00  0.00     0.016 A 
BRANCH  30  33
ATOM     33  O   UNL d   1      -1.831   6.485   0.267  0.00  0.00    -0.255 OA
BRANCH  33  34
ATOM     34  C   UNL d   1      -0.944   7.524   0.661  0.00  0.00     0.530 C 
ATOM     35  F   UNL d   1       0.323   7.126   0.903  0.00  0.00    -0.144 F 
ATOM     36  F   UNL d   1      -0.896   8.447  -0.325  0.00  0.00    -0.144 F 
ATOM     37  F   UNL d   1      -1.427   8.118   1.773  0.00  0.00    -0.144 F 
ENDBRANCH  33  34
ENDBRANCH  30  33
ENDBRANCH   6  27
TORSDOF 7
