REMARK  2 active torsions:
REMARK  status: ('A' for Active; 'I' for Inactive)
REMARK    1  A    between atoms: C_7  and  C_3 
REMARK    2  A    between atoms: N_14  and  C_4 
ROOT
ATOM      1  C   UNL d   1      -1.700  -0.345   0.132  0.00  0.00     0.081 A 
ATOM      2  C   UNL d   1       0.813  -0.400   0.038  0.00  0.00     0.032 A 
ATOM      3  C   UNL d   1      -0.454  -1.228   0.079  0.00  0.00     0.112 A 
ATOM      4  C   UNL d   1      -1.624   1.001   0.051  0.00  0.00     0.138 A 
ATOM      5  C   UNL d   1       0.783   0.941  -0.051  0.00  0.00     0.066 A 
ATOM      6  O   UNL d   1      -0.404   1.651  -0.085  0.00  0.00    -0.301 OA
ATOM      7  C   UNL d   1      -2.971  -0.987   0.249  0.00  0.00     0.100 C 
ATOM      8  C   UNL d   1       2.133  -1.094   0.080  0.00  0.00     0.159 C 
ATOM      9  N   UNL d   1      -4.012  -1.488   0.320  0.00  0.00    -0.191 NA
ATOM     10  O   UNL d   1       2.195  -2.315   0.213  0.00  0.00    -0.293 OA
ATOM     11  C   UNL d   1       2.002   1.817  -0.094  0.00  0.00     0.066 C 
ATOM     12  C   UNL d   1       3.393  -0.271  -0.093  0.00  0.00     0.084 C 
ATOM     13  C   UNL d   1       3.225   1.122   0.487  0.00  0.00     0.014 C 
ENDROOT
BRANCH   3  14
ATOM     14  C   UNL d   1      -0.541  -2.269  -1.031  0.00  0.00    -0.004 A 
ATOM     15  S   UNL d   1      -0.532  -1.790  -2.681  0.00  0.00    -0.105 SA
ATOM     16  C   UNL d   1      -0.701  -3.401  -3.214  0.00  0.00     0.050 A 
ATOM     17  C   UNL d   1      -0.736  -4.295  -2.168  0.00  0.00     0.008 A 
ATOM     18  C   UNL d   1      -0.639  -3.643  -0.905  0.00  0.00     0.016 A 
ENDBRANCH   3  14
BRANCH   4  19
ATOM     19  N   UNL d   1      -2.687   1.873   0.085  0.00  0.00    -0.282 NA
ATOM     20  H   UNL d   1      -3.582   1.493  -0.215  0.00  0.00     0.126 HD
ATOM     21  H   UNL d   1      -2.467   2.767  -0.347  0.00  0.00     0.126 HD
ENDBRANCH   4  19
TORSDOF 2
