REMARK  4 active torsions:
REMARK  status: ('A' for Active; 'I' for Inactive)
REMARK    1  A    between atoms: S_10  and  C_3 
REMARK    2  A    between atoms: C_4  and  C_8 
REMARK    3  A    between atoms: O_14  and  C_5 
REMARK    4  A    between atoms: C_8  and  S_10 
ROOT
ATOM      1  N   UNL d   1      -0.426  -0.780  -0.031  0.00  0.00    -0.318 N 
ATOM      2  HN  UNL d   1      -0.732  -1.753  -0.044  1.00  0.00     0.170 HD
ATOM      3  C   UNL d   1      -1.290   0.248  -0.044  0.00  0.00     0.146 A 
ATOM      4  C   UNL d   1       0.862  -0.433   0.000  0.00  0.00     0.143 A 
ATOM      5  N   UNL d   1      -0.933   1.547  -0.030  0.00  0.00    -0.341 N 
ATOM      6  HN  UNL d   1      -1.634   2.288  -0.044  1.00  0.00     0.167 HD
ATOM      7  C   UNL d   1       1.348   0.845   0.019  0.00  0.00     0.080 A 
ATOM      8  C   UNL d   1       0.388   1.830   0.004  0.00  0.00     0.011 A 
ATOM      9  C   UNL d   1       0.765   3.279   0.026  0.00  0.00     0.068 C 
ENDROOT
BRANCH   3  10
ATOM     10  S   UNL d   1      -3.019  -0.171  -0.080  0.00  0.00    -0.089 SA
BRANCH  10  11
ATOM     11  C   UNL d   1      -3.752   1.495  -0.056  0.00  0.00     0.126 C 
BRANCH  11  12
ATOM     12  C   UNL d   1      -5.257   1.453   0.034  0.00  0.00     0.012 A 
ATOM     13  C   UNL d   1      -5.860   1.437   1.300  0.00  0.00     0.125 A 
ATOM     14  F   UNL d   1      -5.096   1.461   2.401  0.00  0.00    -0.205 F 
ATOM     15  C   UNL d   1      -7.244   1.411   1.461  0.00  0.00     0.043 A 
ATOM     16  C   UNL d   1      -8.069   1.396   0.342  0.00  0.00     0.005 A 
ATOM     17  C   UNL d   1      -7.497   1.403  -0.931  0.00  0.00     0.024 A 
ATOM     18  C   UNL d   1      -6.103   1.427  -1.084  0.00  0.00     0.044 A 
ATOM     19 CL   UNL d   1      -5.486   1.441  -2.698  0.00  0.00    -0.084 Cl
ENDBRANCH  11  12
ENDBRANCH  10  11
ENDBRANCH   3  10
BRANCH   4  20
ATOM     20  O   UNL d   1       1.724  -1.483   0.013  0.00  0.00    -0.346 OA
ATOM     21  H   UNL d   1       1.101  -2.231  -0.005  0.00  0.00     0.219 HD
ENDBRANCH   4  20
TORSDOF 4
