REMARK  3 active torsions:
REMARK  status: ('A' for Active; 'I' for Inactive)
REMARK    1  A    between atoms: C_2  and  C_1 
REMARK    2  A    between atoms: O_10  and  C_1 
REMARK    3  A    between atoms: C_11  and  C_7 
ROOT
ATOM      1  C   UNL d   1       0.005   1.889  -0.114  0.00  0.00     0.180 A 
ATOM      2  C   UNL d   1      -1.189   0.953  -0.073  0.00  0.00     0.021 A 
ATOM      3  C   UNL d   1      -0.747  -0.375  -0.054  0.00  0.00     0.053 A 
ATOM      4  C   UNL d   1       1.177   0.918  -0.076  0.00  0.00     0.006 A 
ATOM      5  C   UNL d   1       0.697  -0.411  -0.056  0.00  0.00     0.002 A 
ATOM      6  N   UNL d   1      -1.546  -1.454  -0.021  0.00  0.00    -0.365 N 
ATOM      7  HN  UNL d   1      -1.184  -2.408  -0.010  1.00  0.00     0.165 HD
ATOM      8  C   UNL d   1      -2.549   1.212  -0.049  0.00  0.00     0.015 A 
ATOM      9  C   UNL d   1       2.537   1.190  -0.045  0.00  0.00     0.012 A 
ATOM     10  C   UNL d   1       1.575  -1.480  -0.023  0.00  0.00     0.014 A 
ATOM     11  C   UNL d   1      -2.871  -1.174  -0.002  0.00  0.00     0.088 A 
ATOM     12  C   UNL d   1      -3.409   0.116  -0.012  0.00  0.00     0.018 A 
ATOM     13  C   UNL d   1       2.947  -1.211  -0.005  0.00  0.00     0.001 A 
ATOM     14  C   UNL d   1       3.423   0.112  -0.012  0.00  0.00     0.001 A 
ENDROOT
BRANCH   1  15
ATOM     15  C   UNL d   1       0.011   2.746  -1.307  0.00  0.00    -0.052 C 
ATOM     16  C   UNL d   1       0.022   3.474  -2.265  0.00  0.00    -0.063 C 
BRANCH  16  17
ATOM     17  C   UNL d   1       0.038   4.385  -3.369  0.00  0.00     0.017 A 
ATOM     18  C   UNL d   1       1.254   4.845  -3.881  0.00  0.00     0.020 A 
ATOM     19  C   UNL d   1       1.268   5.791  -4.910  0.00  0.00     0.001 A 
ATOM     20  C   UNL d   1       0.067   6.268  -5.436  0.00  0.00     0.000 A 
ATOM     21  C   UNL d   1      -1.147   5.789  -4.946  0.00  0.00     0.001 A 
ATOM     22  C   UNL d   1      -1.163   4.850  -3.911  0.00  0.00     0.020 A 
ENDBRANCH  16  17
ENDBRANCH   1  15
BRANCH   1  23
ATOM     23  O   UNL d   1       0.039   2.692   1.058  0.00  0.00    -0.369 OA
ATOM     24  H   UNL d   1      -0.797   3.184   1.077  0.00  0.00     0.212 HD
ENDBRANCH   1  23
TORSDOF 3
