REMARK  1 active torsions:
REMARK  status: ('A' for Active; 'I' for Inactive)
REMARK    1  A    between atoms: N_5  and  C_2 
ROOT
ATOM      1  C   UNL d   1       1.115  -0.869   0.001  0.00  0.00     0.077 A 
ATOM      2  C   UNL d   1       2.472  -1.249   0.000  0.00  0.00     0.131 A 
ATOM      3  N   UNL d   1      -0.028  -1.637   0.001  0.00  0.00    -0.352 N 
ATOM      4  C   UNL d   1       0.707   0.465   0.000  0.00  0.00     0.007 A 
ATOM      5  C   UNL d   1      -0.726   0.477   0.001  0.00  0.00     0.006 A 
ATOM      6  C   UNL d   1      -1.154  -0.851   0.000  0.00  0.00     0.061 A 
ATOM      7  C   UNL d   1      -2.508  -1.206   0.000  0.00  0.00     0.039 A 
ATOM      8  C   UNL d   1       3.439  -0.231  -0.000  0.00  0.00     0.057 A 
ATOM      9  C   UNL d   1      -3.462  -0.189   0.001  0.00  0.00     0.040 A 
ATOM     10  C   UNL d   1       1.696   1.472  -0.000  0.00  0.00     0.034 A 
ATOM     11  C   UNL d   1      -1.702   1.497   0.001  0.00  0.00     0.033 A 
ATOM     12  C   UNL d   1       3.047   1.105  -0.000  0.00  0.00     0.014 A 
ATOM     13  C   UNL d   1      -3.058   1.143   0.001  0.00  0.00     0.013 A 
ATOM     14 BR   UNL d   1      -3.044  -3.017   0.001  0.00  0.00    -0.049 Br
ATOM     15 BR   UNL d   1       4.371   2.459  -0.002  0.00  0.00    -0.051 Br
ATOM     16 BR   UNL d   1      -4.369   2.508   0.000  0.00  0.00    -0.051 Br
ATOM     17  H   UNL d   1      -0.035  -2.651   0.001  0.00  0.00     0.166 HD
ENDROOT
BRANCH   2  18
ATOM     18  N   UNL d   1       2.904  -2.652   0.000  0.00  0.00    -0.113 N 
ATOM     19  O   UNL d   1       2.015  -3.517   0.002  0.00  0.00    -0.532 OA
ATOM     20  O   UNL d   1       4.120  -2.888  -0.001  0.00  0.00    -0.532 OA
ENDBRANCH   2  18
TORSDOF 1
