REMARK  11 active torsions:
REMARK  status: ('A' for Active; 'I' for Inactive)
REMARK    1  A    between atoms: C_9  and  C_1 
REMARK    2  A    between atoms: O_11  and  C_2 
REMARK    3  A    between atoms: C_3  and  C_7 
REMARK    4  A    between atoms: C_4  and  C_8 
REMARK    5  A    between atoms: C_5  and  C_14 
REMARK    6  A    between atoms: C_6  and  N_12 
REMARK    7  A    between atoms: N_19  and  C_6 
REMARK    8  A    between atoms: O_37  and  C_9 
REMARK    9  A    between atoms: N_12  and  C_10 
REMARK   10  A    between atoms: C_15  and  O_11 
REMARK   11  A    between atoms: C_18  and  N_19 
ROOT
ATOM      1  C   UNL d   1       1.981   3.325   0.728  0.00  0.00     0.069 C 
ATOM      2  C   UNL d   1       2.242   5.690   0.096  0.00  0.00     0.050 C 
ATOM      3  C   UNL d   1       1.865   3.017  -0.635  0.00  0.00     0.102 C 
ATOM      4  C   UNL d   1       2.089   4.687   1.075  0.00  0.00     0.048 C 
ATOM      5  C   UNL d   1       2.345   5.312  -1.245  0.00  0.00     0.019 C 
ATOM      6  C   UNL d   1       2.155   3.984  -1.610  0.00  0.00     0.040 C 
ENDROOT
BRANCH   1   7
ATOM      7  N   UNL d   1       2.028   2.408   1.821  0.00  0.00    -0.331 N 
ATOM      8  H   UNL d   1       1.819   2.825   2.717  0.00  0.00     0.168 HD
BRANCH   7   9
ATOM      9  C   UNL d   1       2.483   1.112   1.925  0.00  0.00     0.176 C 
ATOM     10  S   UNL d   1       2.714  -0.070   0.768  0.00  0.00    -0.041 SA
BRANCH   9  11
ATOM     11  N   UNL d   1       2.822   0.672   3.182  0.00  0.00    -0.333 N 
ATOM     12  H   UNL d   1       2.936  -0.339   3.179  0.00  0.00     0.168 HD
BRANCH  11  13
ATOM     13  C   UNL d   1       3.203   1.305   4.377  0.00  0.00     0.035 A 
ATOM     14  C   UNL d   1       3.468   2.665   4.510  0.00  0.00     0.045 A 
ATOM     15  C   UNL d   1       3.749   3.227   5.768  0.00  0.00     0.050 A 
ATOM     16  C   UNL d   1       3.877   2.385   6.883  0.00  0.00     0.032 A 
ATOM     17  C   UNL d   1       3.697   1.001   6.755  0.00  0.00     0.050 A 
ATOM     18  C   UNL d   1       3.361   0.477   5.496  0.00  0.00     0.045 A 
BRANCH  15  19
ATOM     19  C   UNL d   1       3.869   4.727   5.890  0.00  0.00     0.417 C 
ATOM     20  F   UNL d   1       3.841   5.171   7.175  0.00  0.00    -0.166 F 
ATOM     21  F   UNL d   1       5.012   5.211   5.339  0.00  0.00    -0.166 F 
ATOM     22  F   UNL d   1       2.845   5.364   5.253  0.00  0.00    -0.166 F 
ENDBRANCH  15  19
BRANCH  17  23
ATOM     23  C   UNL d   1       3.825   0.071   7.938  0.00  0.00     0.417 C 
ATOM     24  F   UNL d   1       3.994   0.720   9.122  0.00  0.00    -0.166 F 
ATOM     25  F   UNL d   1       2.724  -0.715   8.095  0.00  0.00    -0.166 F 
ATOM     26  F   UNL d   1       4.879  -0.780   7.819  0.00  0.00    -0.166 F 
ENDBRANCH  17  23
ENDBRANCH  11  13
ENDBRANCH   9  11
ENDBRANCH   7   9
ENDBRANCH   1   7
BRANCH   3  27
ATOM     27  O   UNL d   1       1.353   1.794  -0.987  0.00  0.00    -0.307 OA
BRANCH  27  28
ATOM     28  C   UNL d   1       0.715   1.522  -2.150  0.00  0.00     0.099 A 
ATOM     29  C   UNL d   1      -0.288   2.268  -2.750  0.00  0.00     0.114 A 
ATOM     30  S   UNL d   1      -0.748   1.559  -4.254  0.00  0.00    -0.093 SA
ATOM     31  C   UNL d   1       0.288   0.222  -4.029  0.00  0.00     0.053 A 
ATOM     32  C   UNL d   1       1.005   0.323  -2.862  0.00  0.00     0.046 A 
BRANCH  29  33
ATOM     33  C   UNL d   1      -0.957   3.489  -2.359  0.00  0.00     0.302 C 
ATOM     34  O   UNL d   1      -1.353   4.364  -3.126  0.00  0.00    -0.259 OA
BRANCH  33  35
ATOM     35  O   UNL d   1      -1.112   3.544  -1.005  0.00  0.00    -0.322 OA
ATOM     36  C   UNL d   1      -1.747   4.730  -0.522  0.00  0.00     0.213 C 
ENDBRANCH  33  35
ENDBRANCH  29  33
ENDBRANCH  27  28
ENDBRANCH   3  27
BRANCH   2  37
ATOM     37  C   UNL d   1       2.313   7.154   0.457  0.00  0.00     0.417 C 
ATOM     38  F   UNL d   1       2.023   7.405   1.763  0.00  0.00    -0.166 F 
ATOM     39  F   UNL d   1       3.542   7.690   0.231  0.00  0.00    -0.166 F 
ATOM     40  F   UNL d   1       1.436   7.905  -0.268  0.00  0.00    -0.166 F 
ENDBRANCH   2  37
TORSDOF 11
