REMARK  4 active torsions:
REMARK  status: ('A' for Active; 'I' for Inactive)
REMARK    1  A    between atoms: C_8  and  C_1 
REMARK    2  A    between atoms: N_6  and  C_2 
REMARK       I    between atoms: C_7  and  N_6 
REMARK    3  A    between atoms: C_10  and  C_7 
REMARK    4  A    between atoms: O_21  and  C_8 
ROOT
ATOM      1  C   UNL d   1       0.185   1.367  -0.382  0.00  0.00     0.107 C 
ATOM      2  C   UNL d   1       1.463   0.858  -0.218  0.00  0.00     0.059 C 
ATOM      3  S   UNL d   1      -0.999   0.122  -0.205  0.00  0.00    -0.081 SA
ATOM      4  C   UNL d   1       0.181  -1.115  -0.117  0.00  0.00     0.025 C 
ATOM      5  C   UNL d   1       1.445  -0.566  -0.112  0.00  0.00     0.051 C 
ATOM      6  C   UNL d   1      -0.127  -2.528  -0.057  0.00  0.00     0.022 A 
ATOM      7  S   UNL d   1       0.994  -3.692  -0.665  0.00  0.00    -0.101 SA
ATOM      8  C   UNL d   1      -1.249  -3.158   0.451  0.00  0.00     0.021 A 
ATOM      9  C   UNL d   1       0.008  -5.004  -0.208  0.00  0.00     0.050 A 
ATOM     10  C   UNL d   1      -1.164  -4.584   0.375  0.00  0.00     0.008 A 
ENDROOT
BRANCH   2  11
ATOM     11  N   UNL d   1       2.687   1.517  -0.230  0.00  0.00    -0.321 N 
ATOM     12  C   UNL d   1       2.943   2.837   0.065  0.00  0.00     0.263 C 
ATOM     13  O   UNL d   1       2.156   3.574   0.657  0.00  0.00    -0.267 OA
ATOM     14  H   UNL d   1       3.501   0.941  -0.409  0.00  0.00     0.169 HD
BRANCH  12  15
ATOM     15  C   UNL d   1       4.274   3.283  -0.349  0.00  0.00     0.072 A 
ATOM     16  S   UNL d   1       5.302   2.289  -1.305  0.00  0.00    -0.097 SA
ATOM     17  C   UNL d   1       6.505   3.494  -1.398  0.00  0.00     0.050 A 
ATOM     18  C   UNL d   1       6.153   4.628  -0.702  0.00  0.00     0.009 A 
ATOM     19  C   UNL d   1       4.867   4.506  -0.096  0.00  0.00     0.025 A 
ENDBRANCH  12  15
ENDBRANCH   2  11
BRANCH   1  20
ATOM     20  C   UNL d   1      -0.264   2.699  -0.747  0.00  0.00     0.302 C 
ATOM     21  O   UNL d   1      -1.306   3.242  -0.403  0.00  0.00    -0.259 OA
BRANCH  20  22
ATOM     22  O   UNL d   1       0.635   3.248  -1.621  0.00  0.00    -0.322 OA
ATOM     23  C   UNL d   1       0.469   4.643  -1.870  0.00  0.00     0.213 C 
ENDBRANCH  20  22
ENDBRANCH   1  20
TORSDOF 4
