REMARK  4 active torsions:
REMARK  status: ('A' for Active; 'I' for Inactive)
REMARK    1  A    between atoms: C_9  and  N_2 
REMARK    2  A    between atoms: C_10  and  C_3 
REMARK    3  A    between atoms: C_7  and  C_4 
REMARK    4  A    between atoms: O_11  and  C_6 
ROOT
ATOM      1  C   UNL d   1      -0.755   1.222  -0.043  0.00  0.00     0.266 A 
ATOM      2  N   UNL d   1      -1.411  -0.028  -0.029  0.00  0.00    -0.278 N 
ATOM      3  C   UNL d   1       0.751   1.193  -0.015  0.00  0.00     0.076 A 
ATOM      4  C   UNL d   1      -0.702  -1.227  -0.015  0.00  0.00     0.056 A 
ATOM      5  C   UNL d   1       0.641  -1.232   0.004  0.00  0.00     0.068 A 
ATOM      6  C   UNL d   1       1.378   0.002   0.011  0.00  0.00     0.084 A 
ATOM      7  O   UNL d   1      -1.340   2.307  -0.075  0.00  0.00    -0.267 OA
ENDROOT
BRANCH   4   8
ATOM      8  C   UNL d   1      -1.374  -2.540  -0.036  0.00  0.00    -0.009 A 
ATOM      9  C   UNL d   1      -1.687  -3.199   1.164  0.00  0.00     0.017 A 
ATOM     10  C   UNL d   1      -2.204  -4.496   1.138  0.00  0.00     0.043 A 
ATOM     11  C   UNL d   1      -2.407  -5.130  -0.082  0.00  0.00     0.116 A 
ATOM     12  C   UNL d   1      -2.116  -4.489  -1.280  0.00  0.00     0.043 A 
ATOM     13  F   UNL d   1      -2.876  -6.385  -0.103  0.00  0.00    -0.206 F 
ATOM     14  C   UNL d   1      -1.598  -3.192  -1.258  0.00  0.00     0.017 A 
ENDBRANCH   4   8
BRANCH   2  15
ATOM     15  C   UNL d   1      -2.834   0.010  -0.015  0.00  0.00     0.043 A 
ATOM     16  C   UNL d   1      -3.547   0.031  -1.218  0.00  0.00     0.030 A 
ATOM     17  C   UNL d   1      -4.940   0.124  -1.197  0.00  0.00     0.002 A 
ATOM     18  C   UNL d   1      -5.618   0.196   0.020  0.00  0.00     0.000 A 
ATOM     19  C   UNL d   1      -4.907   0.179   1.220  0.00  0.00     0.002 A 
ATOM     20  C   UNL d   1      -3.514   0.088   1.205  0.00  0.00     0.030 A 
ENDBRANCH   2  15
BRANCH   6  21
ATOM     21  O   UNL d   1       2.752  -0.106   0.043  0.00  0.00    -0.360 OA
ATOM     22  H   UNL d   1       3.014  -1.040   0.048  0.00  0.00     0.217 HD
ENDBRANCH   6  21
BRANCH   3  23
ATOM     23  C   UNL d   1       1.522   2.447  -0.005  0.00  0.00    -0.018 A 
ATOM     24  C   UNL d   1       1.928   3.043  -1.206  0.00  0.00     0.012 A 
ATOM     25  C   UNL d   1       2.696   4.210  -1.191  0.00  0.00     0.001 A 
ATOM     26  C   UNL d   1       3.062   4.790   0.022  0.00  0.00     0.000 A 
ATOM     27  C   UNL d   1       2.658   4.208   1.223  0.00  0.00     0.001 A 
ATOM     28  C   UNL d   1       1.892   3.040   1.211  0.00  0.00     0.012 A 
ENDBRANCH   3  23
TORSDOF 4
