REMARK  6 active torsions:
REMARK  status: ('A' for Active; 'I' for Inactive)
REMARK    1  A    between atoms: C_9  and  N_1 
REMARK    2  A    between atoms: N_5  and  C_2 
REMARK    3  A    between atoms: N_8  and  C_3 
REMARK       I    between atoms: C_6  and  N_7 
REMARK    4  A    between atoms: C_12  and  C_6 
REMARK    5  A    between atoms: C_29  and  C_28 
REMARK    6  A    between atoms: C_30  and  C_29 
ROOT
ATOM      1  C   UNL d   1      -3.307   4.019  -7.863  0.00  0.00     0.253 C 
ATOM      2  N   UNL d   1      -2.751   3.564  -6.668  0.00  0.00    -0.345 N 
ATOM      3  N   UNL d   1      -1.716   2.433  -4.243  0.00  0.00    -0.376 N 
ATOM      4  C   UNL d   1      -2.105   4.400  -5.636  0.00  0.00     0.146 C 
ATOM      5  C   UNL d   1      -2.456   2.129  -6.582  0.00  0.00     0.146 C 
ATOM      6  C   UNL d   1      -2.194   3.818  -4.217  0.00  0.00     0.143 C 
ATOM      7  C   UNL d   1      -2.542   1.586  -5.141  0.00  0.00     0.143 C 
ATOM      8  O   UNL d   1      -3.671   3.246  -8.757  0.00  0.00    -0.267 OA
ENDROOT
BRANCH   3   9
ATOM      9  C   UNL d   1      -1.035   1.868  -3.173  0.00  0.00     0.058 A 
ATOM     10  C   UNL d   1      -1.184   2.396  -1.875  0.00  0.00     0.034 A 
ATOM     11  C   UNL d   1      -0.564   1.827  -0.756  0.00  0.00     0.038 A 
ATOM     12  C   UNL d   1       0.207   0.675  -0.912  0.00  0.00     0.105 A 
ATOM     13  C   UNL d   1       0.396   0.119  -2.178  0.00  0.00     0.068 A 
ATOM     14  C   UNL d   1      -0.175   0.740  -3.305  0.00  0.00     0.067 A 
BRANCH  12  15
ATOM     15  N   UNL d   1       0.855   0.068   0.256  0.00  0.00    -0.116 N 
ATOM     16  O   UNL d   1       1.490  -0.983   0.079  0.00  0.00    -0.532 OA
ATOM     17  O   UNL d   1       0.729   0.638   1.347  0.00  0.00    -0.532 OA
ENDBRANCH  12  15
BRANCH  14  18
ATOM     18  N   UNL d   1       0.236   0.255  -4.578  0.00  0.00    -0.331 N 
ATOM     19  C   UNL d   1       0.437  -1.066  -4.927  0.00  0.00     0.097 C 
ATOM     20  C   UNL d   1       0.686  -1.135  -6.282  0.00  0.00     0.019 C 
ATOM     21  C   UNL d   1       0.743   0.189  -6.765  0.00  0.00     0.019 C 
ATOM     22  C   UNL d   1       0.536   1.019  -5.687  0.00  0.00     0.097 C 
ENDBRANCH  14  18
ENDBRANCH   3   9
BRANCH   1  23
ATOM     23  C   UNL d   1      -3.590   5.458  -8.067  0.00  0.00     0.032 A 
ATOM     24  C   UNL d   1      -2.666   6.468  -7.788  0.00  0.00     0.017 A 
ATOM     25  C   UNL d   1      -3.058   7.804  -7.848  0.00  0.00     0.008 A 
ATOM     26  C   UNL d   1      -4.349   8.148  -8.274  0.00  0.00    -0.058 A 
ATOM     27  C   UNL d   1      -5.221   7.132  -8.686  0.00  0.00     0.008 A 
ATOM     28  C   UNL d   1      -4.849   5.793  -8.566  0.00  0.00     0.017 A 
BRANCH  26  29
ATOM     29  C   UNL d   1      -4.773   9.593  -8.311  0.00  0.00     0.038 C 
BRANCH  29  30
ATOM     30  C   UNL d   1      -6.074   9.890  -7.555  0.00  0.00     0.000 C 
ATOM     31  C   UNL d   1      -5.984   9.609  -6.061  0.00  0.00     0.005 C 
ENDBRANCH  29  30
ENDBRANCH  26  29
ENDBRANCH   1  23
TORSDOF 6
