REMARK  9 active torsions:
REMARK  status: ('A' for Active; 'I' for Inactive)
REMARK    1  A    between atoms: C_2  and  N_1 
REMARK    2  A    between atoms: C_4  and  C_2 
REMARK    3  A    between atoms: S_3  and  C_4 
REMARK    4  A    between atoms: C_5  and  S_3 
REMARK    5  A    between atoms: C_8  and  C_4 
REMARK    6  A    between atoms: N_14  and  C_9 
REMARK    7  A    between atoms: C_12  and  C_20 
REMARK    8  A    between atoms: O_18  and  C_15 
REMARK    9  A    between atoms: C_20  and  O_18 
ROOT
ATOM      1  C   UNL d   1       1.101   2.308   0.789  0.00  0.00     0.109 C 
ENDROOT
BRANCH   1   2
ATOM      2  S   UNL d   1       2.030   2.813  -0.760  0.00  0.00    -0.117 SA
BRANCH   2   3
ATOM      3  C   UNL d   1       0.736   3.454  -1.839  0.00  0.00     0.022 A 
ATOM      4  C   UNL d   1       0.418   2.790  -3.045  0.00  0.00     0.022 A 
ATOM      5  C   UNL d   1      -0.481   3.397  -3.933  0.00  0.00     0.024 A 
ATOM      6  C   UNL d   1      -1.121   4.593  -3.609  0.00  0.00     0.002 A 
ATOM      7  C   UNL d   1      -0.831   5.227  -2.407  0.00  0.00     0.001 A 
ATOM      8  C   UNL d   1       0.107   4.670  -1.540  0.00  0.00     0.020 A 
BRANCH   4   9
ATOM      9  N   UNL d   1       1.147   1.672  -3.493  0.00  0.00    -0.302 NA
ATOM     10  H   UNL d   1       1.542   1.127  -2.728  0.00  0.00     0.124 HD
ATOM     11  H   UNL d   1       0.638   1.081  -4.141  0.00  0.00     0.124 HD
ENDBRANCH   4   9
ENDBRANCH   2   3
ENDBRANCH   1   2
BRANCH   1  12
ATOM     12  C   UNL d   1       0.062   1.220   0.497  0.00  0.00     0.221 C 
BRANCH  12  13
ATOM     13  N   UNL d   1       0.743  -0.004  -0.028  0.00  0.00    -0.154 N 
ATOM     14  O   UNL d   1       1.447  -0.640   0.768  0.00  0.00    -0.536 OA
ATOM     15  O   UNL d   1       0.530  -0.314  -1.206  0.00  0.00    -0.536 OA
ENDBRANCH  12  13
ENDBRANCH   1  12
BRANCH   1  16
ATOM     16  C   UNL d   1       0.574   3.510   1.587  0.00  0.00    -0.042 A 
ATOM     17  C   UNL d   1      -0.651   3.485   2.274  0.00  0.00     0.011 A 
ATOM     18  C   UNL d   1      -1.112   4.608   2.971  0.00  0.00     0.037 A 
ATOM     19  C   UNL d   1      -0.371   5.787   3.002  0.00  0.00     0.069 A 
ATOM     20  C   UNL d   1       0.861   5.821   2.359  0.00  0.00     0.037 A 
ATOM     21  C   UNL d   1       1.344   4.684   1.702  0.00  0.00     0.011 A 
BRANCH  19  22
ATOM     22  O   UNL d   1      -0.950   6.814   3.690  0.00  0.00    -0.348 OA
BRANCH  22  23
ATOM     23  C   UNL d   1      -0.166   7.990   3.871  0.00  0.00     0.202 C 
BRANCH  23  24
ATOM     24  C   UNL d   1      -0.821   8.803   4.945  0.00  0.00    -0.011 C 
ATOM     25  C   UNL d   1      -0.249   9.082   6.124  0.00  0.00     0.009 C 
ENDBRANCH  23  24
ENDBRANCH  22  23
ENDBRANCH  19  22
ENDBRANCH   1  16
TORSDOF 9
