REMARK  7 active torsions:
REMARK  status: ('A' for Active; 'I' for Inactive)
REMARK    1  A    between atoms: C_9  and  N_1 
REMARK    2  A    between atoms: S_10  and  C_4 
REMARK       I    between atoms: C_5  and  N_11 
REMARK       I    between atoms: N_6  and  C_5 
REMARK    3  A    between atoms: C_8  and  N_6 
REMARK    4  A    between atoms: S_15  and  C_7 
REMARK    5  A    between atoms: C_20  and  S_10 
REMARK    6  A    between atoms: N_11  and  C_16 
REMARK    7  A    between atoms: C_21  and  S_15 
ROOT
ATOM      1  N   UNL d   1       3.133  -0.946   0.233  0.00  0.00    -0.343 N 
ATOM      2  HN  UNL d   1       3.707  -1.555  -0.350  1.00  0.00     0.167 HD
ATOM      3  C   UNL d   1       3.420  -0.771   1.552  0.00  0.00     0.102 C 
ATOM      4  C   UNL d   1       2.074  -0.296  -0.283  0.00  0.00     0.075 C 
ATOM      5  C   UNL d   1       2.609  -0.022   2.420  0.00  0.00     0.070 C 
ATOM      6  C   UNL d   1       1.597   0.735   1.837  0.00  0.00     0.035 C 
ATOM      7  C   UNL d   1       1.322   0.591   0.479  0.00  0.00     0.039 C 
ENDROOT
BRANCH   5   8
ATOM      8  N   UNL d   1       2.704   0.054   3.825  0.00  0.00    -0.306 N 
ATOM      9  C   UNL d   1       2.914  -0.923   4.767  0.00  0.00     0.325 C 
ATOM     10  N   UNL d   1       2.984  -2.213   4.322  0.00  0.00    -0.309 N 
ATOM     11  O   UNL d   1       2.934  -0.571   5.944  0.00  0.00    -0.247 OA
ATOM     12  H   UNL d   1       2.910  -2.348   3.327  0.00  0.00     0.170 HD
ATOM     13  H   UNL d   1       2.337   0.885   4.274  0.00  0.00     0.171 HD
BRANCH  10  14
ATOM     14  C   UNL d   1       3.257  -3.380   5.064  0.00  0.00     0.038 A 
ATOM     15  C   UNL d   1       3.415  -3.410   6.450  0.00  0.00     0.065 A 
ATOM     16  C   UNL d   1       3.773  -4.615   7.071  0.00  0.00     0.105 A 
ATOM     17  C   UNL d   1       3.954  -5.792   6.338  0.00  0.00     0.036 A 
ATOM     18  C   UNL d   1       3.764  -5.765   4.960  0.00  0.00     0.005 A 
ATOM     19  C   UNL d   1       3.416  -4.567   4.330  0.00  0.00     0.030 A 
BRANCH  16  20
ATOM     20  N   UNL d   1       3.986  -4.637   8.512  0.00  0.00    -0.116 N 
ATOM     21  O   UNL d   1       3.280  -3.902   9.217  0.00  0.00    -0.532 OA
ATOM     22  O   UNL d   1       4.869  -5.397   8.945  0.00  0.00    -0.532 OA
ENDBRANCH  16  20
ENDBRANCH  10  14
ENDBRANCH   5   8
BRANCH   3  23
ATOM     23  S   UNL d   1       5.007  -1.443   2.040  0.00  0.00    -0.070 SA
BRANCH  23  24
ATOM     24  C   UNL d   1       6.054  -0.009   1.820  0.00  0.00     0.007 A 
ATOM     25  C   UNL d   1       6.784   0.494   2.902  0.00  0.00     0.019 A 
ATOM     26  C   UNL d   1       7.633   1.594   2.735  0.00  0.00     0.001 A 
ATOM     27  C   UNL d   1       7.756   2.197   1.484  0.00  0.00     0.000 A 
ATOM     28  C   UNL d   1       7.037   1.697   0.399  0.00  0.00     0.001 A 
ATOM     29  C   UNL d   1       6.193   0.598   0.566  0.00  0.00     0.019 A 
ENDBRANCH  23  24
ENDBRANCH   3  23
BRANCH   4  30
ATOM     30  S   UNL d   1       1.643  -0.445  -2.005  0.00  0.00    -0.073 SA
BRANCH  30  31
ATOM     31  C   UNL d   1       2.256  -1.983  -2.663  0.00  0.00     0.007 A 
ATOM     32  C   UNL d   1       3.510  -2.527  -2.379  0.00  0.00     0.019 A 
ATOM     33  C   UNL d   1       3.986  -3.639  -3.086  0.00  0.00     0.001 A 
ATOM     34  C   UNL d   1       3.219  -4.213  -4.098  0.00  0.00     0.000 A 
ATOM     35  C   UNL d   1       1.961  -3.695  -4.384  0.00  0.00     0.001 A 
ATOM     36  C   UNL d   1       1.483  -2.592  -3.668  0.00  0.00     0.019 A 
ENDBRANCH  30  31
ENDBRANCH   4  30
TORSDOF 7
