REMARK  11 active torsions:
REMARK  status: ('A' for Active; 'I' for Inactive)
REMARK       I    between atoms: N_17  and  C1_1 
REMARK    1  A    between atoms: O1_4  and  C1_1 
REMARK    2  A    between atoms: C2_2  and  C3_3 
REMARK    3  A    between atoms: C3_3  and  O1_4 
REMARK    4  A    between atoms: O5_11  and  C9_9 
REMARK    5  A    between atoms: O6_12  and  C10_10 
REMARK    6  A    between atoms: CA_18  and  N_17 
REMARK    7  A    between atoms: CB_21  and  CA_18 
REMARK    8  A    between atoms: CA_18  and  C_19 
REMARK    9  A    between atoms: OXT_22  and  C_19 
REMARK   10  A    between atoms: CG1_23  and  CB_21 
REMARK   11  A    between atoms: C_29  and  N_28 
ROOT
ATOM      1  C   UNL d   1      -1.113  -0.809   0.245  0.00  0.00     0.218 C 
ATOM      2  C   UNL d   1      -0.384  -1.950   0.968  0.00  0.00     0.035 C 
ATOM      3  C   UNL d   1      -0.426   0.542   0.419  0.00  0.00     0.035 C 
ATOM      4  C   UNL d   1       1.068   0.462   0.150  0.00  0.00     0.002 C 
ATOM      5  C   UNL d   1       1.130  -1.958   0.755  0.00  0.00     0.002 C 
ATOM      6  C   UNL d   1       1.752  -0.594   0.999  0.00  0.00     0.000 C 
ENDROOT
BRANCH   1   7
ATOM      7  N   UNL d   1      -2.481  -0.717   0.761  0.00  0.00     0.082 N 
ATOM      8  H   UNL d   1      -3.031  -1.501   0.418  0.00  0.00     0.313 HD
ATOM      9  H   UNL d   1      -2.930   0.133   0.423  0.00  0.00     0.313 HD
ENDBRANCH   1   7
TORSDOF 11
