REMARK  13 active torsions:
REMARK  status: ('A' for Active; 'I' for Inactive)
REMARK    1  A    between atoms: N_3  and  C_1 
REMARK    2  A    between atoms: C_4  and  C_1 
REMARK    3  A    between atoms: C_5  and  C_1 
REMARK    4  A    between atoms: O_10  and  C_1 
REMARK    5  A    between atoms: C_2  and  C_8 
REMARK    6  A    between atoms: C_6  and  C_2 
REMARK    7  A    between atoms: C_9  and  C_2 
REMARK    8  A    between atoms: O_28  and  C_2 
REMARK       I    between atoms: C_7  and  N_3 
REMARK       I    between atoms: N_11  and  C_7 
REMARK    9  A    between atoms: O_30  and  C_9 
REMARK   10  A    between atoms: C_29  and  O_10 
REMARK   11  A    between atoms: C_12  and  N_11 
REMARK   12  A    between atoms: O_32  and  C_14 
REMARK   13  A    between atoms: C_38  and  O_30 
ROOT
ATOM      1  N   UNL d   1       1.059  -3.227  -1.426  0.00  0.00    -0.295 N 
ATOM      2  C   UNL d   1       1.487  -1.964  -1.350  0.00  0.00     0.323 C 
ATOM      3  N   UNL d   1       1.952  -1.332  -2.472  0.00  0.00    -0.306 N 
ATOM      4  O   UNL d   1       1.435  -1.471  -0.229  0.00  0.00    -0.247 OA
ATOM      5  H   UNL d   1       0.763  -3.530  -0.508  0.00  0.00     0.167 HD
ATOM      6  H   UNL d   1       1.571  -1.608  -3.364  0.00  0.00     0.171 HD
ENDROOT
BRANCH   3   7
ATOM      7  C   UNL d   1       2.503  -0.018  -2.399  0.00  0.00     0.069 C 
ATOM      8  C   UNL d   1       2.292   0.948  -3.388  0.00  0.00     0.095 C 
ATOM      9  C   UNL d   1       2.752   2.264  -3.173  0.00  0.00     0.050 C 
ATOM     10  C   UNL d   1       3.422   2.650  -1.991  0.00  0.00    -0.002 C 
ATOM     11  C   UNL d   1       3.752   1.630  -1.091  0.00  0.00     0.013 C 
ATOM     12  C   UNL d   1       3.290   0.330  -1.291  0.00  0.00     0.033 C 
BRANCH   8  13
ATOM     13  O   UNL d   1       1.702   0.740  -4.603  0.00  0.00    -0.354 OA
ATOM     14  C   UNL d   1       0.395   0.171  -4.581  0.00  0.00     0.210 C 
ENDBRANCH   8  13
BRANCH  10  15
ATOM     15  C   UNL d   1       3.694   4.118  -1.632  0.00  0.00     0.271 C 
BRANCH  15  16
ATOM     16  C   UNL d   1       3.181   4.481  -0.207  0.00  0.00     0.432 C 
ATOM     17  F   UNL d   1       2.192   3.672   0.236  0.00  0.00    -0.167 F 
ATOM     18  F   UNL d   1       4.149   4.473   0.740  0.00  0.00    -0.167 F 
ATOM     19  F   UNL d   1       2.659   5.742  -0.218  0.00  0.00    -0.167 F 
ENDBRANCH  15  16
BRANCH  15  20
ATOM     20  C   UNL d   1       5.186   4.482  -1.568  0.00  0.00     0.308 C 
ATOM     21  O   UNL d   1       6.117   3.691  -1.495  0.00  0.00    -0.261 OA
BRANCH  20  22
ATOM     22  O   UNL d   1       5.333   5.847  -1.504  0.00  0.00    -0.319 OA
BRANCH  22  23
ATOM     23  C   UNL d   1       6.628   6.334  -1.108  0.00  0.00     0.174 C 
ATOM     24  C   UNL d   1       7.434   6.773  -2.313  0.00  0.00     0.034 C 
ENDBRANCH  22  23
ENDBRANCH  20  22
ENDBRANCH  15  20
BRANCH  15  25
ATOM     25  O   UNL d   1       3.038   4.954  -2.627  0.00  0.00    -0.368 OA
ATOM     26  H   UNL d   1       2.915   5.831  -2.211  0.00  0.00     0.212 HD
ENDBRANCH  15  25
ENDBRANCH  10  15
ENDBRANCH   3   7
BRANCH   1  27
ATOM     27  C   UNL d   1       0.896  -4.213  -2.517  0.00  0.00     0.343 C 
BRANCH  27  28
ATOM     28  C   UNL d   1       0.862  -5.654  -1.959  0.00  0.00     0.448 C 
ATOM     29  F   UNL d   1       0.229  -5.691  -0.753  0.00  0.00    -0.166 F 
ATOM     30  F   UNL d   1       0.208  -6.514  -2.768  0.00  0.00    -0.166 F 
ATOM     31  F   UNL d   1       2.095  -6.158  -1.729  0.00  0.00    -0.166 F 
ENDBRANCH  27  28
BRANCH  27  32
ATOM     32  C   UNL d   1       2.077  -4.272  -3.510  0.00  0.00     0.448 C 
ATOM     33  F   UNL d   1       3.270  -4.097  -2.894  0.00  0.00    -0.166 F 
ATOM     34  F   UNL d   1       2.141  -5.433  -4.199  0.00  0.00    -0.166 F 
ATOM     35  F   UNL d   1       1.973  -3.278  -4.437  0.00  0.00    -0.166 F 
ENDBRANCH  27  32
BRANCH  27  36
ATOM     36  O   UNL d   1      -0.267  -3.840  -3.297  0.00  0.00    -0.304 OA
BRANCH  36  37
ATOM     37  C   UNL d   1      -1.550  -3.865  -2.847  0.00  0.00     0.072 A 
ATOM     38  C   UNL d   1      -1.990  -4.030  -1.536  0.00  0.00     0.040 A 
ATOM     39  C   UNL d   1      -3.361  -4.036  -1.246  0.00  0.00     0.045 A 
ATOM     40  C   UNL d   1      -4.287  -3.852  -2.263  0.00  0.00     0.116 A 
ATOM     41  C   UNL d   1      -3.869  -3.662  -3.571  0.00  0.00     0.045 A 
ATOM     42  F   UNL d   1      -5.595  -3.851  -1.977  0.00  0.00    -0.206 F 
ATOM     43  C   UNL d   1      -2.501  -3.668  -3.858  0.00  0.00     0.040 A 
ENDBRANCH  36  37
ENDBRANCH  27  36
ENDBRANCH   1  27
TORSDOF 13
