REMARK  4 active torsions:
REMARK  status: ('A' for Active; 'I' for Inactive)
REMARK    1  A    between atoms: C_13  and  N_1 
REMARK    2  A    between atoms: N_2  and  C_14 
REMARK    3  A    between atoms: C_25  and  C_13 
REMARK    4  A    between atoms: C_14  and  C_26 
ROOT
ATOM      1  C   UNL d   1       3.613  -1.669   0.196  0.00  0.00     0.004 C 
ATOM      2  C   UNL d   1       3.804  -4.292  -1.066  0.00  0.00     0.004 C 
ATOM      3  C   UNL d   1       3.244  -1.817  -1.283  0.00  0.00     0.007 C 
ATOM      4  C   UNL d   1       4.530  -3.964   0.265  0.00  0.00     0.007 C 
ATOM      5  C   UNL d   1       2.758  -3.244  -1.489  0.00  0.00     0.007 C 
ATOM      6  C   UNL d   1       4.877  -2.478   0.468  0.00  0.00     0.007 C 
ENDROOT
BRANCH   1   7
ATOM      7  C   UNL d   1       3.573  -0.205   0.679  0.00  0.00     0.140 C 
BRANCH   7   8
ATOM      8  N   UNL d   1       2.162   0.223   0.684  0.00  0.00    -0.280 N 
ATOM      9  C   UNL d   1       1.300  -0.517   1.492  0.00  0.00     0.261 C 
ATOM     10  C   UNL d   1      -0.080  -0.647   1.002  0.00  0.00     0.044 A 
ATOM     11  O   UNL d   1       1.637  -1.108   2.516  0.00  0.00    -0.267 OA
ATOM     12  C   UNL d   1      -0.856  -1.746   1.387  0.00  0.00     0.018 A 
ATOM     13  C   UNL d   1      -0.578   0.331   0.145  0.00  0.00     0.005 A 
ATOM     14  C   UNL d   1      -2.174  -1.839   0.956  0.00  0.00     0.002 A 
ATOM     15  C   UNL d   1      -2.724  -0.812   0.186  0.00  0.00     0.012 A 
ATOM     16  C   UNL d   1      -1.941   0.285  -0.220  0.00  0.00    -0.024 A 
ATOM     17  C   UNL d   1      -2.470   1.330  -0.991  0.00  0.00     0.012 A 
ATOM     18  C   UNL d   1      -1.652   2.374  -1.433  0.00  0.00     0.002 A 
ATOM     19  C   UNL d   1      -0.287   2.364  -1.147  0.00  0.00     0.018 A 
ATOM     20  C   UNL d   1       0.251   1.339  -0.363  0.00  0.00     0.044 A 
ATOM     21  C   UNL d   1       1.726   1.222  -0.182  0.00  0.00     0.261 C 
ATOM     22  O   UNL d   1       2.473   1.952  -0.826  0.00  0.00    -0.267 OA
ENDBRANCH   7   8
ENDBRANCH   1   7
BRANCH   2  23
ATOM     23  C   UNL d   1       4.781  -4.516  -2.236  0.00  0.00     0.140 C 
BRANCH  23  24
ATOM     24  N   UNL d   1       5.666  -5.662  -2.058  0.00  0.00    -0.280 N 
ATOM     25  C   UNL d   1       5.078  -6.925  -1.957  0.00  0.00     0.261 C 
ATOM     26  C   UNL d   1       5.985  -8.062  -1.707  0.00  0.00     0.044 A 
ATOM     27  O   UNL d   1       3.880  -7.147  -2.096  0.00  0.00    -0.267 OA
ATOM     28  C   UNL d   1       5.451  -9.310  -1.361  0.00  0.00     0.018 A 
ATOM     29  C   UNL d   1       7.361  -7.885  -1.867  0.00  0.00     0.005 A 
ATOM     30  C   UNL d   1       6.296 -10.401  -1.192  0.00  0.00     0.002 A 
ATOM     31  C   UNL d   1       7.670 -10.253  -1.393  0.00  0.00     0.012 A 
ATOM     32  C   UNL d   1       8.216  -9.005  -1.734  0.00  0.00    -0.024 A 
ATOM     33  C   UNL d   1       9.595  -8.843  -1.959  0.00  0.00     0.012 A 
ATOM     34  C   UNL d   1      10.123  -7.595  -2.287  0.00  0.00     0.002 A 
ATOM     35  C   UNL d   1       9.287  -6.488  -2.375  0.00  0.00     0.018 A 
ATOM     36  C   UNL d   1       7.911  -6.635  -2.159  0.00  0.00     0.044 A 
ATOM     37  C   UNL d   1       7.033  -5.446  -2.224  0.00  0.00     0.261 C 
ATOM     38  O   UNL d   1       7.539  -4.346  -2.431  0.00  0.00    -0.267 OA
ENDBRANCH  23  24
ENDBRANCH   2  23
TORSDOF 4
