REMARK  2 active torsions:
REMARK  status: ('A' for Active; 'I' for Inactive)
REMARK    1  A    between atoms: C_9  and  C_3 
REMARK    2  A    between atoms: O_16  and  C_4 
ROOT
ATOM      1  N   UNL d   1      -0.672   1.234  -0.035  0.00  0.00    -0.321 N 
ATOM      2  HN  UNL d   1      -1.189   2.113  -0.049  1.00  0.00     0.169 HD
ATOM      3  C   UNL d   1      -1.287   0.040  -0.010  0.00  0.00     0.117 A 
ATOM      4  C   UNL d   1       0.669   1.190  -0.041  0.00  0.00     0.165 A 
ATOM      5  N   UNL d   1      -0.641  -1.143   0.010  0.00  0.00    -0.344 N 
ATOM      6  HN  UNL d   1      -1.158  -2.022   0.029  1.00  0.00     0.167 HD
ATOM      7  C   UNL d   1       1.441   0.045  -0.023  0.00  0.00     0.106 A 
ATOM      8  C   UNL d   1       0.720  -1.134   0.002  0.00  0.00     0.033 A 
ATOM      9 CL   UNL d   1       3.158   0.119  -0.033  0.00  0.00    -0.078 Cl
ATOM     10  C   UNL d   1       1.351  -2.494   0.017  0.00  0.00     0.070 C 
ENDROOT
BRANCH   3  11
ATOM     11  C   UNL d   1      -2.763   0.019  -0.002  0.00  0.00     0.011 A 
ATOM     12  C   UNL d   1      -3.515   1.209  -0.057  0.00  0.00     0.039 A 
ATOM     13  C   UNL d   1      -4.912   1.183  -0.051  0.00  0.00     0.036 A 
ATOM     14 CL   UNL d   1      -5.790   2.661  -0.122  0.00  0.00    -0.084 Cl
ATOM     15  C   UNL d   1      -5.599  -0.023   0.012  0.00  0.00     0.047 A 
ATOM     16  C   UNL d   1      -4.876  -1.208   0.067  0.00  0.00     0.036 A 
ATOM     17  C   UNL d   1      -3.479  -1.192   0.059  0.00  0.00     0.039 A 
ATOM     18 CL   UNL d   1      -5.710  -2.711   0.147  0.00  0.00    -0.084 Cl
ENDBRANCH   3  11
BRANCH   4  19
ATOM     19  O   UNL d   1       1.231   2.430  -0.065  0.00  0.00    -0.345 OA
ATOM     20  H   UNL d   1       0.440   2.997  -0.068  0.00  0.00     0.219 HD
ENDBRANCH   4  19
TORSDOF 2
