REMARK  2 active torsions:
REMARK  status: ('A' for Active; 'I' for Inactive)
REMARK    1  A    between atoms: C_6  and  C_1 
REMARK    2  A    between atoms: O_9  and  C_6 
ROOT
ATOM      1  C   UNL d   1       2.558  -0.001   0.001  0.00  0.00     0.103 A 
ATOM      2  S   UNL d   1       1.719   1.493   0.002  0.00  0.00    -0.082 SA
ATOM      3  C   UNL d   1       1.667  -1.059  -0.000  0.00  0.00     0.068 A 
ATOM      4  C   UNL d   1       0.284  -0.646   0.000  0.00  0.00     0.004 A 
ATOM      5  C   UNL d   1       0.178   0.745   0.001  0.00  0.00     0.018 A 
ATOM      6 CL   UNL d   1       2.098  -2.727  -0.002  0.00  0.00    -0.082 Cl
ATOM      7  C   UNL d   1      -0.923  -1.396   0.000  0.00  0.00     0.014 A 
ATOM      8  C   UNL d   1      -1.070   1.398   0.001  0.00  0.00     0.020 A 
ATOM      9  C   UNL d   1      -2.165  -0.752   0.000  0.00  0.00     0.001 A 
ATOM     10  C   UNL d   1      -2.235   0.632   0.000  0.00  0.00     0.001 A 
ENDROOT
BRANCH   1  11
ATOM     11  C   UNL d   1       4.012  -0.044   0.002  0.00  0.00     0.301 C 
ATOM     12  O   UNL d   1       4.700  -1.058  -0.000  0.00  0.00    -0.259 OA
BRANCH  11  13
ATOM     13  O   UNL d   1       4.542   1.217   0.004  0.00  0.00    -0.322 OA
ATOM     14  C   UNL d   1       5.968   1.267   0.004  0.00  0.00     0.213 C 
ENDBRANCH  11  13
ENDBRANCH   1  11
TORSDOF 2
