REMARK  5 active torsions:
REMARK  status: ('A' for Active; 'I' for Inactive)
REMARK    1  A    between atoms: C_7  and  N_1 
REMARK    2  A    between atoms: C_6  and  C_3 
REMARK    3  A    between atoms: C_12  and  C_6 
REMARK    4  A    between atoms: C_13  and  C_7 
REMARK    5  A    between atoms: C_15  and  C_13 
ROOT
ATOM      1  N   UNL d   1       0.166  -1.034   0.025  0.00  0.00    -0.298 N 
ATOM      2  C   UNL d   1       0.932   0.117  -0.052  0.00  0.00     0.148 C 
ATOM      3  C   UNL d   1      -1.546   0.609  -0.030  0.00  0.00     0.078 C 
ATOM      4  C   UNL d   1      -1.208  -0.835  -0.082  0.00  0.00     0.266 C 
ATOM      5  S   UNL d   1      -0.107   1.542  -0.038  0.00  0.00    -0.055 SA
ATOM      6  S   UNL d   1       2.581   0.312  -0.167  0.00  0.00    -0.052 SA
ATOM      7  O   UNL d   1      -2.035  -1.716  -0.289  0.00  0.00    -0.266 OA
ENDROOT
BRANCH   1   8
ATOM      8  C   UNL d   1       0.627  -2.430  -0.097  0.00  0.00     0.138 C 
BRANCH   8   9
ATOM      9  C   UNL d   1       1.874  -2.856   0.693  0.00  0.00     0.059 C 
BRANCH   9  10
ATOM     10  C   UNL d   1       2.248  -4.325   0.627  0.00  0.00    -0.057 A 
ATOM     11  C   UNL d   1       3.613  -4.665   0.665  0.00  0.00     0.009 A 
ATOM     12  C   UNL d   1       4.025  -5.999   0.643  0.00  0.00     0.024 A 
ATOM     13  C   UNL d   1       3.074  -7.011   0.593  0.00  0.00     0.034 A 
ATOM     14  C   UNL d   1       1.717  -6.698   0.569  0.00  0.00     0.024 A 
ATOM     15 CL   UNL d   1       3.576  -8.657   0.572  0.00  0.00    -0.084 Cl
ATOM     16  C   UNL d   1       1.305  -5.361   0.594  0.00  0.00     0.009 A 
ENDBRANCH   9  10
ENDBRANCH   8   9
ENDBRANCH   1   8
BRANCH   3  17
ATOM     17  C   UNL d   1      -2.766   1.167   0.024  0.00  0.00     0.054 C 
BRANCH  17  18
ATOM     18  C   UNL d   1      -4.014   0.423   0.102  0.00  0.00     0.033 A 
ATOM     19  N   UNL d   1      -4.447   0.166   1.357  0.00  0.00    -0.366 N 
ATOM     20  C   UNL d   1      -5.617  -0.498   1.471  0.00  0.00     0.088 A 
ATOM     21  HN  UNL d   1      -3.917   0.460   2.177  1.00  0.00     0.165 HD
ATOM     22  C   UNL d   1      -6.390  -0.893   0.390  0.00  0.00     0.017 A 
ATOM     23  C   UNL d   1      -5.930  -0.602  -0.889  0.00  0.00     0.004 A 
ATOM     24  C   UNL d   1      -4.718   0.064  -1.042  0.00  0.00     0.029 A 
ENDBRANCH  17  18
ENDBRANCH   3  17
TORSDOF 5
