REMARK  4 active torsions:
REMARK  status: ('A' for Active; 'I' for Inactive)
REMARK    1  A    between atoms: C_6  and  N_1 
REMARK       I    between atoms: N_2  and  C_4 
REMARK    2  A    between atoms: N_7  and  C_3 
REMARK    3  A    between atoms: C_4  and  C_11 
REMARK    4  A    between atoms: C_14  and  N_7 
ROOT
ATOM      1  C   UNL d   1      -1.638   3.365  -3.031  0.00  0.00    -0.078 C 
ATOM      2  C   UNL d   1      -1.931   4.487  -2.715  0.00  0.00     0.018 C 
ATOM      3  C   UNL d   1      -1.815  -0.341  -3.462  0.00  0.00     0.015 A 
ATOM      4  C   UNL d   1      -1.302   2.031  -3.429  0.00  0.00     0.018 A 
ATOM      5  C   UNL d   1      -2.098   0.957  -3.018  0.00  0.00     0.044 A 
ATOM      6  C   UNL d   1       0.104   0.506  -4.671  0.00  0.00     0.003 A 
ATOM      7  C   UNL d   1      -0.706  -0.566  -4.282  0.00  0.00     0.024 A 
ATOM      8  C   UNL d   1      -0.200   1.803  -4.253  0.00  0.00     0.021 A 
ENDROOT
BRANCH   3   9
ATOM      9  N   UNL d   1      -2.705  -1.401  -3.099  0.00  0.00    -0.236 NA
ATOM     10  H   UNL d   1      -3.478  -1.012  -2.566  0.00  0.00     0.136 HD
BRANCH   9  11
ATOM     11  C   UNL d   1      -3.192  -2.207  -4.083  0.00  0.00     0.157 C 
ATOM     12  N   UNL d   1      -2.725  -3.481  -4.221  0.00  0.00    -0.304 N 
ATOM     13  C   UNL d   1      -1.849  -4.276  -3.479  0.00  0.00     0.257 C 
ATOM     14  H   UNL d   1      -3.172  -3.942  -5.002  0.00  0.00     0.171 HD
ATOM     15  O   UNL d   1      -1.385  -4.045  -2.374  0.00  0.00    -0.267 OA
ATOM     16  S   UNL d   1      -4.455  -1.734  -5.076  0.00  0.00    -0.046 SA
BRANCH  13  17
ATOM     17  C   UNL d   1      -1.612  -5.574  -4.170  0.00  0.00     0.032 A 
ATOM     18  C   UNL d   1      -1.198  -5.547  -5.512  0.00  0.00     0.019 A 
ATOM     19  C   UNL d   1      -1.244  -6.709  -6.280  0.00  0.00     0.037 A 
ATOM     20  C   UNL d   1      -1.690  -7.901  -5.693  0.00  0.00     0.102 A 
ATOM     21  C   UNL d   1      -2.027  -7.951  -4.331  0.00  0.00     0.037 A 
ATOM     22  C   UNL d   1      -1.985  -6.779  -3.564  0.00  0.00     0.019 A 
BRANCH  20  23
ATOM     23  N   UNL d   1      -1.864  -9.087  -6.539  0.00  0.00    -0.116 N 
ATOM     24  O   UNL d   1      -1.949 -10.186  -5.974  0.00  0.00    -0.532 OA
ATOM     25  O   UNL d   1      -1.934  -8.911  -7.761  0.00  0.00    -0.532 OA
ENDBRANCH  20  23
ENDBRANCH  13  17
ENDBRANCH   9  11
ENDBRANCH   3   9
TORSDOF 4
