REMARK  2 active torsions:
REMARK  status: ('A' for Active; 'I' for Inactive)
REMARK    1  A    between atoms: C_2  and  C_1 
REMARK    2  A    between atoms: C_3  and  C_1 
ROOT
ATOM      1  C   UNL d   1       0.918   0.107  -0.006  0.00  0.00     0.192 C 
ATOM      2  O   UNL d   1       2.139   0.176   0.092  0.00  0.00    -0.287 OA
ENDROOT
BRANCH   1   3
ATOM      3  C   UNL d   1       0.213   0.927  -1.033  0.00  0.00     0.015 A 
ATOM      4  C   UNL d   1      -1.005   0.517  -1.599  0.00  0.00     0.018 A 
ATOM      5  C   UNL d   1      -1.649   1.324  -2.537  0.00  0.00     0.043 A 
ATOM      6  C   UNL d   1      -1.062   2.520  -2.932  0.00  0.00     0.116 A 
ATOM      7  C   UNL d   1       0.162   2.924  -2.409  0.00  0.00     0.043 A 
ATOM      8  F   UNL d   1      -1.681   3.289  -3.836  0.00  0.00    -0.206 F 
ATOM      9  C   UNL d   1       0.804   2.126  -1.458  0.00  0.00     0.018 A 
ENDBRANCH   1   3
BRANCH   1  10
ATOM     10  C   UNL d   1       0.163  -0.806   0.892  0.00  0.00     0.015 A 
ATOM     11  C   UNL d   1      -1.091  -0.449   1.408  0.00  0.00     0.018 A 
ATOM     12  C   UNL d   1      -1.812  -1.360   2.181  0.00  0.00     0.043 A 
ATOM     13  C   UNL d   1      -1.261  -2.606   2.463  0.00  0.00     0.116 A 
ATOM     14  C   UNL d   1       0.005  -2.952   2.001  0.00  0.00     0.043 A 
ATOM     15  F   UNL d   1      -1.962  -3.483   3.192  0.00  0.00    -0.206 F 
ATOM     16  C   UNL d   1       0.725  -2.048   1.217  0.00  0.00     0.018 A 
ENDBRANCH   1  10
TORSDOF 2
