REMARK  4 active torsions:
REMARK  status: ('A' for Active; 'I' for Inactive)
REMARK    1  A    between atoms: N_9  and  C_1 
REMARK    2  A    between atoms: C_5  and  C_4 
REMARK       I    between atoms: N_8  and  C_5 
REMARK    3  A    between atoms: C_13  and  N_8 
REMARK    4  A    between atoms: C_14  and  C_13 
ROOT
ATOM      1  C   UNL d   1       0.037   1.074  -0.012  0.00  0.00     0.107 A 
ATOM      2  C   UNL d   1       1.193   0.268  -0.002  0.00  0.00     0.146 A 
ATOM      3  C   UNL d   1      -1.176   0.359   0.007  0.00  0.00     0.146 A 
ATOM      4  C   UNL d   1      -0.078  -1.803   0.028  0.00  0.00     0.037 A 
ATOM      5  C   UNL d   1       1.144  -1.128   0.021  0.00  0.00     0.061 A 
ATOM      6  C   UNL d   1      -1.248  -1.044   0.027  0.00  0.00     0.061 A 
ATOM      7  F   UNL d   1       2.411   0.831  -0.063  0.00  0.00    -0.204 F 
ATOM      8  F   UNL d   1      -2.350   1.014   0.040  0.00  0.00    -0.204 F 
ENDROOT
BRANCH   4   9
ATOM      9  C   UNL d   1      -0.047  -3.295   0.036  0.00  0.00     0.252 C 
ATOM     10  N   UNL d   1      -1.246  -3.978   0.106  0.00  0.00    -0.353 N 
ATOM     11  H   UNL d   1      -2.132  -3.507   0.029  0.00  0.00     0.163 HD
ATOM     12  O   UNL d   1       1.034  -3.874  -0.021  0.00  0.00    -0.268 OA
BRANCH  10  13
ATOM     13  C   UNL d   1      -1.267  -5.425   0.034  0.00  0.00     0.161 C 
BRANCH  13  14
ATOM     14  C   UNL d   1      -2.474  -6.002   0.727  0.00  0.00    -0.041 A 
ATOM     15  C   UNL d   1      -3.365  -6.838   0.039  0.00  0.00     0.009 A 
ATOM     16  C   UNL d   1      -4.452  -7.415   0.700  0.00  0.00     0.001 A 
ATOM     17  C   UNL d   1      -4.660  -7.162   2.055  0.00  0.00     0.000 A 
ATOM     18  C   UNL d   1      -3.782  -6.332   2.749  0.00  0.00     0.001 A 
ATOM     19  C   UNL d   1      -2.694  -5.758   2.090  0.00  0.00     0.009 A 
ENDBRANCH  13  14
ENDBRANCH  10  13
ENDBRANCH   4   9
BRANCH   1  20
ATOM     20  N   UNL d   1       0.102   2.461  -0.066  0.00  0.00    -0.385 N 
ATOM     21  C   UNL d   1      -0.983   3.262  -0.616  0.00  0.00     0.149 C 
ATOM     22  C   UNL d   1       1.159   3.194   0.622  0.00  0.00     0.149 C 
ENDBRANCH   1  20
TORSDOF 4
