REMARK  2 active torsions:
REMARK  status: ('A' for Active; 'I' for Inactive)
REMARK    1  A    between atoms: C_8  and  N_1 
REMARK    2  A    between atoms: N_15  and  C_4 
ROOT
ATOM      1  C   UNL d   1      -2.689  -4.716  -2.394  0.00  0.00     0.309 A 
ATOM      2  O   UNL d   1      -1.742  -4.654  -1.379  0.00  0.00    -0.273 OA
ATOM      3  C   UNL d   1      -2.949  -3.457  -3.182  0.00  0.00     0.083 A 
ATOM      4  C   UNL d   1      -2.348  -2.312  -2.830  0.00  0.00     0.043 A 
ATOM      5  C   UNL d   1      -1.374  -2.276  -1.750  0.00  0.00     0.002 A 
ATOM      6  C   UNL d   1      -1.076  -3.455  -1.072  0.00  0.00     0.090 A 
ATOM      7  C   UNL d   1       0.297  -1.146  -0.413  0.00  0.00     0.103 A 
ATOM      8  C   UNL d   1      -0.691  -1.105  -1.411  0.00  0.00     0.050 A 
ATOM      9  O   UNL d   1      -3.313  -5.748  -2.634  0.00  0.00    -0.258 OA
ATOM     10  C   UNL d   1      -0.105  -3.504  -0.072  0.00  0.00     0.041 A 
ATOM     11  C   UNL d   1       0.595  -2.343   0.257  0.00  0.00     0.039 A 
ENDROOT
BRANCH   3  12
ATOM     12  N   UNL d   1      -3.828  -3.552  -4.253  0.00  0.00    -0.298 NA
ATOM     13  H   UNL d   1      -4.349  -2.705  -4.453  0.00  0.00     0.124 HD
ATOM     14  H   UNL d   1      -4.412  -4.389  -4.186  0.00  0.00     0.124 HD
ENDBRANCH   3  12
BRANCH   7  15
ATOM     15  N   UNL d   1       1.043   0.076  -0.081  0.00  0.00    -0.116 N 
ATOM     16  O   UNL d   1       0.734   1.117  -0.678  0.00  0.00    -0.532 OA
ATOM     17  O   UNL d   1       1.936  -0.008   0.772  0.00  0.00    -0.532 OA
ENDBRANCH   7  15
TORSDOF 2
