REMARK  5 active torsions:
REMARK  status: ('A' for Active; 'I' for Inactive)
REMARK    1  A    between atoms: C_13  and  N_1 
REMARK    2  A    between atoms: O_18  and  C_4 
REMARK    3  A    between atoms: C_5  and  C_6 
REMARK    4  A    between atoms: O_19  and  C_7 
REMARK    5  A    between atoms: O_20  and  C_8 
ROOT
ATOM      1  N   UNL d   1       0.023  -0.956  -0.155  0.00  0.00    -0.252 N 
ATOM      2  C   UNL d   1       1.235  -0.253  -0.256  0.00  0.00     0.231 C 
ATOM      3  C   UNL d   1      -1.228  -0.362   0.081  0.00  0.00     0.231 C 
ATOM      4  C   UNL d   1      -0.132   1.862  -0.284  0.00  0.00     0.036 C 
ATOM      5  C   UNL d   1      -1.232   1.102   0.434  0.00  0.00     0.113 C 
ATOM      6  C   UNL d   1       1.198   1.222   0.062  0.00  0.00     0.113 C 
ATOM      7  O   UNL d   1      -2.312  -0.950   0.044  0.00  0.00    -0.273 OA
ATOM      8  O   UNL d   1       2.339  -0.761  -0.467  0.00  0.00    -0.273 OA
ENDROOT
BRANCH   4   9
ATOM      9  C   UNL d   1      -0.142   3.332   0.097  0.00  0.00    -0.048 A 
ATOM     10  C   UNL d   1      -0.002   3.743   1.426  0.00  0.00     0.047 A 
ATOM     11  C   UNL d   1       0.002   5.099   1.787  0.00  0.00     0.104 A 
ATOM     12  C   UNL d   1      -0.153   6.095   0.795  0.00  0.00     0.135 A 
ATOM     13  C   UNL d   1      -0.321   5.686  -0.547  0.00  0.00     0.104 A 
ATOM     14  C   UNL d   1      -0.303   4.316  -0.875  0.00  0.00     0.047 A 
BRANCH  11  15
ATOM     15  O   UNL d   1       0.074   5.465   3.109  0.00  0.00    -0.353 OA
ATOM     16  C   UNL d   1       0.867   4.637   3.955  0.00  0.00     0.210 C 
ENDBRANCH  11  15
BRANCH  12  17
ATOM     17  O   UNL d   1      -0.160   7.446   1.022  0.00  0.00    -0.351 OA
ATOM     18  C   UNL d   1       0.193   7.966   2.293  0.00  0.00     0.210 C 
ENDBRANCH  12  17
BRANCH  13  19
ATOM     19  O   UNL d   1      -0.512   6.456  -1.667  0.00  0.00    -0.353 OA
ATOM     20  C   UNL d   1      -0.608   7.866  -1.543  0.00  0.00     0.210 C 
ENDBRANCH  13  19
ENDBRANCH   4   9
BRANCH   1  21
ATOM     21  C   UNL d   1       0.059  -2.390  -0.311  0.00  0.00     0.045 A 
ATOM     22  C   UNL d   1       0.847  -2.999  -1.297  0.00  0.00     0.031 A 
ATOM     23  C   UNL d   1       0.896  -4.392  -1.418  0.00  0.00     0.009 A 
ATOM     24  C   UNL d   1       0.175  -5.208  -0.542  0.00  0.00    -0.062 A 
ATOM     25  C   UNL d   1      -0.616  -4.611   0.441  0.00  0.00     0.009 A 
ATOM     26  C   UNL d   1       0.250  -6.700  -0.673  0.00  0.00     0.048 C 
ATOM     27  C   UNL d   1      -0.679  -3.218   0.550  0.00  0.00     0.031 A 
ENDBRANCH   1  21
TORSDOF 5
