REMARK  6 active torsions:
REMARK  status: ('A' for Active; 'I' for Inactive)
REMARK    1  A    between atoms: N_2  and  S_1 
REMARK    2  A    between atoms: C_7  and  S_1 
REMARK    3  A    between atoms: N_8  and  C_4 
REMARK    4  A    between atoms: S_10  and  C_4 
REMARK    5  A    between atoms: N_9  and  N_8 
REMARK    6  A    between atoms: C_11  and  N_9 
ROOT
ATOM      1  N   UNL d   1       0.187  -0.842  -1.625  0.00  0.00    -0.259 N 
ATOM      2  HN  UNL d   1       0.387  -0.269  -0.805  1.00  0.00     0.181 HD
ATOM      3  C   UNL d   1       0.578  -0.384  -2.767  0.00  0.00     0.168 C 
ENDROOT
BRANCH   3   4
ATOM      4  N   UNL d   1       1.201   0.836  -2.906  0.00  0.00    -0.279 N 
ATOM      5  H   UNL d   1       1.885   0.870  -3.657  0.00  0.00     0.189 HD
BRANCH   4   6
ATOM      6  N   UNL d   1       1.339   1.754  -1.898  0.00  0.00    -0.299 N 
ATOM      7  H   UNL d   1       0.725   1.582  -1.093  0.00  0.00     0.187 HD
BRANCH   6   8
ATOM      8  C   UNL d   1       1.456   3.141  -2.173  0.00  0.00     0.048 A 
ATOM      9  C   UNL d   1       1.799   3.621  -3.446  0.00  0.00     0.031 A 
ATOM     10  C   UNL d   1       1.998   4.986  -3.676  0.00  0.00     0.002 A 
ATOM     11  C   UNL d   1       1.873   5.893  -2.627  0.00  0.00     0.000 A 
ATOM     12  C   UNL d   1       1.555   5.433  -1.353  0.00  0.00     0.002 A 
ATOM     13  C   UNL d   1       1.357   4.066  -1.126  0.00  0.00     0.031 A 
ENDBRANCH   6   8
ENDBRANCH   4   6
ENDBRANCH   3   4
BRANCH   3  14
ATOM     14  S   UNL d   1       0.428  -1.167  -4.329  0.00  0.00    -0.096 SA
ATOM     15  C   UNL d   1      -1.172  -0.486  -4.821  0.00  0.00     0.099 C 
ENDBRANCH   3  14
BRANCH   1  16
ATOM     16  S   UNL d   1      -0.586  -2.231  -1.373  0.00  0.00     0.264 S 
ATOM     17  O   UNL d   1      -1.880  -2.171  -2.030  0.00  0.00    -0.200 OA
ATOM     18  O   UNL d   1      -0.530  -2.522   0.049  0.00  0.00    -0.200 OA
BRANCH  16  19
ATOM     19  C   UNL d   1       0.343  -3.544  -2.144  0.00  0.00     0.079 A 
ATOM     20  C   UNL d   1       1.679  -3.745  -1.789  0.00  0.00     0.025 A 
ATOM     21  C   UNL d   1       2.409  -4.748  -2.431  0.00  0.00     0.002 A 
ATOM     22  C   UNL d   1       1.806  -5.537  -3.413  0.00  0.00     0.000 A 
ATOM     23  C   UNL d   1       0.467  -5.341  -3.752  0.00  0.00     0.002 A 
ATOM     24  C   UNL d   1      -0.274  -4.350  -3.111  0.00  0.00     0.025 A 
ENDBRANCH  16  19
ENDBRANCH   1  16
TORSDOF 6
