REMARK  5 active torsions:
REMARK  status: ('A' for Active; 'I' for Inactive)
REMARK    1  A    between atoms: C_4  and  C_1 
REMARK    2  A    between atoms: N_5  and  C_2 
REMARK       I    between atoms: C_3  and  N_6 
REMARK    3  A    between atoms: C_9  and  C_3 
REMARK    4  A    between atoms: O_17  and  C_4 
REMARK    5  A    between atoms: N_6  and  C_10 
ROOT
ATOM      1  C   UNL d   1       1.471  -0.244   0.123  0.00  0.00     0.068 A 
ATOM      2  C   UNL d   1       0.683  -1.389  -0.146  0.00  0.00     0.046 A 
ATOM      3  C   UNL d   1       0.879   1.034   0.202  0.00  0.00     0.049 A 
ATOM      4  C   UNL d   1      -0.678  -1.160  -0.423  0.00  0.00     0.032 A 
ATOM      5  C   UNL d   1      -0.486   1.220   0.008  0.00  0.00     0.036 A 
ATOM      6  C   UNL d   1      -1.254   0.119  -0.358  0.00  0.00     0.032 A 
ENDROOT
BRANCH   5   7
ATOM      7  N   UNL d   1      -1.137   2.464   0.173  0.00  0.00    -0.323 N 
ATOM      8  C   UNL d   1      -0.577   3.620   0.696  0.00  0.00     0.256 C 
ATOM      9  O   UNL d   1       0.586   3.778   1.049  0.00  0.00    -0.267 OA
ATOM     10  H   UNL d   1      -2.112   2.494  -0.091  0.00  0.00     0.169 HD
BRANCH   8  11
ATOM     11  C   UNL d   1      -1.492   4.787   0.802  0.00  0.00     0.032 A 
ATOM     12  C   UNL d   1      -2.844   4.654   1.135  0.00  0.00     0.017 A 
ATOM     13  C   UNL d   1      -3.667   5.785   1.156  0.00  0.00     0.007 A 
ATOM     14  C   UNL d   1      -3.146   7.051   0.857  0.00  0.00    -0.062 A 
ATOM     15  C   UNL d   1      -1.780   7.184   0.586  0.00  0.00     0.007 A 
ATOM     16  C   UNL d   1      -4.058   8.240   0.774  0.00  0.00     0.048 C 
ATOM     17  C   UNL d   1      -0.956   6.059   0.566  0.00  0.00     0.017 A 
ENDBRANCH   8  11
ENDBRANCH   5   7
BRANCH   1  18
ATOM     18  C   UNL d   1       2.969  -0.312   0.228  0.00  0.00     0.295 C 
ATOM     19  O   UNL d   1       3.687  -1.133  -0.310  0.00  0.00    -0.259 OA
BRANCH  18  20
ATOM     20  O   UNL d   1       3.403   0.693   1.036  0.00  0.00    -0.322 OA
ATOM     21  C   UNL d   1       4.820   0.816   1.155  0.00  0.00     0.213 C 
ENDBRANCH  18  20
ENDBRANCH   1  18
BRANCH   2  22
ATOM     22  N   UNL d   1       1.203  -2.678  -0.164  0.00  0.00    -0.376 N 
ATOM     23  C   UNL d   1       0.573  -3.760  -0.938  0.00  0.00     0.149 C 
ATOM     24  C   UNL d   1       1.640  -4.823  -1.250  0.00  0.00     0.187 C 
ATOM     25  O   UNL d   1       2.234  -5.343  -0.046  0.00  0.00    -0.388 OA
ATOM     26  C   UNL d   1       2.862  -4.276   0.693  0.00  0.00     0.187 C 
ATOM     27  C   UNL d   1       1.845  -3.186   1.071  0.00  0.00     0.149 C 
ENDBRANCH   2  22
TORSDOF 5
