REMARK  3 active torsions:
REMARK  status: ('A' for Active; 'I' for Inactive)
REMARK    1  A    between atoms: C_2  and  S_1 
REMARK    2  A    between atoms: C_5  and  S_1 
REMARK    3  A    between atoms: N_7  and  C_3 
ROOT
ATOM      1  C   UNL d   1       0.321  -0.555   1.541  0.00  0.00     0.154 C 
ATOM      2  C   UNL d   1      -0.372   0.389   2.206  0.00  0.00     0.120 C 
ATOM      3  C   UNL d   1       0.846  -0.368   0.243  0.00  0.00     0.113 C 
ATOM      4  N   UNL d   1       1.237  -0.186  -0.837  0.00  0.00    -0.191 NA
ENDROOT
BRANCH   1   5
ATOM      5  S   UNL d   1       0.769  -2.035   2.351  0.00  0.00     0.194 S 
ATOM      6  O   UNL d   1       0.664  -1.845   3.790  0.00  0.00    -0.221 OA
ATOM      7  O   UNL d   1       2.034  -2.499   1.806  0.00  0.00    -0.221 OA
BRANCH   5   8
ATOM      8  C   UNL d   1      -0.504  -3.260   1.875  0.00  0.00     0.058 C 
ATOM      9  C   UNL d   1      -0.587  -3.425   0.351  0.00  0.00     0.031 C 
ATOM     10  C   UNL d   1      -0.102  -4.621   2.482  0.00  0.00     0.031 C 
ATOM     11  C   UNL d   1      -1.877  -2.853   2.426  0.00  0.00     0.031 C 
ENDBRANCH   5   8
ENDBRANCH   1   5
BRANCH   2  12
ATOM     12  N   UNL d   1      -0.842   1.642   1.815  0.00  0.00    -0.384 N 
ATOM     13  C   UNL d   1      -1.194   2.057   0.438  0.00  0.00     0.148 C 
ATOM     14  C   UNL d   1      -0.316   3.241   0.008  0.00  0.00     0.187 C 
ATOM     15  O   UNL d   1      -0.472   4.347   0.916  0.00  0.00    -0.388 OA
ATOM     16  C   UNL d   1      -0.102   3.959   2.251  0.00  0.00     0.187 C 
ATOM     17  C   UNL d   1      -0.955   2.780   2.760  0.00  0.00     0.148 C 
ENDBRANCH   2  12
TORSDOF 3
