REMARK  0 active torsions:
REMARK  status: ('A' for Active; 'I' for Inactive)
ROOT
ATOM      1  C   UNL d   1      -2.314  -0.034   0.002  0.00  0.00     0.220 A 
ATOM      2  N   UNL d   1      -1.553   1.107   0.002  0.00  0.00    -0.325 N 
ATOM      3  O   UNL d   1      -1.548  -1.196   0.001  0.00  0.00    -0.282 OA
ATOM      4  C   UNL d   1      -0.262  -0.673  -0.000  0.00  0.00     0.105 A 
ATOM      5  C   UNL d   1      -0.246   0.708   0.000  0.00  0.00     0.069 A 
ATOM      6  S   UNL d   1      -3.962  -0.124   0.002  0.00  0.00    -0.033 SA
ATOM      7  C   UNL d   1       0.906  -1.405  -0.003  0.00  0.00     0.046 A 
ATOM      8  C   UNL d   1       0.914   1.443  -0.001  0.00  0.00     0.033 A 
ATOM      9  C   UNL d   1       2.119  -0.696  -0.004  0.00  0.00    -0.059 A 
ATOM     10  C   UNL d   1       2.112   0.722  -0.003  0.00  0.00     0.009 A 
ATOM     11  C   UNL d   1       3.431  -1.426  -0.009  0.00  0.00     0.048 C 
ATOM     12  H   UNL d   1      -1.909   2.050   0.001  0.00  0.00     0.169 HD
ENDROOT
TORSDOF 0
