REMARK  5 active torsions:
REMARK  status: ('A' for Active; 'I' for Inactive)
REMARK    1  A    between atoms: C_6  and  N_1 
REMARK    2  A    between atoms: C_10  and  C_6 
REMARK    3  A    between atoms: O_12  and  C_10 
REMARK    4  A    between atoms: C_14  and  C_10 
REMARK    5  A    between atoms: S_11  and  C_14 
ROOT
ATOM      1  N   UNL d   1       2.385  -0.613  -0.042  0.00  0.00    -0.255 N 
ATOM      2  C   UNL d   1       1.254  -1.423   0.080  0.00  0.00     0.273 A 
ATOM      3  N   UNL d   1       2.353   0.765  -0.033  0.00  0.00    -0.306 N 
ATOM      4  HN  UNL d   1       3.217   1.308  -0.060  1.00  0.00     0.186 HD
ATOM      5  C   UNL d   1      -0.051  -0.734   0.063  0.00  0.00     0.045 A 
ATOM      6  C   UNL d   1       1.200   1.355   0.010  0.00  0.00     0.119 A 
ATOM      7  C   UNL d   1      -0.075   0.652   0.026  0.00  0.00    -0.004 A 
ATOM      8  O   UNL d   1       1.309  -2.645   0.184  0.00  0.00    -0.266 OA
ATOM      9  C   UNL d   1      -1.253  -1.448   0.053  0.00  0.00     0.018 A 
ATOM     10  C   UNL d   1      -1.282   1.354  -0.017  0.00  0.00     0.014 A 
ATOM     11  C   UNL d   1      -2.468  -0.756   0.001  0.00  0.00     0.001 A 
ATOM     12  C   UNL d   1      -2.482   0.641  -0.032  0.00  0.00     0.001 A 
ENDROOT
BRANCH   1  13
ATOM     13  C   UNL d   1       3.706  -1.222  -0.171  0.00  0.00     0.184 C 
BRANCH  13  14
ATOM     14  C   UNL d   1       4.382  -1.480   1.188  0.00  0.00     0.147 C 
BRANCH  14  15
ATOM     15  O   UNL d   1       3.655  -2.450   1.968  0.00  0.00    -0.393 OA
ATOM     16  H   UNL d   1       2.938  -2.822   1.414  0.00  0.00     0.210 HD
ENDBRANCH  14  15
BRANCH  14  17
ATOM     17  C   UNL d   1       5.812  -2.027   1.032  0.00  0.00     0.107 C 
BRANCH  17  18
ATOM     18  S   UNL d   1       6.950  -0.891   0.169  0.00  0.00    -0.171 SA
ATOM     19  C   UNL d   1       8.405  -1.961   0.093  0.00  0.00     0.089 C 
ENDBRANCH  17  18
ENDBRANCH  14  17
ENDBRANCH  13  14
ENDBRANCH   1  13
TORSDOF 5
