REMARK  9 active torsions:
REMARK  status: ('A' for Active; 'I' for Inactive)
REMARK    1  A    between atoms: C_10  and  N_1 
REMARK    2  A    between atoms: C_13  and  C_5 
REMARK    3  A    between atoms: C_8  and  C_10 
REMARK    4  A    between atoms: C_17  and  C_11 
REMARK    5  A    between atoms: C_16  and  C_13 
REMARK    6  A    between atoms: O_29  and  C_16 
REMARK    7  A    between atoms: C_18  and  O_20 
REMARK    8  A    between atoms: O_20  and  C_24 
REMARK    9  A    between atoms: C_32  and  O_29 
ROOT
ATOM      1  N   UNL d   1       2.415  -0.653  -0.008  0.00  0.00    -0.251 N 
ATOM      2  N   UNL d   1       2.416   0.724   0.012  0.00  0.00    -0.298 N 
ATOM      3  HN  UNL d   1       3.296   1.238   0.008  1.00  0.00     0.187 HD
ATOM      4  C   UNL d   1       1.268  -1.433   0.027  0.00  0.00     0.273 A 
ATOM      5  C   UNL d   1       1.285   1.360   0.035  0.00  0.00     0.046 A 
ATOM      6  C   UNL d   1      -0.022  -0.713   0.041  0.00  0.00     0.046 A 
ATOM      7  C   UNL d   1      -0.032   0.677   0.008  0.00  0.00     0.004 A 
ATOM      8  O   UNL d   1       1.259  -2.660  -0.005  0.00  0.00    -0.266 OA
ATOM      9  C   UNL d   1      -1.226  -1.431   0.027  0.00  0.00     0.018 A 
ATOM     10  C   UNL d   1      -1.259   1.351  -0.068  0.00  0.00     0.014 A 
ATOM     11  C   UNL d   1      -2.443  -0.756  -0.034  0.00  0.00     0.001 A 
ATOM     12  C   UNL d   1      -2.460   0.636  -0.083  0.00  0.00     0.001 A 
ENDROOT
BRANCH   1  13
ATOM     13  C   UNL d   1       3.720  -1.307  -0.118  0.00  0.00     0.217 C 
BRANCH  13  14
ATOM     14  C   UNL d   1       4.327  -1.525   1.237  0.00  0.00     0.071 A 
ATOM     15  N   UNL d   1       4.115  -2.583   1.994  0.00  0.00    -0.351 N 
ATOM     16  C   UNL d   1       4.779  -2.466   3.206  0.00  0.00     0.049 A 
ATOM     17  HN  UNL d   1       3.539  -3.381   1.725  1.00  0.00     0.166 HD
ATOM     18  C   UNL d   1       5.564  -1.333   3.312  0.00  0.00     0.081 A 
ATOM     19  S   UNL d   1       5.423  -0.374   1.896  0.00  0.00    -0.085 SA
BRANCH  16  20
ATOM     20  C   UNL d   1       4.583  -3.462   4.261  0.00  0.00    -0.009 A 
ATOM     21  C   UNL d   1       3.817  -4.604   3.986  0.00  0.00     0.016 A 
ATOM     22  C   UNL d   1       3.519  -5.529   4.991  0.00  0.00     0.038 A 
ATOM     23  C   UNL d   1       3.968  -5.324   6.294  0.00  0.00     0.074 A 
ATOM     24  C   UNL d   1       4.781  -4.226   6.572  0.00  0.00     0.038 A 
ATOM     25  C   UNL d   1       5.081  -3.299   5.562  0.00  0.00     0.016 A 
BRANCH  23  26
ATOM     26  O   UNL d   1       3.573  -6.265   7.201  0.00  0.00    -0.290 OA
BRANCH  26  27
ATOM     27  C   UNL d   1       3.411  -5.795   8.528  0.00  0.00     0.505 C 
ATOM     28  F   UNL d   1       2.466  -6.570   9.120  0.00  0.00    -0.184 F 
ATOM     29  F   UNL d   1       4.568  -6.006   9.204  0.00  0.00    -0.184 F 
ENDBRANCH  26  27
ENDBRANCH  23  26
ENDBRANCH  16  20
ENDBRANCH  13  14
ENDBRANCH   1  13
BRANCH   5  30
ATOM     30  C   UNL d   1       1.361   2.874   0.039  0.00  0.00     0.170 C 
BRANCH  30  31
ATOM     31  C   UNL d   1       0.740   3.534   1.235  0.00  0.00     0.264 C 
ATOM     32  O   UNL d   1       0.203   2.956   2.168  0.00  0.00    -0.265 OA
BRANCH  31  33
ATOM     33  O   UNL d   1       0.750   4.886   1.052  0.00  0.00    -0.322 OA
BRANCH  33  34
ATOM     34  C   UNL d   1      -0.187   5.621   1.853  0.00  0.00     0.174 C 
ATOM     35  C   UNL d   1      -1.471   5.753   1.054  0.00  0.00     0.034 C 
ENDBRANCH  33  34
ENDBRANCH  31  33
ENDBRANCH  30  31
ENDBRANCH   5  30
TORSDOF 9
