REMARK  5 active torsions:
REMARK  status: ('A' for Active; 'I' for Inactive)
REMARK    1  A    between atoms: S_8  and  C_1 
REMARK    2  A    between atoms: N_6  and  C_2 
REMARK    3  A    between atoms: N_5  and  C_3 
REMARK    4  A    between atoms: C_4  and  S_8 
REMARK    5  A    between atoms: C_11  and  C_12 
ROOT
ATOM      1  C   UNL d   1       1.473  -0.365   0.059  0.00  0.00     0.074 A 
ATOM      2  C   UNL d   1       0.478  -1.358   0.129  0.00  0.00     0.123 A 
ATOM      3  C   UNL d   1       0.997   0.944  -0.140  0.00  0.00     0.123 A 
ATOM      4  C   UNL d   1      -1.344   0.237  -0.154  0.00  0.00     0.052 A 
ATOM      5  C   UNL d   1      -0.902  -1.079   0.022  0.00  0.00     0.053 A 
ATOM      6  C   UNL d   1      -0.379   1.250  -0.245  0.00  0.00     0.053 A 
ENDROOT
BRANCH   1   7
ATOM      7  S   UNL d   1       3.208  -0.751   0.296  0.00  0.00    -0.049 SA
BRANCH   7   8
ATOM      8  C   UNL d   1       3.750  -0.843  -1.350  0.00  0.00     0.156 A 
ATOM      9  N   UNL d   1       5.090  -0.979  -1.672  0.00  0.00    -0.301 N 
ATOM     10  C   UNL d   1       5.144  -1.000  -3.062  0.00  0.00     0.056 A 
ATOM     11  C   UNL d   1       6.236  -1.083  -0.876  0.00  0.00     0.099 A 
ATOM     12  C   UNL d   1       6.421  -1.111  -3.682  0.00  0.00     0.031 A 
ATOM     13  C   UNL d   1       3.837  -0.902  -3.484  0.00  0.00     0.120 A 
ATOM     14  C   UNL d   1       7.524  -1.201  -2.912  0.00  0.00     0.004 A 
ATOM     15  C   UNL d   1       7.441  -1.194  -1.460  0.00  0.00     0.018 A 
ATOM     16  N   UNL d   1       2.978  -0.796  -2.413  0.00  0.00    -0.344 N 
ATOM     17  HN  UNL d   1       1.963  -0.702  -2.439  1.00  0.00     0.167 HD
ENDBRANCH   7   8
ENDBRANCH   1   7
BRANCH   2  18
ATOM     18  N   UNL d   1       0.825  -2.747   0.374  0.00  0.00    -0.114 N 
ATOM     19  O   UNL d   1       1.272  -3.026   1.493  0.00  0.00    -0.532 OA
ATOM     20  O   UNL d   1       0.567  -3.554  -0.527  0.00  0.00    -0.532 OA
ENDBRANCH   2  18
BRANCH   3  21
ATOM     21  N   UNL d   1       1.905   2.078  -0.203  0.00  0.00    -0.114 N 
ATOM     22  O   UNL d   1       2.612   2.296   0.789  0.00  0.00    -0.532 OA
ATOM     23  O   UNL d   1       1.840   2.791  -1.212  0.00  0.00    -0.532 OA
ENDBRANCH   3  21
BRANCH   4  24
ATOM     24  C   UNL d   1      -2.817   0.577  -0.210  0.00  0.00     0.417 C 
ATOM     25  F   UNL d   1      -3.624  -0.516  -0.146  0.00  0.00    -0.166 F 
ATOM     26  F   UNL d   1      -3.191   1.382   0.821  0.00  0.00    -0.166 F 
ATOM     27  F   UNL d   1      -3.156   1.236  -1.349  0.00  0.00    -0.166 F 
ENDBRANCH   4  24
TORSDOF 5
