REMARK  3 active torsions:
REMARK  status: ('A' for Active; 'I' for Inactive)
REMARK    1  A    between atoms: C_7  and  C_3 
REMARK    2  A    between atoms: C_6  and  C_7 
REMARK       I    between atoms: N_8  and  C_6 
REMARK    3  A    between atoms: C_9  and  N_8 
ROOT
ATOM      1  C   UNL d   1       2.048   2.564   0.100  0.00  0.00     0.229 C 
ATOM      2  N   UNL d   1       2.957   1.542  -0.097  0.00  0.00    -0.324 N 
ATOM      3  O   UNL d   1       0.834   2.392   0.236  0.00  0.00    -0.273 OA
ATOM      4  H   UNL d   1       3.915   1.745   0.183  0.00  0.00     0.169 HD
ENDROOT
BRANCH   1   5
ATOM      5  C   UNL d   1       2.570   3.984   0.191  0.00  0.00     0.181 C 
BRANCH   5   6
ATOM      6  C   UNL d   1       4.031   4.207   0.263  0.00  0.00     0.112 A 
ATOM      7  N   UNL d   1       4.933   3.310   0.793  0.00  0.00    -0.333 N 
ATOM      8  C   UNL d   1       6.045   4.006   0.774  0.00  0.00     0.260 A 
ATOM      9  HN  UNL d   1       4.777   2.355   1.116  1.00  0.00     0.168 HD
ATOM     10  O   UNL d   1       5.909   5.250   0.251  0.00  0.00    -0.232 OA
ATOM     11  N   UNL d   1       4.565   5.385  -0.091  0.00  0.00    -0.247 N 
ATOM     12  HN  UNL d   1       4.098   6.190  -0.510  1.00  0.00     0.196 HD
ENDBRANCH   5   6
ENDBRANCH   1   5
BRANCH   2  13
ATOM     13  C   UNL d   1       2.612   0.176  -0.265  0.00  0.00     0.073 A 
ATOM     14  C   UNL d   1       1.403  -0.275  -0.822  0.00  0.00     0.145 A 
ATOM     15  C   UNL d   1       1.091  -1.631  -0.883  0.00  0.00     0.086 A 
ATOM     16  F   UNL d   1       0.539   0.573  -1.399  0.00  0.00    -0.204 F 
ATOM     17  C   UNL d   1       2.008  -2.557  -0.413  0.00  0.00     0.119 A 
ATOM     18  C   UNL d   1       3.240  -2.148   0.086  0.00  0.00     0.044 A 
ATOM     19  F   UNL d   1       1.715  -3.861  -0.453  0.00  0.00    -0.206 F 
ATOM     20  C   UNL d   1       3.548  -0.782   0.149  0.00  0.00     0.036 A 
ENDBRANCH   2  13
TORSDOF 3
