REMARK  4 active torsions:
REMARK  status: ('A' for Active; 'I' for Inactive)
REMARK    1  A    between atoms: C_2  and  S_1 
REMARK    2  A    between atoms: N_5  and  S_1 
REMARK    3  A    between atoms: N_8  and  N_5 
REMARK    4  A    between atoms: C_13  and  C_12 
ROOT
ATOM      1  S   UNL d   1       0.836  -0.036  -0.078  0.00  0.00     0.282 S 
ATOM      2  O   UNL d   1       2.275  -0.189  -0.008  0.00  0.00    -0.198 OA
ATOM      3  O   UNL d   1       0.190   1.257   0.033  0.00  0.00    -0.198 OA
ENDROOT
BRANCH   1   4
ATOM      4  C   UNL d   1       0.246  -0.971   1.311  0.00  0.00     0.123 A 
ATOM      5  S   UNL d   1      -1.445  -1.230   1.389  0.00  0.00    -0.064 SA
ATOM      6  C   UNL d   1      -1.289  -2.119   2.819  0.00  0.00     0.075 A 
ATOM      7 CL   UNL d   1      -2.687  -2.771   3.572  0.00  0.00    -0.076 Cl
ATOM      8  C   UNL d   1       0.006  -2.244   3.252  0.00  0.00     0.033 A 
ATOM      9  C   UNL d   1       0.904  -1.572   2.371  0.00  0.00     0.035 A 
ENDBRANCH   1   4
BRANCH   1  10
ATOM     10  N   UNL d   1       0.272  -0.847  -1.471  0.00  0.00    -0.223 N 
ATOM     11  H   UNL d   1       0.109  -1.846  -1.346  0.00  0.00     0.200 HD
BRANCH  10  12
ATOM     12  N   UNL d   1       0.646  -0.318  -2.753  0.00  0.00    -0.305 N 
ATOM     13  C   UNL d   1       0.307  -1.036  -3.773  0.00  0.00     0.089 C 
ATOM     14  HN  UNL d   1       1.147   0.565  -2.852  1.00  0.00     0.186 HD
BRANCH  13  15
ATOM     15  C   UNL d   1       0.645  -0.598  -5.191  0.00  0.00    -0.018 C 
ATOM     16  C   UNL d   1       1.976  -1.242  -5.592  0.00  0.00     0.020 C 
ATOM     17  C   UNL d   1      -0.472  -1.081  -6.122  0.00  0.00     0.020 C 
ATOM     18  C   UNL d   1       0.755   0.930  -5.272  0.00  0.00     0.020 C 
ENDBRANCH  13  15
ENDBRANCH  10  12
ENDBRANCH   1  10
TORSDOF 4
