REMARK  3 active torsions:
REMARK  status: ('A' for Active; 'I' for Inactive)
REMARK    1  A    between atoms: C_6  and  N_1 
REMARK    2  A    between atoms: C_7  and  C_3 
REMARK    3  A    between atoms: C_8  and  C_7 
ROOT
ATOM      1  N   UNL d   1      -1.428   0.488  -0.266  0.00  0.00    -0.238 N 
ATOM      2  C   UNL d   1      -0.966  -0.812  -0.180  0.00  0.00     0.298 A 
ATOM      3  C   UNL d   1       0.911   0.868  -0.081  0.00  0.00     0.080 A 
ATOM      4  C   UNL d   1      -0.440   1.469  -0.283  0.00  0.00     0.273 A 
ATOM      5  S   UNL d   1       0.791  -0.846  -0.096  0.00  0.00    -0.023 SA
ATOM      6  O   UNL d   1      -1.595  -1.857  -0.117  0.00  0.00    -0.259 OA
ATOM      7  O   UNL d   1      -0.589   2.662  -0.513  0.00  0.00    -0.266 OA
ENDROOT
BRANCH   1   8
ATOM      8  C   UNL d   1      -2.826   0.814  -0.372  0.00  0.00     0.049 A 
ATOM      9  C   UNL d   1      -3.780  -0.129  -0.786  0.00  0.00     0.072 A 
ATOM     10  C   UNL d   1      -5.129   0.215  -0.884  0.00  0.00     0.118 A 
ATOM     11  F   UNL d   1      -6.010  -0.707  -1.296  0.00  0.00    -0.206 F 
ATOM     12  C   UNL d   1      -5.576   1.490  -0.576  0.00  0.00     0.042 A 
ATOM     13  C   UNL d   1      -4.657   2.441  -0.161  0.00  0.00     0.005 A 
ATOM     14  C   UNL d   1      -3.302   2.103  -0.057  0.00  0.00     0.030 A 
ENDBRANCH   1   8
BRANCH   3  15
ATOM     15  C   UNL d   1       2.074   1.509   0.107  0.00  0.00     0.043 C 
BRANCH  15  16
ATOM     16  C   UNL d   1       2.180   2.922   0.192  0.00  0.00     0.006 A 
ATOM     17  S   UNL d   1       2.159   3.687   1.733  0.00  0.00    -0.102 SA
ATOM     18  C   UNL d   1       2.336   5.240   1.044  0.00  0.00     0.050 A 
ATOM     19  C   UNL d   1       2.421   5.190  -0.329  0.00  0.00     0.008 A 
ATOM     20  C   UNL d   1       2.330   3.854  -0.819  0.00  0.00     0.019 A 
ENDBRANCH  15  16
ENDBRANCH   3  15
TORSDOF 3
