REMARK  5 active torsions:
REMARK  status: ('A' for Active; 'I' for Inactive)
REMARK    1  A    between atoms: C_6  and  N_1 
REMARK    2  A    between atoms: N_9  and  C_6 
REMARK    3  A    between atoms: C_10  and  N_9 
REMARK    4  A    between atoms: C_18  and  C_11 
REMARK    5  A    between atoms: C_19  and  C_18 
ROOT
ATOM      1  C   UNL d   1       3.415   1.530   1.445  0.00  0.00     0.230 C 
ENDROOT
BRANCH   1   2
ATOM      2  N   UNL d   1       2.331   0.639   1.748  0.00  0.00    -0.267 N 
ATOM      3  C   UNL d   1       2.477  -0.717   1.872  0.00  0.00     0.262 C 
ATOM      4  C   UNL d   1       1.231  -1.223   2.443  0.00  0.00     0.048 A 
ATOM      5  O   UNL d   1       3.435  -1.414   1.606  0.00  0.00    -0.267 OA
ATOM      6  C   UNL d   1       0.837  -2.514   2.733  0.00  0.00     0.018 A 
ATOM      7  C   UNL d   1       0.428  -0.131   2.717  0.00  0.00     0.048 A 
ATOM      8  C   UNL d   1      -0.426  -2.680   3.309  0.00  0.00     0.001 A 
ATOM      9  C   UNL d   1      -1.246  -1.566   3.590  0.00  0.00     0.001 A 
ATOM     10  C   UNL d   1      -0.816  -0.268   3.299  0.00  0.00     0.018 A 
ATOM     11  C   UNL d   1       1.168   1.067   2.327  0.00  0.00     0.262 C 
ATOM     12  O   UNL d   1       0.796   2.199   2.574  0.00  0.00    -0.267 OA
ENDBRANCH   1   2
BRANCH   1  13
ATOM     13  N   UNL d   1       3.917   1.242   0.108  0.00  0.00    -0.276 NA
ATOM     14  H   UNL d   1       3.782   0.256  -0.113  0.00  0.00     0.129 HD
BRANCH  13  15
ATOM     15  C   UNL d   1       5.265   1.587  -0.121  0.00  0.00     0.009 A 
ATOM     16  C   UNL d   1       5.993   0.874  -1.082  0.00  0.00     0.024 A 
ATOM     17  C   UNL d   1       7.343   1.152  -1.321  0.00  0.00     0.009 A 
ATOM     18  C   UNL d   1       7.990   2.176  -0.621  0.00  0.00    -0.058 A 
ATOM     19  C   UNL d   1       7.240   2.959   0.261  0.00  0.00     0.009 A 
ATOM     20  C   UNL d   1       5.890   2.678   0.491  0.00  0.00     0.024 A 
BRANCH  18  21
ATOM     21  C   UNL d   1       9.466   2.428  -0.806  0.00  0.00     0.038 C 
BRANCH  21  22
ATOM     22  C   UNL d   1      10.286   2.261   0.481  0.00  0.00     0.000 C 
ATOM     23  C   UNL d   1      10.244   0.847   1.045  0.00  0.00     0.005 C 
ENDBRANCH  21  22
ENDBRANCH  18  21
ENDBRANCH  13  15
ENDBRANCH   1  13
TORSDOF 5
