REMARK  3 active torsions:
REMARK  status: ('A' for Active; 'I' for Inactive)
REMARK    1  A    between atoms: N_6  and  N_1 
REMARK    2  A    between atoms: C_3  and  N_6 
REMARK    3  A    between atoms: N_11  and  C_3 
ROOT
ATOM      1  N   UNL d   1       2.248   1.592   0.014  0.00  0.00    -0.302 N 
ATOM      2  HN  UNL d   1       1.752   2.483   0.058  1.00  0.00     0.186 HD
ATOM      3  C   UNL d   1       1.603   0.471  -0.016  0.00  0.00     0.037 C 
ATOM      4  C   UNL d   1       0.149   0.422  -0.006  0.00  0.00    -0.006 A 
ATOM      5  C   UNL d   1      -0.246  -0.910   0.009  0.00  0.00    -0.046 A 
ATOM      6  C   UNL d   1       2.148  -0.935  -0.086  0.00  0.00     0.064 C 
ATOM      7  C   UNL d   1       0.917  -1.848   0.058  0.00  0.00     0.045 C 
ATOM      8  C   UNL d   1      -0.747   1.476  -0.022  0.00  0.00     0.014 A 
ATOM      9  C   UNL d   1      -1.596  -1.223   0.010  0.00  0.00     0.008 A 
ATOM     10  C   UNL d   1      -2.105   1.164  -0.025  0.00  0.00     0.001 A 
ATOM     11  C   UNL d   1      -2.526  -0.177  -0.011  0.00  0.00     0.001 A 
ENDROOT
BRANCH   1  12
ATOM     12  N   UNL d   1       3.609   1.547  -0.015  0.00  0.00    -0.276 N 
ATOM     13  H   UNL d   1       4.107   0.665  -0.073  0.00  0.00     0.189 HD
BRANCH  12  14
ATOM     14  C   UNL d   1       4.340   2.704   0.027  0.00  0.00     0.184 C 
ATOM     15  S   UNL d   1       5.997   2.718  -0.010  0.00  0.00    -0.040 SA
BRANCH  14  16
ATOM     16  N   UNL d   1       3.609   3.843   0.102  0.00  0.00    -0.375 N 
ATOM     17  H   UNL d   1       2.603   3.734   0.124  0.00  0.00     0.158 HD
ATOM     18  H   UNL d   1       4.039   4.755   0.142  0.00  0.00     0.158 HD
ENDBRANCH  14  16
ENDBRANCH  12  14
ENDBRANCH   1  12
TORSDOF 3
