REMARK  6 active torsions:
REMARK  status: ('A' for Active; 'I' for Inactive)
REMARK    1  A    between atoms: C_6  and  C_1 
REMARK    2  A    between atoms: C_2  and  C_4 
REMARK    3  A    between atoms: C_3  and  C_5 
REMARK    4  A    between atoms: C_11  and  C_6 
REMARK    5  A    between atoms: N_12  and  C_7 
REMARK    6  A    between atoms: C_13  and  N_12 
ROOT
ATOM      1  C   UNL d   1       0.940  -0.034  -0.165  0.00  0.00     0.106 C 
ATOM      2  C   UNL d   1       0.203  -0.482   0.873  0.00  0.00     0.114 C 
ATOM      3  C   UNL d   1       0.303   0.557  -1.289  0.00  0.00     0.104 C 
ATOM      4  N   UNL d   1      -0.224   1.019  -2.213  0.00  0.00    -0.191 NA
ENDROOT
BRANCH   1   5
ATOM      5  C   UNL d   1       2.432  -0.198  -0.075  0.00  0.00     0.178 C 
ATOM      6  O   UNL d   1       2.923  -0.375   1.053  0.00  0.00    -0.291 OA
BRANCH   5   7
ATOM      7  C   UNL d   1       3.361  -0.099  -1.311  0.00  0.00     0.015 C 
ATOM      8  C   UNL d   1       3.651   1.376  -1.614  0.00  0.00     0.023 C 
ATOM      9  C   UNL d   1       4.703  -0.790  -0.965  0.00  0.00     0.023 C 
ATOM     10  C   UNL d   1       2.819  -0.812  -2.558  0.00  0.00     0.023 C 
ENDBRANCH   5   7
ENDBRANCH   1   5
BRANCH   2  11
ATOM     11  N   UNL d   1      -1.171  -0.423   1.038  0.00  0.00    -0.364 N 
ATOM     12  H   UNL d   1      -1.548  -1.201   1.582  0.00  0.00     0.165 HD
BRANCH  11  13
ATOM     13  C   UNL d   1      -1.870   0.767   1.372  0.00  0.00     0.033 A 
ATOM     14  C   UNL d   1      -1.224   1.951   1.753  0.00  0.00     0.045 A 
ATOM     15  C   UNL d   1      -1.947   3.122   2.035  0.00  0.00     0.050 A 
ATOM     16  C   UNL d   1      -3.345   3.102   1.927  0.00  0.00     0.032 A 
ATOM     17  C   UNL d   1      -4.016   1.935   1.534  0.00  0.00     0.050 A 
ATOM     18  C   UNL d   1      -3.268   0.774   1.269  0.00  0.00     0.045 A 
BRANCH  15  19
ATOM     19  C   UNL d   1      -1.207   4.378   2.430  0.00  0.00     0.417 C 
ATOM     20  F   UNL d   1      -2.019   5.458   2.597  0.00  0.00    -0.166 F 
ATOM     21  F   UNL d   1      -0.531   4.234   3.603  0.00  0.00    -0.166 F 
ATOM     22  F   UNL d   1      -0.280   4.745   1.505  0.00  0.00    -0.166 F 
ENDBRANCH  15  19
BRANCH  17  23
ATOM     23  C   UNL d   1      -5.518   1.921   1.362  0.00  0.00     0.417 C 
ATOM     24  F   UNL d   1      -6.106   3.116   1.640  0.00  0.00    -0.166 F 
ATOM     25  F   UNL d   1      -5.892   1.609   0.090  0.00  0.00    -0.166 F 
ATOM     26  F   UNL d   1      -6.124   1.010   2.167  0.00  0.00    -0.166 F 
ENDBRANCH  17  23
ENDBRANCH  11  13
ENDBRANCH   2  11
TORSDOF 6
