REMARK  3 active torsions:
REMARK  status: ('A' for Active; 'I' for Inactive)
REMARK    1  A    between atoms: C_5  and  C_1 
REMARK    2  A    between atoms: C_8  and  C_2 
REMARK    3  A    between atoms: O_13  and  C_8 
ROOT
ATOM      1  C   UNL d   1       1.395   0.662  -0.062  0.00  0.00     0.150 A 
ATOM      2  C   UNL d   1       1.504  -0.765  -0.041  0.00  0.00     0.087 A 
ATOM      3  N   UNL d   1       0.097   1.038  -0.022  0.00  0.00    -0.294 N 
ATOM      4  HN  UNL d   1      -0.274   1.988  -0.005  1.00  0.00     0.187 HD
ATOM      5  N   UNL d   1      -0.595  -0.106  -0.011  0.00  0.00    -0.306 N 
ATOM      6  C   UNL d   1       0.195  -1.215   0.011  0.00  0.00     0.130 A 
ATOM      7  C   UNL d   1      -2.038  -0.079  -0.049  0.00  0.00     0.177 C 
ENDROOT
BRANCH   1   8
ATOM      8  C   UNL d   1       2.495   1.701  -0.090  0.00  0.00     0.435 C 
ATOM      9  F   UNL d   1       3.748   1.189  -0.028  0.00  0.00    -0.165 F 
ATOM     10  F   UNL d   1       2.441   2.469  -1.211  0.00  0.00    -0.165 F 
ATOM     11  F   UNL d   1       2.397   2.554   0.970  0.00  0.00    -0.165 F 
ENDBRANCH   1   8
BRANCH   2  12
ATOM     12  C   UNL d   1       2.698  -1.589  -0.108  0.00  0.00     0.179 C 
ATOM     13  O   UNL d   1       3.728  -1.244  -0.666  0.00  0.00    -0.646 OA
BRANCH  12  14
ATOM     14  O   UNL d   1       2.579  -2.804   0.484  0.00  0.00    -0.773 OA
ATOM     15  H   UNL d   1       1.738  -2.917   0.959  0.00  0.00     0.167 HD
ENDBRANCH  12  14
ENDBRANCH   2  12
TORSDOF 3
