REMARK  2 active torsions:
REMARK  status: ('A' for Active; 'I' for Inactive)
REMARK    1  A    between atoms: C_12  and  C_5 
REMARK    2  A    between atoms: O_22  and  C_17 
ROOT
ATOM      1  C   UNL d   1      -0.747   0.369   0.018  0.00  0.00     0.050 C 
ATOM      2  C   UNL d   1      -1.386  -0.810  -0.002  0.00  0.00    -0.025 C 
ATOM      3  N   UNL d   1      -1.496   1.521  -0.039  0.00  0.00    -0.332 N 
ATOM      4  C   UNL d   1      -2.852   1.568   0.067  0.00  0.00     0.173 C 
ATOM      5  C   UNL d   1      -2.894  -0.875  -0.141  0.00  0.00     0.148 C 
ATOM      6  N   UNL d   1      -3.496   0.389   0.222  0.00  0.00    -0.354 N 
ATOM      7  C   UNL d   1       0.734   0.436   0.060  0.00  0.00    -0.003 A 
ATOM      8  C   UNL d   1       1.491  -0.748   0.033  0.00  0.00    -0.043 A 
ATOM      9  C   UNL d   1      -0.679  -2.138   0.067  0.00  0.00     0.043 C 
ATOM     10  C   UNL d   1       1.433   1.655   0.115  0.00  0.00     0.017 A 
ATOM     11  S   UNL d   1      -3.676   3.012   0.037  0.00  0.00    -0.041 SA
ATOM     12  C   UNL d   1       0.846  -2.104  -0.048  0.00  0.00     0.044 C 
ATOM     13  C   UNL d   1       2.899  -0.687   0.043  0.00  0.00     0.044 A 
ATOM     14  C   UNL d   1       3.575   0.530   0.084  0.00  0.00     0.068 A 
ATOM     15  C   UNL d   1       2.834   1.705   0.125  0.00  0.00     0.037 A 
ATOM     16  H   UNL d   1      -1.045   2.421  -0.119  0.00  0.00     0.168 HD
ATOM     17  H   UNL d   1      -4.506   0.436   0.237  0.00  0.00     0.163 HD
ENDROOT
BRANCH   5  18
ATOM     18  C   UNL d   1      -3.322  -1.276  -1.545  0.00  0.00    -0.031 A 
ATOM     19  C   UNL d   1      -4.076  -2.438  -1.755  0.00  0.00     0.010 A 
ATOM     20  C   UNL d   1      -4.382  -2.858  -3.052  0.00  0.00     0.007 A 
ATOM     21  C   UNL d   1      -3.951  -2.121  -4.162  0.00  0.00    -0.062 A 
ATOM     22  C   UNL d   1      -3.247  -0.934  -3.957  0.00  0.00     0.007 A 
ATOM     23  C   UNL d   1      -4.192  -2.635  -5.549  0.00  0.00     0.048 C 
ATOM     24  C   UNL d   1      -2.940  -0.515  -2.664  0.00  0.00     0.010 A 
ENDBRANCH   5  18
BRANCH  14  25
ATOM     25  O   UNL d   1       4.938   0.437   0.080  0.00  0.00    -0.356 OA
ATOM     26  C   UNL d   1       5.664   1.660   0.098  0.00  0.00     0.210 C 
ENDBRANCH  14  25
TORSDOF 2
