REMARK  3 active torsions:
REMARK  status: ('A' for Active; 'I' for Inactive)
REMARK    1  A    between atoms: C_6  and  C_1 
REMARK    2  A    between atoms: C_9  and  C_2 
REMARK    3  A    between atoms: C_8  and  C_6 
ROOT
ATOM      1  C   UNL d   1      -2.307  -0.345   0.080  0.00  0.00     0.032 A 
ATOM      2  C   UNL d   1      -1.802  -1.591  -0.038  0.00  0.00     0.097 A 
ATOM      3  C   UNL d   1      -1.336   0.773   0.215  0.00  0.00     0.194 A 
ATOM      4  O   UNL d   1      -0.458  -1.917  -0.004  0.00  0.00    -0.308 OA
ATOM      5  C   UNL d   1       0.092   0.437   0.115  0.00  0.00     0.048 A 
ATOM      6  C   UNL d   1       0.458  -0.900   0.028  0.00  0.00     0.090 A 
ATOM      7  O   UNL d   1      -1.695   1.931   0.400  0.00  0.00    -0.287 OA
ATOM      8  C   UNL d   1       1.067   1.439   0.103  0.00  0.00     0.018 A 
ATOM      9  C   UNL d   1       1.806  -1.251  -0.041  0.00  0.00     0.038 A 
ATOM     10  C   UNL d   1       2.415   1.089   0.013  0.00  0.00     0.001 A 
ATOM     11  C   UNL d   1       2.784  -0.256  -0.050  0.00  0.00     0.003 A 
ENDROOT
BRANCH   1  12
ATOM     12  C   UNL d   1      -3.767   0.032   0.042  0.00  0.00     0.086 C 
BRANCH  12  13
ATOM     13  C   UNL d   1      -4.495   0.101   1.377  0.00  0.00    -0.032 A 
ATOM     14  C   UNL d   1      -5.872   0.395   1.419  0.00  0.00     0.040 A 
ATOM     15 CL   UNL d   1      -6.798   0.634  -0.023  0.00  0.00    -0.084 Cl
ATOM     16  C   UNL d   1      -6.548   0.506   2.639  0.00  0.00     0.024 A 
ATOM     17  C   UNL d   1      -5.867   0.317   3.838  0.00  0.00     0.002 A 
ATOM     18  C   UNL d   1      -4.512   0.008   3.819  0.00  0.00     0.001 A 
ATOM     19  C   UNL d   1      -3.832  -0.096   2.603  0.00  0.00     0.009 A 
ENDBRANCH  12  13
ENDBRANCH   1  12
BRANCH   2  20
ATOM     20  C   UNL d   1      -2.661  -2.770  -0.196  0.00  0.00    -0.002 A 
ATOM     21  C   UNL d   1      -3.035  -3.202  -1.475  0.00  0.00     0.014 A 
ATOM     22  C   UNL d   1      -3.869  -4.311  -1.625  0.00  0.00     0.001 A 
ATOM     23  C   UNL d   1      -4.329  -4.996  -0.501  0.00  0.00     0.000 A 
ATOM     24  C   UNL d   1      -3.955  -4.575   0.774  0.00  0.00     0.001 A 
ATOM     25  C   UNL d   1      -3.122  -3.466   0.928  0.00  0.00     0.014 A 
ENDBRANCH   2  20
TORSDOF 3
