REMARK  4 active torsions:
REMARK  status: ('A' for Active; 'I' for Inactive)
REMARK    1  A    between atoms: C_2  and  S_1 
REMARK    2  A    between atoms: N_5  and  S_1 
REMARK    3  A    between atoms: N_10  and  N_5 
REMARK    4  A    between atoms: C_8  and  N_10 
ROOT
ATOM      1  S   UNL d   1       0.932  -0.184  -0.047  0.00  0.00     0.277 S 
ATOM      2  O   UNL d   1       0.626  -1.502  -0.570  0.00  0.00    -0.199 OA
ATOM      3  O   UNL d   1       0.442   0.217   1.253  0.00  0.00    -0.199 OA
ENDROOT
BRANCH   1   4
ATOM      4  C   UNL d   1       0.474   1.104  -1.237  0.00  0.00     0.094 A 
ATOM      5  C   UNL d   1      -0.402   0.806  -2.321  0.00  0.00    -0.032 A 
ATOM      6  C   UNL d   1      -0.657   1.802  -3.305  0.00  0.00    -0.048 A 
ATOM      7  C   UNL d   1      -1.091  -0.533  -2.467  0.00  0.00     0.050 C 
ATOM      8  C   UNL d   1      -1.479   1.501  -4.546  0.00  0.00     0.049 C 
ATOM      9  C   UNL d   1      -0.172   3.123  -3.127  0.00  0.00    -0.049 A 
ATOM     10  C   UNL d   1       0.649   3.435  -2.015  0.00  0.00    -0.048 A 
ATOM     11  C   UNL d   1      -0.586   4.189  -4.125  0.00  0.00     0.049 C 
ATOM     12  C   UNL d   1       0.977   2.428  -1.059  0.00  0.00    -0.032 A 
ATOM     13  C   UNL d   1       1.153   4.858  -1.864  0.00  0.00     0.049 C 
ATOM     14  C   UNL d   1       1.819   2.842   0.131  0.00  0.00     0.050 C 
ENDBRANCH   1   4
BRANCH   1  15
ATOM     15  N   UNL d   1       2.635  -0.142  -0.025  0.00  0.00    -0.222 N 
ATOM     16  H   UNL d   1       3.120   0.377  -0.761  0.00  0.00     0.200 HD
BRANCH  15  17
ATOM     17  N   UNL d   1       3.352  -1.041   0.869  0.00  0.00    -0.288 N 
ATOM     18  H   UNL d   1       2.763  -1.606   1.490  0.00  0.00     0.188 HD
BRANCH  17  19
ATOM     19  C   UNL d   1       4.740  -1.275   0.972  0.00  0.00     0.092 A 
ATOM     20  C   UNL d   1       5.727  -0.614   0.216  0.00  0.00     0.063 A 
ATOM     21 CL   UNL d   1       5.361   0.578  -0.988  0.00  0.00    -0.082 Cl
ATOM     22  C   UNL d   1       7.092  -0.896   0.404  0.00  0.00     0.026 A 
ATOM     23  C   UNL d   1       7.504  -1.841   1.338  0.00  0.00     0.003 A 
ATOM     24  C   UNL d   1       6.553  -2.520   2.091  0.00  0.00     0.026 A 
ATOM     25  C   UNL d   1       5.192  -2.237   1.906  0.00  0.00     0.063 A 
ATOM     26 CL   UNL d   1       4.062  -3.127   2.877  0.00  0.00    -0.082 Cl
ENDBRANCH  17  19
ENDBRANCH  15  17
ENDBRANCH   1  15
TORSDOF 4
