REMARK  4 active torsions:
REMARK  status: ('A' for Active; 'I' for Inactive)
REMARK    1  A    between atoms: C_2  and  N_1 
REMARK    2  A    between atoms: C_4  and  C_3 
REMARK    3  A    between atoms: O_12  and  C_8 
REMARK    4  A    between atoms: O_13  and  C_9 
ROOT
ATOM      1  C   UNL d   1      -1.948  -0.093   0.011  0.00  0.00    -0.029 A 
ATOM      2  C   UNL d   1      -3.465   2.044  -0.944  0.00  0.00     0.073 A 
ATOM      3  C   UNL d   1      -2.330   1.632  -1.649  0.00  0.00     0.071 A 
ATOM      4  C   UNL d   1      -3.861   1.375   0.215  0.00  0.00     0.071 A 
ATOM      5  C   UNL d   1      -1.581   0.554  -1.176  0.00  0.00     0.048 A 
ATOM      6  C   UNL d   1      -3.084   0.326   0.708  0.00  0.00     0.048 A 
ENDROOT
BRANCH   1   7
ATOM      7  C   UNL d   1      -1.141  -1.215   0.498  0.00  0.00     0.042 C 
ATOM      8  C   UNL d   1      -0.056  -1.058   1.276  0.00  0.00     0.077 C 
ATOM      9  C   UNL d   1       0.501   0.205   1.847  0.00  0.00     0.075 C 
BRANCH   8  10
ATOM     10  N   UNL d   1       0.700  -2.269   1.591  0.00  0.00    -0.120 N 
ATOM     11  O   UNL d   1       0.082  -3.344   1.644  0.00  0.00    -0.532 OA
ATOM     12  O   UNL d   1       1.916  -2.147   1.773  0.00  0.00    -0.532 OA
ENDBRANCH   8  10
ENDBRANCH   1   7
BRANCH   3  13
ATOM     13  O   UNL d   1      -2.065   2.359  -2.778  0.00  0.00    -0.356 OA
ATOM     14  C   UNL d   1      -0.933   1.967  -3.545  0.00  0.00     0.210 C 
ENDBRANCH   3  13
BRANCH   4  15
ATOM     15  O   UNL d   1      -4.974   1.683   0.950  0.00  0.00    -0.356 OA
ATOM     16  C   UNL d   1      -6.059   2.223   0.199  0.00  0.00     0.210 C 
ENDBRANCH   4  15
TORSDOF 4
