REMARK  2 active torsions:
REMARK  status: ('A' for Active; 'I' for Inactive)
REMARK    1  A    between atoms: C_9  and  C_1 
REMARK    2  A    between atoms: C_10  and  C_2 
ROOT
ATOM      1  C   UNL d   1      -0.117  -0.785  -0.761  0.00  0.00     0.190 C 
ATOM      2  C   UNL d   1       0.095   0.803  -0.729  0.00  0.00     0.190 C 
ATOM      3  N   UNL d   1      -1.381  -0.951  -0.086  0.00  0.00    -0.308 N 
ATOM      4  N   UNL d   1       0.918  -1.257   0.126  0.00  0.00    -0.308 N 
ATOM      5  N   UNL d   1      -0.981   1.248   0.124  0.00  0.00    -0.308 N 
ATOM      6  N   UNL d   1       1.330   0.947   0.001  0.00  0.00    -0.308 N 
ATOM      7  C   UNL d   1      -1.793   0.214   0.512  0.00  0.00     0.320 C 
ATOM      8  C   UNL d   1       1.716  -0.236   0.584  0.00  0.00     0.320 C 
ATOM      9  O   UNL d   1      -2.736   0.311   1.273  0.00  0.00    -0.247 OA
ATOM     10  O   UNL d   1       2.618  -0.357   1.389  0.00  0.00    -0.247 OA
ATOM     11  H   UNL d   1      -1.734  -1.832   0.251  0.00  0.00     0.167 HD
ATOM     12  H   UNL d   1       1.004  -2.198   0.478  0.00  0.00     0.167 HD
ATOM     13  H   UNL d   1      -1.090   2.180   0.492  0.00  0.00     0.167 HD
ATOM     14  H   UNL d   1       1.662   1.814   0.392  0.00  0.00     0.167 HD
ENDROOT
BRANCH   1  15
ATOM     15  C   UNL d   1      -0.030  -1.541  -2.080  0.00  0.00    -0.005 A 
ATOM     16  C   UNL d   1       1.165  -1.533  -2.828  0.00  0.00     0.012 A 
ATOM     17  C   UNL d   1       1.295  -2.293  -3.993  0.00  0.00     0.001 A 
ATOM     18  C   UNL d   1       0.234  -3.074  -4.441  0.00  0.00     0.000 A 
ATOM     19  C   UNL d   1      -0.965  -3.079  -3.736  0.00  0.00     0.001 A 
ATOM     20  C   UNL d   1      -1.097  -2.318  -2.571  0.00  0.00     0.012 A 
ENDBRANCH   1  15
BRANCH   2  21
ATOM     21  C   UNL d   1       0.062   1.580  -2.036  0.00  0.00    -0.005 A 
ATOM     22  C   UNL d   1      -1.091   1.557  -2.845  0.00  0.00     0.012 A 
ATOM     23  C   UNL d   1      -1.143   2.255  -4.053  0.00  0.00     0.001 A 
ATOM     24  C   UNL d   1      -0.049   3.006  -4.472  0.00  0.00     0.000 A 
ATOM     25  C   UNL d   1       1.094   3.063  -3.681  0.00  0.00     0.001 A 
ATOM     26  C   UNL d   1       1.150   2.357  -2.476  0.00  0.00     0.012 A 
ENDBRANCH   2  21
TORSDOF 2
