REMARK  4 active torsions:
REMARK  status: ('A' for Active; 'I' for Inactive)
REMARK    1  A    between atoms: C_7  and  S_1 
REMARK    2  A    between atoms: C_14  and  S_1 
REMARK    3  A    between atoms: C_5  and  C_7 
REMARK    4  A    between atoms: C_12  and  C_6 
ROOT
ATOM      1  N   UNL d   1       0.926   0.872  -4.023  0.00  0.00    -0.352 N 
ATOM      2  HN  UNL d   1       0.773   0.049  -4.606  1.00  0.00     0.166 HD
ATOM      3  C   UNL d   1       0.466   1.018  -2.799  0.00  0.00     0.065 A 
ATOM      4  C   UNL d   1       1.647   1.992  -4.413  0.00  0.00     0.049 A 
ATOM      5  S   UNL d   1       0.776   2.558  -2.091  0.00  0.00    -0.085 SA
ATOM      6  C   UNL d   1       1.629   3.028  -3.500  0.00  0.00     0.081 A 
ENDROOT
BRANCH   4   7
ATOM      7  C   UNL d   1       2.287   2.071  -5.722  0.00  0.00    -0.008 A 
ATOM      8  C   UNL d   1       1.772   1.330  -6.792  0.00  0.00     0.022 A 
ATOM      9  C   UNL d   1       2.301   1.411  -8.105  0.00  0.00    -0.042 A 
ATOM     10  C   UNL d   1       1.659   0.571  -9.211  0.00  0.00    -0.020 C 
ATOM     11  C   UNL d   1       3.366   2.301  -8.346  0.00  0.00    -0.043 A 
ATOM     12  C   UNL d   1       2.492   0.563 -10.513  0.00  0.00     0.015 C 
ATOM     13  C   UNL d   1       0.241   1.123  -9.480  0.00  0.00     0.020 C 
ATOM     14  C   UNL d   1       1.538  -0.912  -8.783  0.00  0.00     0.020 C 
ATOM     15  C   UNL d   1       3.097   1.907 -10.871  0.00  0.00     0.015 C 
ATOM     16  C   UNL d   1       3.942   2.547  -9.744  0.00  0.00    -0.020 C 
ATOM     17  C   UNL d   1       5.392   2.015  -9.796  0.00  0.00     0.020 C 
ATOM     18  C   UNL d   1       3.969   4.065 -10.055  0.00  0.00     0.020 C 
ATOM     19  C   UNL d   1       3.925   2.986  -7.244  0.00  0.00     0.009 A 
ATOM     20  C   UNL d   1       3.398   2.875  -5.955  0.00  0.00     0.014 A 
ENDBRANCH   4   7
BRANCH   3  21
ATOM     21  C   UNL d   1      -0.408   0.042  -2.089  0.00  0.00     0.206 C 
BRANCH  21  22
ATOM     22  S   UNL d   1       0.493  -1.479  -1.795  0.00  0.00     0.157 S 
ATOM     23  O   UNL d   1       1.558  -1.193  -0.855  0.00  0.00    -0.227 OA
ATOM     24  O   UNL d   1       0.790  -2.112  -3.072  0.00  0.00    -0.227 OA
BRANCH  22  25
ATOM     25  C   UNL d   1      -0.703  -2.576  -0.944  0.00  0.00     0.053 C 
ATOM     26  C   UNL d   1      -1.942  -2.802  -1.822  0.00  0.00     0.031 C 
ATOM     27  C   UNL d   1      -0.019  -3.932  -0.693  0.00  0.00     0.031 C 
ATOM     28  C   UNL d   1      -1.121  -1.979   0.406  0.00  0.00     0.031 C 
ENDBRANCH  22  25
ENDBRANCH  21  22
ENDBRANCH   3  21
TORSDOF 4
