REMARK  2 active torsions:
REMARK  status: ('A' for Active; 'I' for Inactive)
REMARK    1  A    between atoms: C_3  and  N_1 
REMARK    2  A    between atoms: C_6  and  C_2 
ROOT
ATOM      1  N   UNL d   1      -0.601  -1.227   0.211  0.00  0.00    -0.296 N 
ATOM      2  C   UNL d   1       0.800  -1.393  -0.159  0.00  0.00     0.195 C 
ATOM      3  S   UNL d   1       1.559   0.251  -0.022  0.00  0.00    -0.129 SA
ATOM      4  C   UNL d   1      -1.090   0.082   0.162  0.00  0.00     0.235 C 
ATOM      5  C   UNL d   1      -0.019   1.090  -0.179  0.00  0.00     0.179 C 
ATOM      6  O   UNL d   1      -2.263   0.423   0.303  0.00  0.00    -0.272 OA
ENDROOT
BRANCH   1   7
ATOM      7  C   UNL d   1      -1.475  -2.349   0.379  0.00  0.00     0.077 A 
ATOM      8  C   UNL d   1      -1.283  -3.554  -0.314  0.00  0.00     0.146 A 
ATOM      9  C   UNL d   1      -2.107  -4.657  -0.104  0.00  0.00     0.086 A 
ATOM     10  F   UNL d   1      -0.329  -3.662  -1.249  0.00  0.00    -0.204 F 
ATOM     11  C   UNL d   1      -3.137  -4.561   0.817  0.00  0.00     0.119 A 
ATOM     12  C   UNL d   1      -3.360  -3.384   1.521  0.00  0.00     0.044 A 
ATOM     13  F   UNL d   1      -3.929  -5.618   1.034  0.00  0.00    -0.206 F 
ATOM     14  C   UNL d   1      -2.536  -2.276   1.295  0.00  0.00     0.036 A 
ENDBRANCH   1   7
BRANCH   2  15
ATOM     15  C   UNL d   1       1.530  -2.365   0.737  0.00  0.00     0.015 A 
ATOM     16  S   UNL d   1       2.765  -3.360   0.064  0.00  0.00    -0.103 SA
ATOM     17  C   UNL d   1       3.018  -4.172   1.544  0.00  0.00     0.050 A 
ATOM     18  C   UNL d   1       2.208  -3.688   2.545  0.00  0.00     0.008 A 
ATOM     19  C   UNL d   1       1.368  -2.631   2.087  0.00  0.00     0.018 A 
ENDBRANCH   2  15
TORSDOF 2
