REMARK  6 active torsions:
REMARK  status: ('A' for Active; 'I' for Inactive)
REMARK    1  A    between atoms: C_12  and  N_1 
REMARK    2  A    between atoms: C_8  and  C_2 
REMARK    3  A    between atoms: C_9  and  C_3 
REMARK    4  A    between atoms: C_7  and  C_4 
REMARK    5  A    between atoms: O_17  and  C_8 
REMARK    6  A    between atoms: O_18  and  C_9 
ROOT
ATOM      1  C   UNL d   1      -1.971  -2.809  -0.605  0.00  0.00     0.120 C 
ATOM      2  C   UNL d   1      -0.764  -2.649  -0.015  0.00  0.00     0.041 C 
ATOM      3  C   UNL d   1      -2.333  -3.987  -1.312  0.00  0.00     0.105 C 
ATOM      4  N   UNL d   1      -2.598  -4.973  -1.869  0.00  0.00    -0.191 NA
ENDROOT
BRANCH   1   5
ATOM      5  C   UNL d   1      -2.966  -1.700  -0.535  0.00  0.00     0.303 C 
ATOM      6  O   UNL d   1      -2.772  -0.624   0.010  0.00  0.00    -0.258 OA
BRANCH   5   7
ATOM      7  O   UNL d   1      -4.116  -2.069  -1.159  0.00  0.00    -0.322 OA
ATOM      8  C   UNL d   1      -5.165  -1.096  -1.168  0.00  0.00     0.213 C 
ENDBRANCH   5   7
ENDBRANCH   1   5
BRANCH   2   9
ATOM      9  C   UNL d   1       0.305  -3.609   0.033  0.00  0.00    -0.016 A 
ATOM     10  C   UNL d   1       0.163  -4.976   0.044  0.00  0.00     0.109 A 
ATOM     11  N   UNL d   1       1.405  -5.586   0.032  0.00  0.00    -0.316 N 
ATOM     12  C   UNL d   1       2.370  -4.582   0.045  0.00  0.00     0.116 A 
ATOM     13  C   UNL d   1       1.695  -3.361   0.107  0.00  0.00     0.049 A 
BRANCH  11  14
ATOM     14  C   UNL d   1       1.577  -7.004   0.045  0.00  0.00     0.039 A 
ATOM     15  C   UNL d   1       2.656  -7.593   0.713  0.00  0.00     0.031 A 
ATOM     16  C   UNL d   1       2.821  -8.982   0.695  0.00  0.00     0.026 A 
ATOM     17  C   UNL d   1       1.906  -9.783   0.019  0.00  0.00     0.034 A 
ATOM     18  C   UNL d   1       0.812  -9.211  -0.625  0.00  0.00     0.026 A 
ATOM     19 CL   UNL d   1       2.129 -11.488  -0.021  0.00  0.00    -0.084 Cl
ATOM     20  C   UNL d   1       0.640  -7.823  -0.607  0.00  0.00     0.031 A 
ENDBRANCH  11  14
BRANCH  12  21
ATOM     21  C   UNL d   1       3.793  -4.791  -0.101  0.00  0.00     0.310 C 
ATOM     22  O   UNL d   1       4.328  -5.694  -0.731  0.00  0.00    -0.258 OA
BRANCH  21  23
ATOM     23  O   UNL d   1       4.475  -3.845   0.606  0.00  0.00    -0.321 OA
ATOM     24  C   UNL d   1       5.886  -4.067   0.626  0.00  0.00     0.213 C 
ENDBRANCH  21  23
ENDBRANCH  12  21
ENDBRANCH   2   9
TORSDOF 6
