REMARK  3 active torsions:
REMARK  status: ('A' for Active; 'I' for Inactive)
REMARK    1  A    between atoms: C_4  and  C_1 
REMARK    2  A    between atoms: C_12  and  C_5 
REMARK    3  A    between atoms: C_7  and  C_10 
ROOT
ATOM      1  C   UNL d   1       0.193  -1.134  -0.029  0.00  0.00     0.088 A 
ATOM      2  N   UNL d   1       1.357  -0.555  -0.266  0.00  0.00    -0.349 N 
ATOM      3  HN  UNL d   1       2.201  -1.050  -0.553  1.00  0.00     0.166 HD
ATOM      4  C   UNL d   1       1.279   0.816  -0.074  0.00  0.00     0.050 A 
ATOM      5  S   UNL d   1      -1.040  -0.035   0.484  0.00  0.00    -0.081 SA
ATOM      6  C   UNL d   1       0.022   1.283   0.248  0.00  0.00     0.082 A 
ENDROOT
BRANCH   1   7
ATOM      7  C   UNL d   1      -0.049  -2.597  -0.057  0.00  0.00     0.041 A 
ATOM      8  C   UNL d   1       0.892  -3.486   0.510  0.00  0.00     0.049 A 
ATOM      9  C   UNL d   1       0.675  -4.875   0.524  0.00  0.00     0.041 A 
ATOM     10 CL   UNL d   1       2.363  -2.963   1.268  0.00  0.00    -0.083 Cl
ATOM     11  C   UNL d   1      -0.494  -5.429  -0.007  0.00  0.00     0.051 A 
ATOM     12  C   UNL d   1      -1.423  -4.567  -0.589  0.00  0.00     0.041 A 
ATOM     13  C   UNL d   1      -1.197  -3.179  -0.637  0.00  0.00     0.049 A 
ATOM     14 CL   UNL d   1      -2.396  -2.283  -1.514  0.00  0.00    -0.083 Cl
BRANCH  11  15
ATOM     15  C   UNL d   1      -0.721  -6.921   0.043  0.00  0.00     0.417 C 
ATOM     16  F   UNL d   1      -1.939  -7.298  -0.432  0.00  0.00    -0.166 F 
ATOM     17  F   UNL d   1       0.198  -7.609  -0.686  0.00  0.00    -0.166 F 
ATOM     18  F   UNL d   1      -0.645  -7.414   1.309  0.00  0.00    -0.166 F 
ENDBRANCH  11  15
ENDBRANCH   1   7
BRANCH   4  19
ATOM     19  C   UNL d   1       2.463   1.667  -0.129  0.00  0.00    -0.006 A 
ATOM     20  C   UNL d   1       2.397   2.988  -0.590  0.00  0.00     0.059 A 
ATOM     21  C   UNL d   1       3.537   3.791  -0.557  0.00  0.00     0.155 A 
ATOM     22  F   UNL d   1       3.453   5.057  -0.994  0.00  0.00    -0.203 F 
ATOM     23  C   UNL d   1       4.739   3.297  -0.071  0.00  0.00     0.154 A 
ATOM     24  C   UNL d   1       4.826   1.985   0.380  0.00  0.00     0.046 A 
ATOM     25  F   UNL d   1       5.824   4.085  -0.026  0.00  0.00    -0.203 F 
ATOM     26  C   UNL d   1       3.689   1.171   0.347  0.00  0.00     0.017 A 
ENDBRANCH   4  19
TORSDOF 3
