REMARK  8 active torsions:
REMARK  status: ('A' for Active; 'I' for Inactive)
REMARK    1  A    between atoms: N_9  and  S_1 
REMARK    2  A    between atoms: C_16  and  S_1 
REMARK    3  A    between atoms: N_4  and  C_12 
REMARK    4  A    between atoms: C_15  and  C_5 
REMARK    5  A    between atoms: N_14  and  N_9 
REMARK    6  A    between atoms: C_10  and  C_17 
REMARK    7  A    between atoms: C_11  and  C_21 
REMARK    8  A    between atoms: C_12  and  C_13 
REMARK       I    between atoms: C_13  and  N_14 
ROOT
ATOM      1  C   UNL d   1       0.625   2.048   3.198  0.00  0.00     0.257 C 
ATOM      2  N   UNL d   1       1.123   1.321   2.145  0.00  0.00    -0.259 N 
ATOM      3  O   UNL d   1       0.965   1.789   4.359  0.00  0.00    -0.270 OA
ATOM      4  H   UNL d   1       0.924   1.580   1.170  0.00  0.00     0.190 HD
ENDROOT
BRANCH   1   5
ATOM      5  C   UNL d   1      -0.337   3.187   2.922  0.00  0.00     0.271 C 
BRANCH   5   6
ATOM      6  N   UNL d   1      -0.672   3.480   1.543  0.00  0.00    -0.207 N 
ATOM      7  N   UNL d   1      -0.095   2.878   0.488  0.00  0.00    -0.268 N 
ATOM      8  C   UNL d   1      -0.630   3.578  -0.529  0.00  0.00     0.144 A 
ATOM      9  HN  UNL d   1       0.568   2.103   0.465  1.00  0.00     0.190 HD
ATOM     10  N   UNL d   1      -1.506   4.542  -0.091  0.00  0.00    -0.266 N 
ATOM     11  N   UNL d   1      -1.526   4.473   1.234  0.00  0.00    -0.002 NA
ATOM     12  HN  UNL d   1      -2.039   5.188  -0.674  1.00  0.00     0.186 HD
BRANCH   8  13
ATOM     13  C   UNL d   1      -0.276   3.366  -1.926  0.00  0.00     0.011 A 
ATOM     14  C   UNL d   1      -0.830   4.153  -2.948  0.00  0.00     0.031 A 
ATOM     15  C   UNL d   1      -0.443   3.966  -4.289  0.00  0.00     0.048 A 
ATOM     16  C   UNL d   1       0.502   2.974  -4.596  0.00  0.00     0.016 A 
ATOM     17  C   UNL d   1       1.048   2.181  -3.590  0.00  0.00     0.002 A 
ATOM     18  C   UNL d   1       0.659   2.375  -2.266  0.00  0.00     0.015 A 
BRANCH  15  19
ATOM     19  C   UNL d   1      -1.011   4.814  -5.401  0.00  0.00     0.417 C 
ATOM     20  F   UNL d   1      -1.930   5.727  -4.981  0.00  0.00    -0.166 F 
ATOM     21  F   UNL d   1      -0.049   5.525  -6.053  0.00  0.00    -0.166 F 
ATOM     22  F   UNL d   1      -1.635   4.070  -6.356  0.00  0.00    -0.166 F 
ENDBRANCH  15  19
ENDBRANCH   8  13
ENDBRANCH   5   6
ENDBRANCH   1   5
BRANCH   2  23
ATOM     23  N   UNL d   1       2.148   0.310   2.384  0.00  0.00    -0.220 N 
ATOM     24  H   UNL d   1       2.501   0.221   3.343  0.00  0.00     0.200 HD
BRANCH  23  25
ATOM     25  S   UNL d   1       3.178  -0.068   1.093  0.00  0.00     0.276 S 
ATOM     26  O   UNL d   1       4.027   1.088   0.891  0.00  0.00    -0.199 OA
ATOM     27  O   UNL d   1       2.371  -0.598   0.019  0.00  0.00    -0.199 OA
BRANCH  25  28
ATOM     28  C   UNL d   1       4.178  -1.385   1.740  0.00  0.00     0.081 A 
ATOM     29  C   UNL d   1       3.591  -2.624   2.012  0.00  0.00     0.026 A 
ATOM     30  C   UNL d   1       4.384  -3.677   2.480  0.00  0.00     0.018 A 
ATOM     31  C   UNL d   1       5.766  -3.505   2.670  0.00  0.00     0.048 A 
ATOM     32  C   UNL d   1       6.342  -2.259   2.372  0.00  0.00     0.018 A 
ATOM     33  C   UNL d   1       5.554  -1.201   1.908  0.00  0.00     0.026 A 
BRANCH  31  34
ATOM     34  C   UNL d   1       6.634  -4.630   3.187  0.00  0.00     0.417 C 
ATOM     35  F   UNL d   1       5.952  -5.788   3.408  0.00  0.00    -0.166 F 
ATOM     36  F   UNL d   1       7.644  -4.948   2.330  0.00  0.00    -0.166 F 
ATOM     37  F   UNL d   1       7.232  -4.319   4.370  0.00  0.00    -0.166 F 
ENDBRANCH  31  34
ENDBRANCH  25  28
ENDBRANCH  23  25
ENDBRANCH   2  23
TORSDOF 8
