REMARK  5 active torsions:
REMARK  status: ('A' for Active; 'I' for Inactive)
REMARK    1  A    between atoms: C_2  and  C_1 
REMARK    2  A    between atoms: O_9  and  C_2 
REMARK    3  A    between atoms: N_6  and  C_3 
REMARK    4  A    between atoms: C_8  and  N_6 
REMARK    5  A    between atoms: C_16  and  O_9 
ROOT
ATOM      1  C   UNL d   1       1.074   0.156  -0.044  0.00  0.00     0.135 C 
ATOM      2  C   UNL d   1       0.341  -0.774  -0.683  0.00  0.00     0.117 C 
ATOM      3  C   UNL d   1       0.465   1.228   0.657  0.00  0.00     0.107 C 
ATOM      4  N   UNL d   1      -0.085   2.079   1.227  0.00  0.00    -0.191 NA
ENDROOT
BRANCH   1   5
ATOM      5  C   UNL d   1       2.545  -0.019  -0.004  0.00  0.00     0.305 C 
ATOM      6  O   UNL d   1       3.145  -0.947  -0.527  0.00  0.00    -0.258 OA
BRANCH   5   7
ATOM      7  O   UNL d   1       3.102   0.940   0.778  0.00  0.00    -0.317 OA
BRANCH   7   8
ATOM      8  C   UNL d   1       4.433   0.676   1.247  0.00  0.00     0.174 C 
ATOM      9  C   UNL d   1       4.325  -0.084   2.557  0.00  0.00     0.034 C 
ENDBRANCH   7   8
ENDBRANCH   5   7
ENDBRANCH   1   5
BRANCH   2  10
ATOM     10  N   UNL d   1      -1.031  -0.879  -0.748  0.00  0.00    -0.364 N 
ATOM     11  H   UNL d   1      -1.573  -0.215  -0.199  0.00  0.00     0.165 HD
BRANCH  10  12
ATOM     12  C   UNL d   1      -1.802  -1.827  -1.442  0.00  0.00     0.032 A 
ATOM     13  C   UNL d   1      -3.101  -2.098  -0.978  0.00  0.00     0.032 A 
ATOM     14  C   UNL d   1      -3.903  -3.057  -1.600  0.00  0.00     0.044 A 
ATOM     15  C   UNL d   1      -3.408  -3.754  -2.692  0.00  0.00     0.116 A 
ATOM     16  C   UNL d   1      -2.123  -3.519  -3.162  0.00  0.00     0.044 A 
ATOM     17  F   UNL d   1      -4.177  -4.668  -3.298  0.00  0.00    -0.206 F 
ATOM     18  C   UNL d   1      -1.317  -2.567  -2.528  0.00  0.00     0.032 A 
ENDBRANCH  10  12
ENDBRANCH   2  10
TORSDOF 5
