REMARK  4 active torsions:
REMARK  status: ('A' for Active; 'I' for Inactive)
REMARK    1  A    between atoms: S_10  and  C_5 
REMARK    2  A    between atoms: C_7  and  C_9 
REMARK    3  A    between atoms: N_14  and  C_8 
REMARK    4  A    between atoms: C_9  and  S_10 
ROOT
ATOM      1  C   UNL d   1       0.105   0.640  -0.062  0.00  0.00     0.118 A 
ATOM      2  N   UNL d   1       1.428  -1.159  -0.142  0.00  0.00    -0.302 N 
ATOM      3  N   UNL d   1      -0.703  -0.472  -0.100  0.00  0.00    -0.331 N 
ATOM      4  HN  UNL d   1      -1.722  -0.503  -0.095  1.00  0.00     0.168 HD
ATOM      5  C   UNL d   1       0.116  -1.469  -0.141  0.00  0.00     0.148 A 
ATOM      6  C   UNL d   1       1.532   0.200  -0.095  0.00  0.00     0.275 A 
ATOM      7  C   UNL d   1      -0.291   1.920   0.006  0.00  0.00     0.120 C 
ATOM      8  O   UNL d   1       2.542   0.873  -0.077  0.00  0.00    -0.266 OA
ATOM      9  H   UNL d   1       2.226  -1.766  -0.159  0.00  0.00     0.171 HD
ENDROOT
BRANCH   5  10
ATOM     10  S   UNL d   1      -0.485  -3.075  -0.173  0.00  0.00    -0.089 SA
BRANCH  10  11
ATOM     11  C   UNL d   1       0.937  -4.139  -0.470  0.00  0.00     0.124 C 
BRANCH  11  12
ATOM     12  C   UNL d   1       0.465  -5.537  -0.813  0.00  0.00    -0.005 A 
ATOM     13  C   UNL d   1       0.245  -5.926  -2.150  0.00  0.00     0.042 A 
ATOM     14 CL   UNL d   1       0.574  -4.869  -3.482  0.00  0.00    -0.084 Cl
ATOM     15  C   UNL d   1      -0.267  -7.190  -2.464  0.00  0.00     0.024 A 
ATOM     16  C   UNL d   1      -0.582  -8.092  -1.453  0.00  0.00     0.003 A 
ATOM     17  C   UNL d   1      -0.382  -7.729  -0.125  0.00  0.00     0.024 A 
ATOM     18  C   UNL d   1       0.136  -6.467   0.194  0.00  0.00     0.042 A 
ATOM     19 CL   UNL d   1       0.329  -6.109   1.876  0.00  0.00    -0.084 Cl
ENDBRANCH  11  12
ENDBRANCH  10  11
ENDBRANCH   5  10
BRANCH   7  20
ATOM     20  N   UNL d   1      -1.566   2.490   0.066  0.00  0.00    -0.396 N 
ATOM     21  C   UNL d   1      -2.817   1.727   0.074  0.00  0.00     0.148 C 
ATOM     22  C   UNL d   1      -1.768   3.937   0.058  0.00  0.00     0.148 C 
ENDBRANCH   7  20
TORSDOF 4
