REMARK  9 active torsions:
REMARK  status: ('A' for Active; 'I' for Inactive)
REMARK    1  A    between atoms: N_6  and  C_1 
REMARK    2  A    between atoms: C_7  and  C_2 
REMARK       I    between atoms: C_8  and  N_6 
REMARK    3  A    between atoms: O_14  and  C_7 
REMARK    4  A    between atoms: C_18  and  C_8 
REMARK    5  A    between atoms: C_9  and  C_19 
REMARK    6  A    between atoms: O_15  and  C_9 
REMARK    7  A    between atoms: S_13  and  C_18 
REMARK    8  A    between atoms: C_19  and  S_13 
REMARK    9  A    between atoms: C_20  and  O_14 
ROOT
ATOM      1  C   UNL d   1      -2.175  -0.800  -0.038  0.00  0.00     0.094 A 
ATOM      2  C   UNL d   1      -1.082  -1.671  -0.073  0.00  0.00     0.080 A 
ATOM      3  S   UNL d   1      -1.694   0.830  -0.053  0.00  0.00    -0.075 SA
ATOM      4  C   UNL d   1       0.171  -0.925  -0.055  0.00  0.00    -0.026 A 
ATOM      5  C   UNL d   1      -0.053   0.437  -0.054  0.00  0.00    -0.008 A 
ATOM      6  C   UNL d   1       1.581  -1.465  -0.044  0.00  0.00     0.041 C 
ATOM      7  C   UNL d   1       0.993   1.505  -0.004  0.00  0.00     0.047 C 
ATOM      8  C   UNL d   1       2.604  -0.407   0.400  0.00  0.00     0.005 C 
ATOM      9  C   UNL d   1       2.380   0.930  -0.311  0.00  0.00     0.005 C 
ENDROOT
BRANCH   1  10
ATOM     10  N   UNL d   1      -3.531  -1.127   0.008  0.00  0.00    -0.320 N 
ATOM     11  C   UNL d   1      -4.593  -0.238   0.114  0.00  0.00     0.231 C 
ATOM     12  O   UNL d   1      -4.546   0.992   0.204  0.00  0.00    -0.272 OA
ATOM     13  H   UNL d   1      -3.731  -2.128   0.030  0.00  0.00     0.169 HD
BRANCH  11  14
ATOM     14  C   UNL d   1      -5.958  -0.901   0.189  0.00  0.00     0.177 C 
BRANCH  14  15
ATOM     15  S   UNL d   1      -6.460  -1.146   1.925  0.00  0.00    -0.149 SA
BRANCH  15  16
ATOM     16  C   UNL d   1      -6.372   0.556   2.587  0.00  0.00     0.184 C 
BRANCH  16  17
ATOM     17  C   UNL d   1      -7.328   1.508   1.901  0.00  0.00     0.149 C 
ATOM     18  O   UNL d   1      -8.504   1.634   2.211  0.00  0.00    -0.649 OA
BRANCH  17  19
ATOM     19  O   UNL d   1      -6.776   2.212   0.885  0.00  0.00    -0.776 OA
ATOM     20  H   UNL d   1      -5.828   1.997   0.693  0.00  0.00     0.167 HD
ENDBRANCH  17  19
ENDBRANCH  16  17
ENDBRANCH  15  16
ENDBRANCH  14  15
ENDBRANCH  11  14
ENDBRANCH   1  10
BRANCH   2  21
ATOM     21  C   UNL d   1      -1.233  -3.130  -0.060  0.00  0.00     0.296 C 
ATOM     22  O   UNL d   1      -2.326  -3.683   0.035  0.00  0.00    -0.259 OA
BRANCH  21  23
ATOM     23  O   UNL d   1      -0.042  -3.784  -0.085  0.00  0.00    -0.318 OA
BRANCH  23  24
ATOM     24  C   UNL d   1      -0.021  -5.126   0.427  0.00  0.00     0.174 C 
ATOM     25  C   UNL d   1       0.156  -5.054   1.933  0.00  0.00     0.034 C 
ENDBRANCH  23  24
ENDBRANCH  21  23
ENDBRANCH   2  21
TORSDOF 9
