REMARK  7 active torsions:
REMARK  status: ('A' for Active; 'I' for Inactive)
REMARK    1  A    between atoms: C_2  and  S_1 
REMARK    2  A    between atoms: C_4  and  S_1 
REMARK    3  A    between atoms: C_3  and  C_2 
REMARK    4  A    between atoms: N_17  and  C_3 
REMARK    5  A    between atoms: C_5  and  O_8 
REMARK    6  A    between atoms: C_13  and  C_5 
REMARK    7  A    between atoms: O_8  and  N_6 
ROOT
ATOM      1  C   UNL d   1       0.940  -1.196  -2.305  0.00  0.00     0.110 C 
ATOM      2  N   UNL d   1       1.761  -0.258  -2.663  0.00  0.00    -0.245 N 
ATOM      3  HN  UNL d   1       2.218  -0.231  -3.575  1.00  0.00     0.196 HD
ENDROOT
BRANCH   1   4
ATOM      4  C   UNL d   1       0.666  -2.292  -3.309  0.00  0.00     0.224 C 
BRANCH   4   5
ATOM      5  S   UNL d   1      -0.698  -1.876  -4.356  0.00  0.00     0.197 S 
ATOM      6  O   UNL d   1      -1.829  -1.532  -3.506  0.00  0.00    -0.221 OA
ATOM      7  O   UNL d   1      -0.857  -2.938  -5.338  0.00  0.00    -0.221 OA
BRANCH   5   8
ATOM      8  C   UNL d   1      -0.177  -0.409  -5.212  0.00  0.00     0.128 A 
ATOM      9  N   UNL d   1       0.937  -0.584  -5.968  0.00  0.00    -0.357 N 
ATOM     10  C   UNL d   1       1.412   0.525  -6.571  0.00  0.00     0.089 A 
ATOM     11  HN  UNL d   1       1.385  -1.494  -6.073  1.00  0.00     0.166 HD
ATOM     12  C   UNL d   1       0.824   1.777  -6.455  0.00  0.00     0.017 A 
ATOM     13  C   UNL d   1      -0.327   1.909  -5.680  0.00  0.00     0.004 A 
ATOM     14  C   UNL d   1      -0.849   0.791  -5.040  0.00  0.00     0.042 A 
ENDBRANCH   5   8
ENDBRANCH   4   5
ENDBRANCH   1   4
BRANCH   1  15
ATOM     15  N   UNL d   1       0.343  -1.269  -1.073  0.00  0.00    -0.387 N 
ATOM     16  H   UNL d   1      -0.044  -2.151  -0.754  0.00  0.00     0.157 HD
ATOM     17  H   UNL d   1       0.749  -0.691  -0.348  0.00  0.00     0.157 HD
ENDBRANCH   1  15
BRANCH   2  18
ATOM     18  O   UNL d   1       1.961   0.726  -1.663  0.00  0.00    -0.193 OA
BRANCH  18  19
ATOM     19  C   UNL d   1       2.864   1.645  -2.136  0.00  0.00     0.315 C 
ATOM     20  O   UNL d   1       3.449   1.614  -3.211  0.00  0.00    -0.257 OA
BRANCH  19  21
ATOM     21  C   UNL d   1       3.086   2.769  -1.175  0.00  0.00     0.041 A 
ATOM     22  C   UNL d   1       3.983   3.779  -1.570  0.00  0.00     0.019 A 
ATOM     23  C   UNL d   1       4.235   4.881  -0.749  0.00  0.00     0.025 A 
ATOM     24  C   UNL d   1       3.592   4.981   0.480  0.00  0.00     0.034 A 
ATOM     25  C   UNL d   1       2.706   3.984   0.894  0.00  0.00     0.025 A 
ATOM     26 CL   UNL d   1       3.888   6.344   1.488  0.00  0.00    -0.084 Cl
ATOM     27  C   UNL d   1       2.452   2.877   0.070  0.00  0.00     0.019 A 
ENDBRANCH  19  21
ENDBRANCH  18  19
ENDBRANCH   2  18
TORSDOF 7
