REMARK  4 active torsions:
REMARK  status: ('A' for Active; 'I' for Inactive)
REMARK    1  A    between atoms: C_6  and  C_4 
REMARK    2  A    between atoms: C_5  and  C_10 
REMARK    3  A    between atoms: C_7  and  C_6 
REMARK       I    between atoms: N_11  and  C_7 
REMARK    4  A    between atoms: C_19  and  N_11 
ROOT
ATOM      1  C   UNL d   1       2.635   0.484   2.787  0.00  0.00     0.223 C 
ATOM      2  N   UNL d   1       3.881  -0.061   2.545  0.00  0.00    -0.327 N 
ATOM      3  O   UNL d   1       2.406   1.479   3.465  0.00  0.00    -0.273 OA
ATOM      4  H   UNL d   1       3.947  -0.780   1.839  0.00  0.00     0.169 HD
ENDROOT
BRANCH   1   5
ATOM      5  C   UNL d   1       1.486  -0.321   2.188  0.00  0.00     0.128 C 
BRANCH   5   6
ATOM      6  C   UNL d   1       1.284  -0.283   0.671  0.00  0.00     0.153 C 
ATOM      7  C   UNL d   1       2.295  -1.142  -0.070  0.00  0.00     0.236 C 
ATOM      8  N   UNL d   1       3.385  -0.577  -0.663  0.00  0.00    -0.325 N 
ATOM      9  O   UNL d   1       2.237  -2.374  -0.020  0.00  0.00    -0.272 OA
ATOM     10  C   UNL d   1       3.701   0.787  -0.687  0.00  0.00     0.051 A 
ATOM     11  H   UNL d   1       4.040  -1.241  -1.060  0.00  0.00     0.169 HD
ATOM     12  C   UNL d   1       2.768   1.774  -0.350  0.00  0.00     0.028 A 
ATOM     13  C   UNL d   1       5.012   1.143  -1.015  0.00  0.00     0.031 A 
ATOM     14  S   UNL d   1       1.071   1.381  -0.013  0.00  0.00    -0.113 SA
ATOM     15  C   UNL d   1       3.167   3.112  -0.311  0.00  0.00     0.021 A 
ATOM     16  C   UNL d   1       4.492   3.459  -0.576  0.00  0.00     0.002 A 
ATOM     17  C   UNL d   1       5.412   2.476  -0.932  0.00  0.00     0.002 A 
ENDBRANCH   5   6
ENDBRANCH   1   5
BRANCH   2  18
ATOM     18  C   UNL d   1       5.094   0.263   3.188  0.00  0.00     0.034 A 
ATOM     19  C   UNL d   1       5.191   1.051   4.335  0.00  0.00     0.030 A 
ATOM     20  C   UNL d   1       6.421   1.208   4.993  0.00  0.00     0.018 A 
ATOM     21  C   UNL d   1       7.580   0.590   4.503  0.00  0.00     0.048 A 
ATOM     22  C   UNL d   1       7.489  -0.158   3.322  0.00  0.00     0.018 A 
ATOM     23  C   UNL d   1       6.260  -0.324   2.676  0.00  0.00     0.030 A 
BRANCH  21  24
ATOM     24  C   UNL d   1       8.896   0.678   5.237  0.00  0.00     0.417 C 
ATOM     25  F   UNL d   1       8.869   1.499   6.323  0.00  0.00    -0.166 F 
ATOM     26  F   UNL d   1       9.307  -0.537   5.699  0.00  0.00    -0.166 F 
ATOM     27  F   UNL d   1       9.907   1.134   4.447  0.00  0.00    -0.166 F 
ENDBRANCH  21  24
ENDBRANCH   2  18
TORSDOF 4
