REMARK  3 active torsions:
REMARK  status: ('A' for Active; 'I' for Inactive)
REMARK    1  A    between atoms: N_19  and  C_11 
REMARK    2  A    between atoms: C_24  and  N_19 
REMARK    3  A    between atoms: C_22  and  C_24 
ROOT
ATOM      1  C   UNL d   1       0.030  -0.752  -0.063  0.00  0.00     0.135 C 
ATOM      2  C   UNL d   1       0.001   0.607   0.013  0.00  0.00     0.128 C 
ATOM      3  N   UNL d   1       1.276  -1.398  -0.003  0.00  0.00    -0.288 N 
ATOM      4  N   UNL d   1       2.439   0.655  -0.017  0.00  0.00    -0.270 N 
ATOM      5  N   UNL d   1      -1.183  -1.472  -0.165  0.00  0.00    -0.303 N 
ATOM      6  C   UNL d   1       2.496  -0.716  -0.065  0.00  0.00     0.332 C 
ATOM      7  C   UNL d   1       1.270   1.371   0.103  0.00  0.00     0.269 C 
ATOM      8  C   UNL d   1      -2.451   0.533  -0.355  0.00  0.00     0.093 C 
ATOM      9  C   UNL d   1      -2.432  -0.881   0.001  0.00  0.00     0.264 C 
ATOM     10  C   UNL d   1      -1.284   1.366  -0.059  0.00  0.00     0.208 C 
ATOM     11  C   UNL d   1      -3.442   0.995  -1.133  0.00  0.00     0.078 C 
ATOM     12  O   UNL d   1       3.571  -1.318  -0.137  0.00  0.00    -0.246 OA
ATOM     13  O   UNL d   1       1.280   2.591   0.259  0.00  0.00    -0.267 OA
ATOM     14  O   UNL d   1      -3.457  -1.499   0.270  0.00  0.00    -0.267 OA
ATOM     15  O   UNL d   1      -1.390   2.577   0.054  0.00  0.00    -0.286 OA
ATOM     16  C   UNL d   1       1.438  -2.834   0.181  0.00  0.00     0.163 C 
ATOM     17  C   UNL d   1       3.681   1.411   0.010  0.00  0.00     0.164 C 
ATOM     18  C   UNL d   1      -1.321  -2.850  -0.595  0.00  0.00     0.161 C 
ENDROOT
BRANCH  11  19
ATOM     19  N   UNL d   1      -4.435   0.259  -1.772  0.00  0.00    -0.297 NA
ATOM     20  H   UNL d   1      -4.122  -0.705  -1.916  0.00  0.00     0.127 HD
BRANCH  19  21
ATOM     21  C   UNL d   1      -5.768   0.141  -1.171  0.00  0.00     0.131 C 
BRANCH  21  22
ATOM     22  C   UNL d   1      -6.797   0.488  -2.199  0.00  0.00    -0.030 A 
ATOM     23  C   UNL d   1      -7.770  -0.425  -2.591  0.00  0.00     0.096 A 
ATOM     24  N   UNL d   1      -8.728  -0.160  -3.508  0.00  0.00    -0.375 N 
ATOM     25  C   UNL d   1      -8.708   1.070  -4.064  0.00  0.00     0.087 A 
ATOM     26  HN  UNL d   1      -9.430  -0.854  -3.767  1.00  0.00     0.164 HD
ATOM     27  C   UNL d   1      -7.785   2.052  -3.749  0.00  0.00     0.018 A 
ATOM     28  C   UNL d   1      -6.816   1.750  -2.798  0.00  0.00     0.011 A 
ENDBRANCH  21  22
ENDBRANCH  19  21
ENDBRANCH  11  19
TORSDOF 3
