REMARK  4 active torsions:
REMARK  status: ('A' for Active; 'I' for Inactive)
REMARK    1  A    between atoms: N_9  and  C_3 
REMARK    2  A    between atoms: O_10  and  C_4 
REMARK    3  A    between atoms: C_12  and  C_8 
REMARK    4  A    between atoms: O_11  and  C_12 
ROOT
ATOM      1  N   UNL d   1      -0.669   1.235   0.088  0.00  0.00    -0.314 N 
ATOM      2  HN  UNL d   1      -1.179   2.119   0.094  1.00  0.00     0.170 HD
ATOM      3  C   UNL d   1      -1.284   0.053   0.134  0.00  0.00     0.157 A 
ATOM      4  C   UNL d   1       0.663   1.176   0.032  0.00  0.00     0.143 A 
ATOM      5  N   UNL d   1      -0.671  -1.135   0.075  0.00  0.00    -0.334 N 
ATOM      6  HN  UNL d   1      -1.202  -2.006   0.068  1.00  0.00     0.168 HD
ATOM      7  C   UNL d   1       1.411   0.033   0.003  0.00  0.00     0.083 A 
ATOM      8  C   UNL d   1       0.683  -1.134   0.026  0.00  0.00     0.039 A 
ENDROOT
BRANCH   3   9
ATOM      9  N   UNL d   1      -2.661   0.051   0.195  0.00  0.00    -0.274 NA
ATOM     10  H   UNL d   1      -3.031   0.907  -0.190  0.00  0.00     0.127 HD
ATOM     11  H   UNL d   1      -3.020  -0.821  -0.168  0.00  0.00     0.127 HD
ENDBRANCH   3   9
BRANCH   4  12
ATOM     12  O   UNL d   1       1.272   2.390  -0.007  0.00  0.00    -0.346 OA
ATOM     13  H   UNL d   1       0.496   2.976   0.048  0.00  0.00     0.219 HD
ENDBRANCH   4  12
BRANCH   8  14
ATOM     14  C   UNL d   1       1.382  -2.470  -0.029  0.00  0.00     0.224 C 
BRANCH  14  15
ATOM     15  O   UNL d   1       2.281  -2.596   1.075  0.00  0.00    -0.390 OA
ATOM     16  C   UNL d   1       2.928  -3.861   1.076  0.00  0.00     0.201 C 
ENDBRANCH  14  15
ENDBRANCH   8  14
TORSDOF 4
