REMARK  7 active torsions:
REMARK  status: ('A' for Active; 'I' for Inactive)
REMARK    1  A    between atoms: N_8  and  C_1 
REMARK    2  A    between atoms: C_12  and  N_2 
REMARK    3  A    between atoms: C_6  and  C_5 
REMARK       I    between atoms: C_14  and  N_8 
REMARK    4  A    between atoms: C_27  and  C_10 
REMARK       I    between atoms: N_19  and  C_14 
REMARK    5  A    between atoms: C_15  and  C_17 
REMARK    6  A    between atoms: C_16  and  C_18 
REMARK    7  A    between atoms: C_25  and  N_19 
ROOT
ATOM      1  N   UNL d   1       0.742   3.124  -5.071  0.00  0.00    -0.191 NA
ATOM      2  C   UNL d   1      -0.284   3.608  -4.823  0.00  0.00     0.102 C 
ATOM      3  C   UNL d   1      -2.215   3.773  -3.283  0.00  0.00     0.057 A 
ATOM      4  C   UNL d   1      -1.547   4.175  -4.456  0.00  0.00     0.071 A 
ATOM      5  C   UNL d   1      -2.072   5.213  -5.246  0.00  0.00     0.025 A 
ATOM      6  C   UNL d   1      -3.429   4.394  -2.958  0.00  0.00     0.031 A 
ATOM      7  C   UNL d   1      -3.268   5.835  -4.891  0.00  0.00     0.002 A 
ATOM      8  C   UNL d   1      -3.951   5.417  -3.753  0.00  0.00     0.002 A 
ENDROOT
BRANCH   3   9
ATOM      9  N   UNL d   1      -1.645   2.796  -2.410  0.00  0.00    -0.307 N 
ATOM     10  C   UNL d   1      -1.607   3.005  -1.048  0.00  0.00     0.326 C 
ATOM     11  N   UNL d   1      -0.645   2.310  -0.376  0.00  0.00    -0.293 N 
ATOM     12  O   UNL d   1      -2.184   3.909  -0.447  0.00  0.00    -0.247 OA
ATOM     13  H   UNL d   1      -0.350   2.781   0.475  0.00  0.00     0.172 HD
ATOM     14  H   UNL d   1      -0.845   2.279  -2.754  0.00  0.00     0.170 HD
BRANCH  11  15
ATOM     15  C   UNL d   1      -0.159   1.033  -0.585  0.00  0.00     0.133 C 
ATOM     16  N   UNL d   1       1.146   0.688  -0.253  0.00  0.00    -0.239 N 
ATOM     17  N   UNL d   1       1.289  -0.632  -0.095  0.00  0.00    -0.291 N 
ATOM     18  C   UNL d   1       0.115  -1.157  -0.442  0.00  0.00     0.065 C 
ATOM     19  HN  UNL d   1       2.121  -1.130   0.223  1.00  0.00     0.187 HD
ATOM     20  C   UNL d   1      -0.810  -0.160  -0.853  0.00  0.00     0.082 C 
BRANCH  16  21
ATOM     21  C   UNL d   1       2.283   1.524  -0.093  0.00  0.00     0.060 A 
ATOM     22  C   UNL d   1       3.360   1.040   0.664  0.00  0.00     0.047 A 
ATOM     23  C   UNL d   1       4.519   1.803   0.827  0.00  0.00     0.051 A 
ATOM     24  C   UNL d   1       4.600   3.050   0.187  0.00  0.00     0.032 A 
ATOM     25  C   UNL d   1       3.541   3.537  -0.602  0.00  0.00     0.051 A 
ATOM     26  C   UNL d   1       2.372   2.772  -0.722  0.00  0.00     0.047 A 
BRANCH  23  27
ATOM     27  C   UNL d   1       5.662   1.287   1.669  0.00  0.00     0.417 C 
ATOM     28  F   UNL d   1       5.430   0.065   2.220  0.00  0.00    -0.166 F 
ATOM     29  F   UNL d   1       6.816   1.164   0.956  0.00  0.00    -0.166 F 
ATOM     30  F   UNL d   1       5.949   2.117   2.709  0.00  0.00    -0.166 F 
ENDBRANCH  23  27
BRANCH  25  31
ATOM     31  C   UNL d   1       3.685   4.854  -1.332  0.00  0.00     0.417 C 
ATOM     32  F   UNL d   1       2.600   5.176  -2.090  0.00  0.00    -0.166 F 
ATOM     33  F   UNL d   1       3.870   5.897  -0.479  0.00  0.00    -0.166 F 
ATOM     34  F   UNL d   1       4.752   4.863  -2.176  0.00  0.00    -0.166 F 
ENDBRANCH  25  31
ENDBRANCH  16  21
BRANCH  18  35
ATOM     35  C   UNL d   1      -0.111  -2.574  -0.186  0.00  0.00     0.024 A 
ATOM     36  C   UNL d   1      -1.228  -3.122   0.496  0.00  0.00     0.049 A 
ATOM     37  C   UNL d   1      -0.898  -4.431   0.800  0.00  0.00     0.061 A 
ATOM     38  O   UNL d   1       0.312  -4.738   0.247  0.00  0.00    -0.318 OA
ATOM     39  C   UNL d   1       0.802  -3.603  -0.324  0.00  0.00     0.062 A 
ATOM     40  C   UNL d   1       2.172  -3.714  -0.873  0.00  0.00     0.077 C 
BRANCH  37  41
ATOM     41  C   UNL d   1      -1.528  -5.519   1.635  0.00  0.00    -0.002 C 
ATOM     42  C   UNL d   1      -2.878  -5.060   2.210  0.00  0.00     0.021 C 
ATOM     43  C   UNL d   1      -1.751  -6.772   0.772  0.00  0.00     0.021 C 
ATOM     44  C   UNL d   1      -0.597  -5.875   2.812  0.00  0.00     0.021 C 
ENDBRANCH  37  41
ENDBRANCH  18  35
ENDBRANCH  11  15
ENDBRANCH   3   9
TORSDOF 7
