REMARK  3 active torsions:
REMARK  status: ('A' for Active; 'I' for Inactive)
REMARK    1  A    between atoms: C_12  and  N_1 
REMARK    2  A    between atoms: C_11  and  O_15 
REMARK    3  A    between atoms: O_15  and  C_21 
ROOT
ATOM      1  N   UNL d   1      -2.309   0.168   0.208  0.00  0.00    -0.252 N 
ATOM      2  C   UNL d   1      -1.540   1.212   0.703  0.00  0.00     0.236 A 
ATOM      3  C   UNL d   1      -1.560  -0.974   0.022  0.00  0.00     0.236 A 
ATOM      4  C   UNL d   1      -0.108   0.755   0.870  0.00  0.00     0.100 A 
ATOM      5  C   UNL d   1      -0.125  -0.690   0.363  0.00  0.00     0.100 A 
ATOM      6  C   UNL d   1       0.869   1.471  -0.107  0.00  0.00     0.028 C 
ATOM      7  C   UNL d   1       0.751  -0.623  -0.896  0.00  0.00     0.023 C 
ATOM      8  C   UNL d   1       2.264   0.864  -0.030  0.00  0.00    -0.082 C 
ATOM      9  C   UNL d   1       2.175  -0.412  -0.447  0.00  0.00    -0.018 C 
ATOM     10  C   UNL d   1       0.488   0.802  -1.431  0.00  0.00     0.019 C 
ATOM     11  O   UNL d   1      -1.883   2.355   0.977  0.00  0.00    -0.272 OA
ATOM     12  O   UNL d   1      -1.899  -2.064  -0.424  0.00  0.00    -0.272 OA
ATOM     13  C   UNL d   1       3.523   1.653   0.011  0.00  0.00     0.043 C 
ENDROOT
BRANCH   1  14
ATOM     14  C   UNL d   1      -3.696   0.276  -0.165  0.00  0.00     0.045 A 
ATOM     15  C   UNL d   1      -4.324   1.512  -0.382  0.00  0.00     0.033 A 
ATOM     16  C   UNL d   1      -5.660   1.606  -0.825  0.00  0.00     0.039 A 
ATOM     17  C   UNL d   1      -6.397   0.456  -1.077  0.00  0.00     0.078 A 
ATOM     18  C   UNL d   1      -5.812  -0.776  -0.809  0.00  0.00     0.039 A 
ATOM     19  C   UNL d   1      -4.483  -0.868  -0.367  0.00  0.00     0.033 A 
BRANCH  17  20
ATOM     20  O   UNL d   1      -7.667   0.378  -1.558  0.00  0.00    -0.255 OA
BRANCH  20  21
ATOM     21  C   UNL d   1      -8.212   1.470  -2.281  0.00  0.00     0.530 C 
ATOM     22  F   UNL d   1      -7.277   2.223  -2.899  0.00  0.00    -0.144 F 
ATOM     23  F   UNL d   1      -9.038   0.980  -3.233  0.00  0.00    -0.144 F 
ATOM     24  F   UNL d   1      -8.939   2.252  -1.455  0.00  0.00    -0.144 F 
ENDBRANCH  20  21
ENDBRANCH  17  20
ENDBRANCH   1  14
TORSDOF 3
