REMARK  5 active torsions:
REMARK  status: ('A' for Active; 'I' for Inactive)
REMARK    1  A    between atoms: C_6  and  C_1 
REMARK    2  A    between atoms: C_2  and  C_8 
REMARK       I    between atoms: C_3  and  N_5 
REMARK       I    between atoms: N_7  and  C_3 
REMARK    3  A    between atoms: N_5  and  C_4 
REMARK    4  A    between atoms: O_17  and  C_6 
REMARK    5  A    between atoms: C_16  and  N_7 
ROOT
ATOM      1  C   UNL d   1       3.011  -2.300  -0.778  0.00  0.00     0.325 C 
ATOM      2  N   UNL d   1       1.652  -2.245  -0.880  0.00  0.00    -0.308 N 
ATOM      3  N   UNL d   1       3.696  -1.177  -0.448  0.00  0.00    -0.309 N 
ATOM      4  O   UNL d   1       3.701  -3.284  -1.048  0.00  0.00    -0.247 OA
ATOM      5  H   UNL d   1       1.278  -1.325  -1.102  0.00  0.00     0.170 HD
ATOM      6  H   UNL d   1       4.683  -1.348  -0.620  0.00  0.00     0.170 HD
ENDROOT
BRANCH   2   7
ATOM      7  C   UNL d   1       0.853  -3.352  -1.307  0.00  0.00     0.053 A 
ATOM      8  C   UNL d   1      -0.340  -3.154  -2.036  0.00  0.00     0.064 A 
ATOM      9  C   UNL d   1      -1.031  -4.263  -2.561  0.00  0.00     0.020 A 
ATOM     10  C   UNL d   1      -0.577  -5.561  -2.332  0.00  0.00     0.001 A 
ATOM     11  C   UNL d   1       0.552  -5.764  -1.549  0.00  0.00     0.002 A 
ATOM     12  C   UNL d   1       1.253  -4.671  -1.035  0.00  0.00     0.030 A 
BRANCH   8  13
ATOM     13  C   UNL d   1      -0.854  -1.783  -2.285  0.00  0.00     0.178 C 
ATOM     14  O   UNL d   1      -0.324  -0.750  -1.914  0.00  0.00    -0.646 OA
BRANCH  13  15
ATOM     15  O   UNL d   1      -2.017  -1.763  -2.961  0.00  0.00    -0.773 OA
ATOM     16  H   UNL d   1      -2.247  -0.814  -3.035  0.00  0.00     0.167 HD
ENDBRANCH  13  15
ENDBRANCH   8  13
ENDBRANCH   2   7
BRANCH   3  17
ATOM     17  C   UNL d   1       3.399   0.052   0.153  0.00  0.00     0.036 A 
ATOM     18  C   UNL d   1       2.195   0.388   0.766  0.00  0.00     0.030 A 
ATOM     19  C   UNL d   1       2.067   1.618   1.435  0.00  0.00     0.018 A 
ATOM     20  C   UNL d   1       3.139   2.525   1.502  0.00  0.00     0.048 A 
ATOM     21  C   UNL d   1       4.336   2.190   0.864  0.00  0.00     0.018 A 
ATOM     22  C   UNL d   1       4.462   0.967   0.203  0.00  0.00     0.030 A 
BRANCH  20  23
ATOM     23  C   UNL d   1       3.046   3.823   2.266  0.00  0.00     0.417 C 
ATOM     24  F   UNL d   1       1.825   4.047   2.825  0.00  0.00    -0.166 F 
ATOM     25  F   UNL d   1       3.942   3.883   3.292  0.00  0.00    -0.166 F 
ATOM     26  F   UNL d   1       3.306   4.909   1.486  0.00  0.00    -0.166 F 
ENDBRANCH  20  23
ENDBRANCH   3  17
TORSDOF 5
