REMARK  2 active torsions:
REMARK  status: ('A' for Active; 'I' for Inactive)
REMARK    1  A    between atoms: C_3  and  N_1 
REMARK    2  A    between atoms: N_2  and  C_5 
ROOT
ATOM      1  C   UNL d   1       0.239  -0.724   0.814  0.00  0.00     0.103 A 
ATOM      2  C   UNL d   1      -1.262  -2.221   2.661  0.00  0.00     0.038 A 
ATOM      3  C   UNL d   1       0.662  -0.816   2.143  0.00  0.00     0.038 A 
ATOM      4  C   UNL d   1      -0.926  -1.377   0.398  0.00  0.00     0.038 A 
ATOM      5  C   UNL d   1      -0.088  -1.562   3.062  0.00  0.00     0.032 A 
ATOM      6  C   UNL d   1      -1.671  -2.122   1.320  0.00  0.00     0.032 A 
ENDROOT
BRANCH   2   7
ATOM      7  N   UNL d   1      -2.028  -2.983   3.602  0.00  0.00    -0.333 N 
ATOM      8  C   UNL d   1      -3.180  -3.704   3.339  0.00  0.00     0.096 A 
ATOM      9  C   UNL d   1      -3.616  -4.314   4.496  0.00  0.00     0.019 A 
ATOM     10  C   UNL d   1      -2.717  -3.957   5.517  0.00  0.00     0.019 A 
ATOM     11  C   UNL d   1      -1.760  -3.143   4.950  0.00  0.00     0.096 A 
ENDBRANCH   2   7
BRANCH   1  12
ATOM     12  N   UNL d   1       1.019   0.062  -0.149  0.00  0.00    -0.116 N 
ATOM     13  O   UNL d   1       2.036   0.636   0.265  0.00  0.00    -0.532 OA
ATOM     14  O   UNL d   1       0.614   0.106  -1.320  0.00  0.00    -0.532 OA
ENDBRANCH   1  12
TORSDOF 2
