REMARK  7 active torsions:
REMARK  status: ('A' for Active; 'I' for Inactive)
REMARK    1  A    between atoms: C_8  and  N_1 
REMARK    2  A    between atoms: C_10  and  C_2 
REMARK    3  A    between atoms: S_9  and  C_5 
REMARK    4  A    between atoms: C_11  and  C_8 
REMARK    5  A    between atoms: C_22  and  S_9 
REMARK    6  A    between atoms: C_13  and  C_14 
REMARK    7  A    between atoms: C_23  and  C_22 
ROOT
ATOM      1  N   UNL d   1      -0.284  -1.183  -0.046  0.00  0.00    -0.305 N 
ATOM      2  C   UNL d   1       0.947  -0.538  -0.084  0.00  0.00     0.135 A 
ATOM      3  N   UNL d   1       0.716   0.765  -0.005  0.00  0.00    -0.283 N 
ATOM      4  HN  UNL d   1       1.432   1.489   0.056  1.00  0.00     0.188 HD
ATOM      5  C   UNL d   1      -1.226  -0.180  -0.075  0.00  0.00     0.163 A 
ATOM      6  N   UNL d   1      -0.635   0.986  -0.018  0.00  0.00    -0.278 N 
ATOM      7  HN  UNL d   1      -1.097   1.895   0.011  1.00  0.00     0.189 HD
ENDROOT
BRANCH   2   8
ATOM      8  C   UNL d   1       2.297  -1.125  -0.130  0.00  0.00     0.009 A 
ATOM      9  C   UNL d   1       2.618  -2.282  -0.840  0.00  0.00     0.016 A 
ATOM     10  C   UNL d   1       3.913  -2.824  -0.803  0.00  0.00     0.009 A 
ATOM     11  C   UNL d   1       4.947  -2.223  -0.065  0.00  0.00    -0.051 A 
ATOM     12  C   UNL d   1       4.643  -1.002   0.556  0.00  0.00     0.009 A 
ATOM     13  C   UNL d   1       3.345  -0.469   0.530  0.00  0.00     0.016 A 
BRANCH  11  14
ATOM     14  C   UNL d   1       6.343  -2.868   0.047  0.00  0.00    -0.024 C 
ATOM     15  C   UNL d   1       7.042  -2.515   1.382  0.00  0.00     0.019 C 
ATOM     16  C   UNL d   1       6.273  -4.413  -0.004  0.00  0.00     0.019 C 
ATOM     17  C   UNL d   1       7.231  -2.381  -1.112  0.00  0.00     0.019 C 
ENDBRANCH  11  14
ENDBRANCH   2   8
BRANCH   1  18
ATOM     18  C   UNL d   1      -0.552  -2.611  -0.034  0.00  0.00     0.198 C 
BRANCH  18  19
ATOM     19  C   UNL d   1       0.081  -3.336   1.099  0.00  0.00     0.070 A 
ATOM     20  O   UNL d   1       0.449  -4.624   0.827  0.00  0.00    -0.325 OA
ATOM     21  C   UNL d   1       0.980  -5.137   1.967  0.00  0.00     0.142 A 
ATOM     22  C   UNL d   1       0.956  -4.201   2.971  0.00  0.00     0.027 A 
ATOM     23  C   UNL d   1       0.370  -3.035   2.413  0.00  0.00     0.036 A 
ENDBRANCH  18  19
ENDBRANCH   1  18
BRANCH   5  24
ATOM     24  S   UNL d   1      -2.938  -0.431  -0.188  0.00  0.00    -0.088 SA
BRANCH  24  25
ATOM     25  C   UNL d   1      -3.489   1.209  -0.755  0.00  0.00     0.121 C 
BRANCH  25  26
ATOM     26  C   UNL d   1      -4.992   1.282  -0.915  0.00  0.00    -0.049 A 
ATOM     27  C   UNL d   1      -5.801   1.696   0.152  0.00  0.00     0.008 A 
ATOM     28  C   UNL d   1      -7.189   1.785   0.004  0.00  0.00     0.007 A 
ATOM     29  C   UNL d   1      -7.799   1.458  -1.212  0.00  0.00    -0.062 A 
ATOM     30  C   UNL d   1      -6.997   1.035  -2.276  0.00  0.00     0.007 A 
ATOM     31  C   UNL d   1      -9.289   1.565  -1.355  0.00  0.00     0.048 C 
ATOM     32  C   UNL d   1      -5.607   0.945  -2.130  0.00  0.00     0.008 A 
ENDBRANCH  25  26
ENDBRANCH  24  25
ENDBRANCH   5  24
TORSDOF 7
