REMARK  2 active torsions:
REMARK  status: ('A' for Active; 'I' for Inactive)
REMARK    1  A    between atoms: C_7  and  C_1 
REMARK    2  A    between atoms: C_8  and  C_7 
ROOT
ATOM      1  C   UNL d   1       0.031  -1.006   0.136  0.00  0.00     0.130 A 
ATOM      2  N   UNL d   1      -0.932   1.156   0.085  0.00  0.00    -0.306 N 
ATOM      3  HN  UNL d   1      -1.605   1.922   0.076  1.00  0.00     0.186 HD
ATOM      4  N   UNL d   1       0.429   1.257   0.102  0.00  0.00    -0.270 N 
ATOM      5  C   UNL d   1       1.108   0.051   0.062  0.00  0.00     0.246 A 
ATOM      6  C   UNL d   1      -1.194  -0.117   0.084  0.00  0.00     0.013 A 
ATOM      7  O   UNL d   1       2.311  -0.106  -0.033  0.00  0.00    -0.271 OA
ATOM      8  C   UNL d   1      -2.580  -0.663   0.012  0.00  0.00     0.066 C 
ATOM      9  H   UNL d   1       0.887   2.160   0.041  0.00  0.00     0.190 HD
ENDROOT
BRANCH   1  10
ATOM     10  C   UNL d   1       0.068  -1.801   1.441  0.00  0.00     0.053 C 
BRANCH  10  11
ATOM     11  C   UNL d   1       1.327  -2.608   1.667  0.00  0.00    -0.092 C 
ATOM     12  C   UNL d   1       2.130  -2.377   2.720  0.00  0.00     0.014 C 
ATOM     13  C   UNL d   1       1.669  -3.689   0.682  0.00  0.00     0.042 C 
ENDBRANCH  10  11
ENDBRANCH   1  10
TORSDOF 2
