REMARK  6 active torsions:
REMARK  status: ('A' for Active; 'I' for Inactive)
REMARK    1  A    between atoms: C_7  and  C_1 
REMARK    2  A    between atoms: O_17  and  C_8 
REMARK    3  A    between atoms: O_18  and  C_9 
REMARK    4  A    between atoms: O_19  and  C_10 
REMARK    5  A    between atoms: C_14  and  C_13 
REMARK    6  A    between atoms: C_20  and  C_16 
ROOT
ATOM      1  C   UNL d   1       1.181   1.192  -0.105  0.00  0.00     0.162 A 
ATOM      2  N   UNL d   1       0.259   0.878   0.752  0.00  0.00    -0.331 N 
ATOM      3  HN  UNL d   1       0.002   1.359   1.614  1.00  0.00     0.168 HD
ATOM      4  O   UNL d   1       1.329   0.398  -1.186  0.00  0.00    -0.255 OA
ATOM      5  C   UNL d   1       0.411  -0.598  -1.068  0.00  0.00     0.316 A 
ATOM      6  C   UNL d   1      -0.287  -0.264   0.212  0.00  0.00     0.110 A 
ATOM      7  C   UNL d   1      -1.282  -0.958   0.788  0.00  0.00     0.036 C 
ATOM      8  O   UNL d   1       0.248  -1.519  -1.843  0.00  0.00    -0.257 OA
ENDROOT
BRANCH   1   9
ATOM      9  C   UNL d   1       2.121   2.322  -0.030  0.00  0.00     0.021 A 
ATOM     10  C   UNL d   1       2.040   3.203   1.053  0.00  0.00     0.055 A 
ATOM     11  C   UNL d   1       2.940   4.274   1.183  0.00  0.00     0.105 A 
ATOM     12  C   UNL d   1       3.936   4.472   0.199  0.00  0.00     0.135 A 
ATOM     13  C   UNL d   1       4.030   3.555  -0.870  0.00  0.00     0.105 A 
ATOM     14  C   UNL d   1       3.109   2.508  -0.996  0.00  0.00     0.055 A 
BRANCH  11  15
ATOM     15  O   UNL d   1       2.902   5.140   2.243  0.00  0.00    -0.353 OA
ATOM     16  C   UNL d   1       1.928   4.951   3.260  0.00  0.00     0.210 C 
ENDBRANCH  11  15
BRANCH  12  17
ATOM     17  O   UNL d   1       4.838   5.503   0.149  0.00  0.00    -0.351 OA
ATOM     18  C   UNL d   1       4.820   6.534   1.121  0.00  0.00     0.210 C 
ENDBRANCH  12  17
BRANCH  13  19
ATOM     19  O   UNL d   1       4.944   3.598  -1.898  0.00  0.00    -0.353 OA
ATOM     20  C   UNL d   1       6.277   3.940  -1.526  0.00  0.00     0.210 C 
ENDBRANCH  13  19
ENDBRANCH   1   9
BRANCH   7  21
ATOM     21  C   UNL d   1      -1.874  -2.178   0.279  0.00  0.00     0.003 C 
ATOM     22  C   UNL d   1      -2.863  -2.856   0.890  0.00  0.00     0.011 C 
BRANCH  22  23
ATOM     23  C   UNL d   1      -3.386  -4.137   0.377  0.00  0.00    -0.036 A 
ATOM     24  C   UNL d   1      -2.572  -5.045  -0.317  0.00  0.00     0.011 A 
ATOM     25  C   UNL d   1      -3.073  -6.273  -0.754  0.00  0.00     0.001 A 
ATOM     26  C   UNL d   1      -4.394  -6.619  -0.488  0.00  0.00     0.000 A 
ATOM     27  C   UNL d   1      -5.213  -5.735   0.211  0.00  0.00     0.001 A 
ATOM     28  C   UNL d   1      -4.713  -4.502   0.644  0.00  0.00     0.011 A 
ENDBRANCH  22  23
ENDBRANCH   7  21
TORSDOF 6
