REMARK  2 active torsions:
REMARK  status: ('A' for Active; 'I' for Inactive)
REMARK    1  A    between atoms: C_6  and  S_1 
REMARK    2  A    between atoms: N_7  and  S_1 
ROOT
ATOM      1  C   UNL d   1       1.237   5.043  -0.910  0.00  0.00     0.148 A 
ATOM      2  N   UNL d   1       0.315   5.680  -1.603  0.00  0.00    -0.336 N 
ATOM      3  HN  UNL d   1      -0.551   5.255  -1.934  1.00  0.00     0.168 HD
ATOM      4  S   UNL d   1       2.629   6.014  -0.563  0.00  0.00    -0.052 SA
ATOM      5  N   UNL d   1       0.503   1.173   0.677  0.00  0.00    -0.203 NA
ATOM      6  N   UNL d   1       1.089   3.759  -0.474  0.00  0.00    -0.359 N 
ATOM      7  C   UNL d   1       1.917   7.369  -1.328  0.00  0.00     0.036 A 
ATOM      8  C   UNL d   1       0.670   6.999  -1.826  0.00  0.00     0.051 A 
ATOM      9  C   UNL d   1      -0.520   1.891  -0.159  0.00  0.00     0.127 C 
ATOM     10  C   UNL d   1       1.411   2.152   1.348  0.00  0.00     0.127 C 
ATOM     11  C   UNL d   1       2.428   8.668  -1.467  0.00  0.00     0.045 A 
ATOM     12  C   UNL d   1       0.132   2.875  -1.163  0.00  0.00     0.140 C 
ATOM     13  C   UNL d   1       2.107   3.065   0.325  0.00  0.00     0.140 C 
ATOM     14  C   UNL d   1      -0.107   7.973  -2.487  0.00  0.00     0.032 A 
ATOM     15  C   UNL d   1       1.638   9.611  -2.125  0.00  0.00     0.035 A 
ATOM     16  C   UNL d   1       0.385   9.277  -2.629  0.00  0.00     0.026 A 
ATOM     17 CL   UNL d   1       2.229  11.218  -2.310  0.00  0.00    -0.084 Cl
ENDROOT
BRANCH   5  18
ATOM     18  S   UNL d   1       1.268  -0.163  -0.042  0.00  0.00     0.243 S 
ATOM     19  O   UNL d   1       1.230  -0.005  -1.476  0.00  0.00    -0.206 OA
ATOM     20  O   UNL d   1       2.508  -0.424   0.660  0.00  0.00    -0.206 OA
BRANCH  18  21
ATOM     21  C   UNL d   1       0.171  -1.486   0.396  0.00  0.00     0.077 A 
ATOM     22  C   UNL d   1      -0.444  -2.250  -0.598  0.00  0.00     0.048 A 
ATOM     23  C   UNL d   1      -1.234  -3.333  -0.220  0.00  0.00     0.037 A 
ATOM     24 CL   UNL d   1      -1.985  -4.300  -1.429  0.00  0.00    -0.084 Cl
ATOM     25  C   UNL d   1      -1.413  -3.654   1.126  0.00  0.00     0.047 A 
ATOM     26  C   UNL d   1      -0.792  -2.879   2.105  0.00  0.00     0.037 A 
ATOM     27  C   UNL d   1       0.004  -1.794   1.750  0.00  0.00     0.048 A 
ATOM     28 CL   UNL d   1      -0.998  -3.276   3.765  0.00  0.00    -0.084 Cl
ENDBRANCH  18  21
ENDBRANCH   5  18
TORSDOF 2
