REMARK  2 active torsions:
REMARK  status: ('A' for Active; 'I' for Inactive)
REMARK    1  A    between atoms: N_10  and  C_7 
REMARK    2  A    between atoms: C_15  and  N_10 
ROOT
ATOM      1  S   UNL d   1      -1.168  -1.620   0.002  0.00  0.00     0.270 S 
ATOM      2  C   UNL d   1      -2.400  -0.531   0.482  0.00  0.00     0.146 C 
ATOM      3  N   UNL d   1      -1.742  -2.029  -1.551  0.00  0.00    -0.275 N 
ATOM      4  C   UNL d   1      -2.689   0.567  -0.452  0.00  0.00     0.209 C 
ATOM      5  C   UNL d   1      -2.394   0.356  -1.899  0.00  0.00     0.043 A 
ATOM      6  C   UNL d   1      -1.952  -0.883  -2.418  0.00  0.00     0.059 A 
ATOM      7  C   UNL d   1      -3.213  -0.822   1.509  0.00  0.00     0.118 C 
ATOM      8  O   UNL d   1       0.084  -0.910  -0.173  0.00  0.00    -0.200 OA
ATOM      9  O   UNL d   1      -1.205  -2.824   0.815  0.00  0.00    -0.200 OA
ATOM     10  O   UNL d   1      -3.238   1.598  -0.068  0.00  0.00    -0.286 OA
ATOM     11  C   UNL d   1      -1.285  -3.321  -2.089  0.00  0.00     0.170 C 
ATOM     12  C   UNL d   1      -2.662   1.431  -2.763  0.00  0.00     0.018 A 
ATOM     13  C   UNL d   1      -1.861  -1.020  -3.811  0.00  0.00     0.031 A 
ATOM     14  C   UNL d   1      -2.531   1.280  -4.141  0.00  0.00     0.001 A 
ATOM     15  C   UNL d   1      -2.138   0.053  -4.663  0.00  0.00     0.002 A 
ENDROOT
BRANCH   7  16
ATOM     16  N   UNL d   1      -4.350  -0.145   1.887  0.00  0.00    -0.363 N 
ATOM     17  H   UNL d   1      -4.520   0.728   1.379  0.00  0.00     0.165 HD
BRANCH  16  18
ATOM     18  C   UNL d   1      -5.360  -0.548   2.771  0.00  0.00     0.047 A 
ATOM     19  C   UNL d   1      -5.301  -1.671   3.597  0.00  0.00     0.117 A 
ATOM     20  N   UNL d   1      -6.282  -2.068   4.448  0.00  0.00    -0.373 N 
ATOM     21  C   UNL d   1      -7.396  -1.310   4.479  0.00  0.00     0.088 A 
ATOM     22  HN  UNL d   1      -6.182  -2.898   5.033  1.00  0.00     0.164 HD
ATOM     23  C   UNL d   1      -7.576  -0.186   3.695  0.00  0.00     0.019 A 
ATOM     24  C   UNL d   1      -6.546   0.192   2.833  0.00  0.00     0.032 A 
ENDBRANCH  16  18
ENDBRANCH   7  16
TORSDOF 2
