REMARK  3 active torsions:
REMARK  status: ('A' for Active; 'I' for Inactive)
REMARK    1  A    between atoms: C_4  and  C_1 
REMARK       I    between atoms: N_7  and  C_1 
REMARK    2  A    between atoms: C_14  and  N_7 
REMARK    3  A    between atoms: C_15  and  N_7 
ROOT
ATOM      1  N   UNL d   1      -1.977   2.853   2.336  0.00  0.00    -0.196 NA
ATOM      2  C   UNL d   1      -1.642   2.099   1.518  0.00  0.00     0.079 C 
ATOM      3  C   UNL d   1      -1.201   1.157   0.477  0.00  0.00     0.251 C 
ENDROOT
BRANCH   3   4
ATOM      4  N   UNL d   1       0.261   1.029   0.293  0.00  0.00    -0.323 N 
ATOM      5  C   UNL d   1       0.906  -0.140  -0.119  0.00  0.00     0.255 C 
ATOM      6  O   UNL d   1       2.133  -0.229  -0.136  0.00  0.00    -0.267 OA
BRANCH   5   7
ATOM      7  C   UNL d   1       0.147  -1.361  -0.507  0.00  0.00     0.032 A 
ATOM      8  C   UNL d   1      -0.989  -1.336  -1.325  0.00  0.00     0.018 A 
ATOM      9  C   UNL d   1      -1.665  -2.526  -1.622  0.00  0.00     0.025 A 
ATOM     10  C   UNL d   1      -1.175  -3.744  -1.153  0.00  0.00     0.034 A 
ATOM     11  C   UNL d   1      -0.006  -3.787  -0.398  0.00  0.00     0.025 A 
ATOM     12 CL   UNL d   1      -2.009  -5.201  -1.523  0.00  0.00    -0.084 Cl
ATOM     13  C   UNL d   1       0.653  -2.598  -0.075  0.00  0.00     0.018 A 
ENDBRANCH   5   7
BRANCH   4  14
ATOM     14  C   UNL d   1       1.127   2.179   0.636  0.00  0.00     0.251 C 
ATOM     15  C   UNL d   1       0.741   3.435  -0.030  0.00  0.00     0.079 C 
ATOM     16  N   UNL d   1       0.403   4.417  -0.550  0.00  0.00    -0.196 NA
ENDBRANCH   4  14
ENDBRANCH   3   4
TORSDOF 3
