REMARK  4 active torsions:
REMARK  status: ('A' for Active; 'I' for Inactive)
REMARK    1  A    between atoms: C_6  and  S_1 
REMARK    2  A    between atoms: C_2  and  C_3 
REMARK    3  A    between atoms: O_11  and  C_2 
REMARK    4  A    between atoms: C_10  and  C_6 
ROOT
ATOM      1  C   UNL d   1      -3.863   1.639  -0.557  0.00  0.00     0.039 A 
ATOM      2  C   UNL d   1      -3.143   2.838  -0.502  0.00  0.00     0.018 A 
ATOM      3  C   UNL d   1      -3.175   0.421  -0.553  0.00  0.00     0.018 A 
ATOM      4  C   UNL d   1      -1.053   1.595  -0.400  0.00  0.00    -0.044 A 
ATOM      5  C   UNL d   1      -1.780   0.399  -0.472  0.00  0.00     0.009 A 
ATOM      6  C   UNL d   1      -1.747   2.814  -0.427  0.00  0.00     0.009 A 
ENDROOT
BRANCH   4   7
ATOM      7  C   UNL d   1       0.450   1.576  -0.309  0.00  0.00     0.178 C 
BRANCH   7   8
ATOM      8  S   UNL d   1       1.156   1.569  -1.953  0.00  0.00     0.144 S 
ATOM      9  O   UNL d   1       0.782   2.792  -2.639  0.00  0.00    -0.228 OA
ATOM     10  O   UNL d   1       0.932   0.268  -2.556  0.00  0.00    -0.228 OA
ATOM     11  C   UNL d   1       2.894   1.689  -1.611  0.00  0.00     0.161 C 
ENDBRANCH   7   8
ENDBRANCH   4   7
BRANCH   1  12
ATOM     12  C   UNL d   1      -5.347   1.607  -0.629  0.00  0.00     0.292 C 
ATOM     13  O   UNL d   1      -5.985   0.631  -0.987  0.00  0.00    -0.259 OA
BRANCH  12  14
ATOM     14  O   UNL d   1      -5.865   2.780  -0.185  0.00  0.00    -0.323 OA
ATOM     15  C   UNL d   1      -7.293   2.800  -0.144  0.00  0.00     0.213 C 
ENDBRANCH  12  14
ENDBRANCH   1  12
TORSDOF 4
