REMARK  3 active torsions:
REMARK  status: ('A' for Active; 'I' for Inactive)
REMARK    1  A    between atoms: N_3  and  C_1 
REMARK    2  A    between atoms: C_2  and  C_4 
REMARK       I    between atoms: C_4  and  N_3 
REMARK    3  A    between atoms: C_14  and  C_9 
ROOT
ATOM      1  C   UNL d   1      -2.845  -1.778  -0.621  0.00  0.00     0.113 C 
ATOM      2  C   UNL d   1      -3.918  -2.216   0.066  0.00  0.00     0.039 C 
ATOM      3  C   UNL d   1      -2.158  -2.579  -1.573  0.00  0.00     0.105 C 
ATOM      4  N   UNL d   1      -1.549  -3.174  -2.361  0.00  0.00    -0.191 NA
ENDROOT
BRANCH   1   5
ATOM      5  C   UNL d   1      -2.353  -0.393  -0.281  0.00  0.00     0.267 C 
ATOM      6  N   UNL d   1      -1.245   0.044  -0.983  0.00  0.00    -0.307 N 
ATOM      7  H   UNL d   1      -0.737  -0.612  -1.569  0.00  0.00     0.170 HD
ATOM      8  O   UNL d   1      -2.909   0.242   0.615  0.00  0.00    -0.266 OA
BRANCH   6   9
ATOM      9  C   UNL d   1      -0.580   1.244  -0.750  0.00  0.00     0.125 A 
ATOM     10  N   UNL d   1      -1.026   2.411  -0.155  0.00  0.00    -0.281 N 
ATOM     11  N   UNL d   1      -0.042   3.331  -0.005  0.00  0.00    -0.308 N 
ATOM     12  C   UNL d   1      -2.369   2.856   0.136  0.00  0.00     0.179 C 
ATOM     13  C   UNL d   1       1.011   2.784  -0.605  0.00  0.00     0.111 A 
ATOM     14  HN  UNL d   1      -0.097   4.236   0.462  1.00  0.00     0.186 HD
ATOM     15  C   UNL d   1       0.726   1.511  -1.118  0.00  0.00     0.068 A 
ENDBRANCH   6   9
ENDBRANCH   1   5
BRANCH   2  16
ATOM     16  C   UNL d   1      -4.505  -3.557   0.015  0.00  0.00    -0.035 A 
ATOM     17  C   UNL d   1      -4.174  -4.471   1.023  0.00  0.00     0.013 A 
ATOM     18  C   UNL d   1      -4.781  -5.727   1.063  0.00  0.00     0.024 A 
ATOM     19  C   UNL d   1      -5.721  -6.071   0.095  0.00  0.00     0.034 A 
ATOM     20  C   UNL d   1      -6.047  -5.174  -0.922  0.00  0.00     0.024 A 
ATOM     21 CL   UNL d   1      -6.498  -7.604   0.167  0.00  0.00    -0.084 Cl
ATOM     22  C   UNL d   1      -5.437  -3.915  -0.965  0.00  0.00     0.013 A 
ENDBRANCH   2  16
TORSDOF 3
