REMARK  4 active torsions:
REMARK  status: ('A' for Active; 'I' for Inactive)
REMARK    1  A    between atoms: C_2  and  S_1 
REMARK    2  A    between atoms: N_4  and  S_1 
REMARK    3  A    between atoms: C_7  and  N_4 
REMARK    4  A    between atoms: O_13  and  C_11 
ROOT
ATOM      1  N   UNL d   1       0.800  -1.422  -0.233  0.00  0.00    -0.178 NA
ATOM      2  H   UNL d   1       0.190  -1.998   0.351  0.00  0.00     0.146 HD
ENDROOT
BRANCH   1   3
ATOM      3  S   UNL d   1       0.188   0.160  -0.170  0.00  0.00     0.252 S 
ATOM      4  O   UNL d   1      -1.129   0.164  -0.770  0.00  0.00    -0.205 OA
ATOM      5  O   UNL d   1       0.370   0.594   1.198  0.00  0.00    -0.205 OA
BRANCH   3   6
ATOM      6  C   UNL d   1       1.205   1.260  -1.124  0.00  0.00     0.117 A 
ATOM      7  S   UNL d   1       0.910   1.328  -2.812  0.00  0.00    -0.065 SA
ATOM      8  C   UNL d   1       2.144   2.460  -3.034  0.00  0.00     0.075 A 
ATOM      9 CL   UNL d   1       2.488   3.045  -4.611  0.00  0.00    -0.076 Cl
ATOM     10  C   UNL d   1       2.776   2.821  -1.872  0.00  0.00     0.033 A 
ATOM     11  C   UNL d   1       2.225   2.123  -0.756  0.00  0.00     0.034 A 
ENDBRANCH   3   6
ENDBRANCH   1   3
BRANCH   1  12
ATOM     12  C   UNL d   1       0.997  -1.995  -1.533  0.00  0.00     0.056 A 
ATOM     13  C   UNL d   1       2.269  -2.065  -2.126  0.00  0.00     0.090 A 
ATOM     14  C   UNL d   1       2.384  -2.585  -3.423  0.00  0.00     0.038 A 
ATOM     15  C   UNL d   1       1.262  -3.035  -4.121  0.00  0.00     0.003 A 
ATOM     16  C   UNL d   1       0.005  -2.961  -3.531  0.00  0.00     0.002 A 
ATOM     17  C   UNL d   1      -0.127  -2.443  -2.241  0.00  0.00     0.027 A 
BRANCH  13  18
ATOM     18  O   UNL d   1       3.468  -1.651  -1.610  0.00  0.00    -0.354 OA
ATOM     19  C   UNL d   1       3.610  -1.589  -0.198  0.00  0.00     0.210 C 
ENDBRANCH  13  18
ENDBRANCH   1  12
TORSDOF 4
