REMARK  5 active torsions:
REMARK  status: ('A' for Active; 'I' for Inactive)
REMARK    1  A    between atoms: N_4  and  C_2 
REMARK       I    between atoms: C_5  and  N_11 
REMARK    2  A    between atoms: C_9  and  C_5 
REMARK    3  A    between atoms: N_11  and  C_7 
REMARK    4  A    between atoms: O_24  and  C_17 
REMARK    5  A    between atoms: O_25  and  C_18 
ROOT
ATOM      1  C   UNL d   1      -0.392   0.732  -0.110  0.00  0.00    -0.009 C 
ATOM      2  C   UNL d   1       0.773   1.442  -0.387  0.00  0.00     0.118 C 
ATOM      3  C   UNL d   1      -0.308  -0.667  -0.066  0.00  0.00    -0.038 C 
ATOM      4  C   UNL d   1      -1.827   1.200   0.073  0.00  0.00    -0.017 C 
ATOM      5  C   UNL d   1       2.081  -0.615  -0.529  0.00  0.00     0.044 C 
ATOM      6  C   UNL d   1       1.994   0.790  -0.719  0.00  0.00    -0.002 C 
ATOM      7  C   UNL d   1      -1.665  -1.313   0.107  0.00  0.00    -0.019 C 
ATOM      8  C   UNL d   1       0.918  -1.327  -0.210  0.00  0.00     0.038 C 
ATOM      9  C   UNL d   1      -2.593  -0.120  -0.232  0.00  0.00     0.027 C 
ATOM     10  C   UNL d   1      -2.142   1.702   1.490  0.00  0.00     0.020 C 
ATOM     11  C   UNL d   1      -2.273   2.271  -0.938  0.00  0.00     0.020 C 
ATOM     12  C   UNL d   1       3.156   1.556  -1.302  0.00  0.00     0.053 C 
ATOM     13  C   UNL d   1      -1.885  -1.845   1.527  0.00  0.00     0.020 C 
ATOM     14  C   UNL d   1      -1.893  -2.451  -0.900  0.00  0.00     0.020 C 
ENDROOT
BRANCH   5  15
ATOM     15  N   UNL d   1       3.361  -1.243  -0.625  0.00  0.00    -0.322 N 
ATOM     16  C   UNL d   1       3.693  -2.562  -0.320  0.00  0.00     0.261 C 
ATOM     17  O   UNL d   1       2.906  -3.461  -0.045  0.00  0.00    -0.267 OA
ATOM     18  H   UNL d   1       4.154  -0.631  -0.771  0.00  0.00     0.169 HD
BRANCH  16  19
ATOM     19  C   UNL d   1       5.156  -2.848  -0.251  0.00  0.00     0.098 A 
ATOM     20  C   UNL d   1       6.025  -2.041   0.520  0.00  0.00     0.086 A 
ATOM     21  C   UNL d   1       7.397  -2.313   0.543  0.00  0.00     0.038 A 
ATOM     22  C   UNL d   1       7.922  -3.376  -0.176  0.00  0.00     0.005 A 
ATOM     23  C   UNL d   1       7.080  -4.192  -0.925  0.00  0.00     0.038 A 
ATOM     24  C   UNL d   1       5.686  -3.950  -0.954  0.00  0.00     0.086 A 
BRANCH  20  25
ATOM     25  O   UNL d   1       5.669  -0.894   1.184  0.00  0.00    -0.355 OA
ATOM     26  C   UNL d   1       4.685  -1.049   2.208  0.00  0.00     0.210 C 
ENDBRANCH  20  25
BRANCH  24  27
ATOM     27  O   UNL d   1       4.846  -4.718  -1.719  0.00  0.00    -0.355 OA
ATOM     28  C   UNL d   1       5.271  -6.054  -1.992  0.00  0.00     0.210 C 
ENDBRANCH  24  27
ENDBRANCH  16  19
ENDBRANCH   5  15
BRANCH   2  29
ATOM     29  N   UNL d   1       0.763   2.887  -0.236  0.00  0.00    -0.114 N 
ATOM     30  O   UNL d   1       0.841   3.331   0.919  0.00  0.00    -0.532 OA
ATOM     31  O   UNL d   1       0.694   3.565  -1.269  0.00  0.00    -0.532 OA
ENDBRANCH   2  29
TORSDOF 5
