REMARK  7 active torsions:
REMARK  status: ('A' for Active; 'I' for Inactive)
REMARK    1  A    between atoms: S_6  and  C_1 
REMARK    2  A    between atoms: C_2  and  C_5 
REMARK    3  A    between atoms: C_9  and  S_6 
REMARK    4  A    between atoms: N_7  and  C_10 
REMARK       I    between atoms: C_8  and  N_7 
REMARK    5  A    between atoms: C_13  and  C_8 
REMARK    6  A    between atoms: C_14  and  C_15 
REMARK    7  A    between atoms: O_23  and  C_14 
ROOT
ATOM      1  C   UNL d   1       1.011   2.128  -1.444  0.00  0.00     0.035 A 
ATOM      2  C   UNL d   1       2.271   1.529  -1.658  0.00  0.00     0.052 A 
ATOM      3  C   UNL d   1       3.110   2.042  -2.659  0.00  0.00     0.031 A 
ATOM      4  C   UNL d   1       0.629   3.231  -2.230  0.00  0.00     0.021 A 
ATOM      5  C   UNL d   1       1.484   3.741  -3.211  0.00  0.00     0.002 A 
ATOM      6  C   UNL d   1       2.719   3.140  -3.429  0.00  0.00     0.002 A 
ENDROOT
BRANCH   1   7
ATOM      7  S   UNL d   1      -0.269   1.359  -0.455  0.00  0.00    -0.052 SA
BRANCH   7   8
ATOM      8  C   UNL d   1       0.121   1.711   1.238  0.00  0.00     0.149 A 
ATOM      9  N   UNL d   1       1.296   1.286   1.747  0.00  0.00    -0.333 N 
ATOM     10  C   UNL d   1       1.423   1.335   3.109  0.00  0.00     0.119 A 
ATOM     11  HN  UNL d   1       2.050   0.946   1.149  1.00  0.00     0.168 HD
ATOM     12  C   UNL d   1       0.399   1.776   3.932  0.00  0.00     0.051 A 
ATOM     13  C   UNL d   1      -0.751   2.182   3.309  0.00  0.00     0.092 A 
ATOM     14  N   UNL d   1      -0.909   2.159   1.977  0.00  0.00    -0.346 N 
ATOM     15  HN  UNL d   1      -1.777   2.471   1.541  1.00  0.00     0.167 HD
BRANCH  10  16
ATOM     16  C   UNL d   1       2.712   0.889   3.787  0.00  0.00     0.432 C 
ATOM     17  F   UNL d   1       3.579   0.242   2.963  0.00  0.00    -0.165 F 
ATOM     18  F   UNL d   1       3.408   1.933   4.319  0.00  0.00    -0.165 F 
ATOM     19  F   UNL d   1       2.485   0.032   4.824  0.00  0.00    -0.165 F 
ENDBRANCH  10  16
ENDBRANCH   7   8
ENDBRANCH   1   7
BRANCH   2  20
ATOM     20  N   UNL d   1       2.693   0.482  -0.809  0.00  0.00    -0.322 N 
ATOM     21  C   UNL d   1       3.754  -0.376  -1.007  0.00  0.00     0.245 C 
ATOM     22  O   UNL d   1       4.319  -0.642  -2.058  0.00  0.00    -0.268 OA
ATOM     23  H   UNL d   1       2.183   0.411   0.068  0.00  0.00     0.169 HD
BRANCH  21  24
ATOM     24  C   UNL d   1       4.265  -0.870   0.292  0.00  0.00     0.081 C 
ATOM     25  C   UNL d   1       4.575  -2.115   0.669  0.00  0.00     0.086 C 
BRANCH  25  26
ATOM     26  C   UNL d   1       4.420  -3.383  -0.047  0.00  0.00     0.165 C 
ATOM     27  O   UNL d   1       4.986  -4.412   0.273  0.00  0.00    -0.647 OA
BRANCH  26  28
ATOM     28  O   UNL d   1       3.514  -3.350  -1.029  0.00  0.00    -0.773 OA
ATOM     29  H   UNL d   1       3.542  -4.255  -1.405  0.00  0.00     0.167 HD
ENDBRANCH  26  28
ENDBRANCH  25  26
ENDBRANCH  21  24
ENDBRANCH   2  20
TORSDOF 7
