REMARK  3 active torsions:
REMARK  status: ('A' for Active; 'I' for Inactive)
REMARK    1  A    between atoms: C_6  and  C_1 
REMARK    2  A    between atoms: N_7  and  C_2 
REMARK       I    between atoms: C_5  and  N_7 
REMARK       I    between atoms: N_10  and  C_5 
REMARK    3  A    between atoms: C_14  and  N_10 
ROOT
ATOM      1  C   UNL d   1      -1.788  -2.156   0.844  0.00  0.00     0.097 A 
ATOM      2  C   UNL d   1      -0.793  -2.357  -0.180  0.00  0.00     0.097 A 
ATOM      3  N   UNL d   1      -2.957  -2.692   0.461  0.00  0.00    -0.258 N 
ATOM      4  HN  UNL d   1      -3.814  -2.744   1.010  1.00  0.00     0.195 HD
ATOM      5  C   UNL d   1      -1.481  -2.946  -1.214  0.00  0.00     0.101 A 
ATOM      6  O   UNL d   1      -2.768  -3.159  -0.820  0.00  0.00    -0.240 OA
ATOM      7  C   UNL d   1      -1.207  -3.293  -2.621  0.00  0.00     0.081 C 
ENDROOT
BRANCH   2   8
ATOM      8  N   UNL d   1       0.533  -1.939  -0.107  0.00  0.00    -0.304 N 
ATOM      9  C   UNL d   1       1.624  -2.752  -0.422  0.00  0.00     0.323 C 
ATOM     10  N   UNL d   1       2.826  -2.158   0.022  0.00  0.00    -0.334 N 
ATOM     11  O   UNL d   1       1.540  -3.870  -0.905  0.00  0.00    -0.247 OA
ATOM     12  C   UNL d   1       2.999  -0.718  -0.182  0.00  0.00     0.155 C 
ATOM     13  H   UNL d   1       0.737  -1.418   0.731  0.00  0.00     0.171 HD
BRANCH  10  14
ATOM     14  C   UNL d   1       4.082  -2.923   0.223  0.00  0.00     0.088 C 
ATOM     15  C   UNL d   1       4.952  -3.048  -1.035  0.00  0.00     0.025 C 
ATOM     16  C   UNL d   1       4.730  -4.332  -1.815  0.00  0.00     0.002 C 
ATOM     17  C   UNL d   1       4.908  -5.550  -0.920  0.00  0.00     0.000 C 
ATOM     18  C   UNL d   1       3.927  -5.529   0.245  0.00  0.00     0.002 C 
ATOM     19  C   UNL d   1       3.970  -4.226   1.040  0.00  0.00     0.025 C 
ENDBRANCH  10  14
ENDBRANCH   2   8
BRANCH   1  20
ATOM     20  C   UNL d   1      -1.645  -1.489   2.143  0.00  0.00     0.038 A 
ATOM     21  C   UNL d   1      -2.487  -0.417   2.505  0.00  0.00     0.048 A 
ATOM     22 CL   UNL d   1      -3.745   0.193   1.479  0.00  0.00    -0.083 Cl
ATOM     23  C   UNL d   1      -2.320   0.252   3.728  0.00  0.00     0.025 A 
ATOM     24  C   UNL d   1      -1.294  -0.108   4.596  0.00  0.00     0.003 A 
ATOM     25  C   UNL d   1      -0.455  -1.163   4.260  0.00  0.00     0.025 A 
ATOM     26  C   UNL d   1      -0.645  -1.867   3.062  0.00  0.00     0.048 A 
ATOM     27 CL   UNL d   1       0.399  -3.227   2.827  0.00  0.00    -0.083 Cl
ENDBRANCH   1  20
TORSDOF 3
