REMARK  13 active torsions:
REMARK  status: ('A' for Active; 'I' for Inactive)
REMARK    1  A    between atoms: O_16  and  C_5 
REMARK    2  A    between atoms: O_15  and  C_6 
REMARK    3  A    between atoms: O_17  and  C_7 
REMARK    4  A    between atoms: O_18  and  C_8 
REMARK    5  A    between atoms: C_11  and  C_19 
REMARK    6  A    between atoms: C_20  and  C_12 
REMARK    7  A    between atoms: C_19  and  C_24 
REMARK    8  A    between atoms: C_23  and  C_20 
REMARK    9  A    between atoms: O_21  and  C_23 
REMARK   10  A    between atoms: C_25  and  O_21 
REMARK   11  A    between atoms: O_22  and  C_26 
REMARK   12  A    between atoms: C_24  and  O_22 
REMARK   13  A    between atoms: C_26  and  C_25 
ROOT
ATOM      1  C   UNL d   1       7.035  -2.684   0.141  0.00  0.00     0.193 C 
ENDROOT
BRANCH   1   2
ATOM      2  O   UNL d   1       6.431  -3.264   1.307  0.00  0.00    -0.389 OA
BRANCH   2   3
ATOM      3  C   UNL d   1       5.004  -3.258   1.190  0.00  0.00     0.172 C 
BRANCH   3   4
ATOM      4  C   UNL d   1       4.365  -3.959   2.388  0.00  0.00     0.067 C 
BRANCH   4   5
ATOM      5  C   UNL d   1       2.854  -3.961   2.276  0.00  0.00    -0.020 A 
ATOM      6  C   UNL d   1       2.219  -5.016   1.596  0.00  0.00     0.048 A 
ATOM      7  C   UNL d   1       0.827  -5.061   1.393  0.00  0.00     0.086 A 
ATOM      8  C   UNL d   1       0.059  -4.008   1.899  0.00  0.00     0.047 A 
ATOM      9  C   UNL d   1       0.687  -2.949   2.585  0.00  0.00     0.059 A 
ATOM     10 BR   UNL d   1      -1.828  -3.808   1.750  0.00  0.00    -0.048 Br
ATOM     11  C   UNL d   1       2.072  -2.912   2.772  0.00  0.00     0.076 A 
BRANCH   7  12
ATOM     12  O   UNL d   1       0.479  -6.180   0.693  0.00  0.00    -0.355 OA
ATOM     13  C   UNL d   1      -0.870  -6.466   0.380  0.00  0.00     0.210 C 
ENDBRANCH   7  12
BRANCH  11  14
ATOM     14  O   UNL d   1       2.744  -1.897   3.400  0.00  0.00    -0.355 OA
ATOM     15  C   UNL d   1       1.965  -0.849   3.967  0.00  0.00     0.210 C 
ENDBRANCH  11  14
ENDBRANCH   4   5
ENDBRANCH   3   4
ENDBRANCH   2   3
ENDBRANCH   1   2
BRANCH   1  16
ATOM     16  C   UNL d   1       8.561  -2.669   0.253  0.00  0.00     0.193 C 
BRANCH  16  17
ATOM     17  O   UNL d   1       9.082  -4.000   0.161  0.00  0.00    -0.389 OA
BRANCH  17  18
ATOM     18  C   UNL d   1      10.515  -4.017   0.221  0.00  0.00     0.172 C 
BRANCH  18  19
ATOM     19  C   UNL d   1      10.980  -5.473   0.174  0.00  0.00     0.067 C 
BRANCH  19  20
ATOM     20  C   UNL d   1      12.474  -5.676   0.298  0.00  0.00    -0.020 A 
ATOM     21  C   UNL d   1      13.380  -5.254  -0.684  0.00  0.00     0.076 A 
ATOM     22  C   UNL d   1      14.742  -5.511  -0.509  0.00  0.00     0.059 A 
ATOM     23  C   UNL d   1      15.235  -6.213   0.605  0.00  0.00     0.047 A 
ATOM     24  C   UNL d   1      14.343  -6.663   1.585  0.00  0.00     0.086 A 
ATOM     25 BR   UNL d   1      17.123  -6.444   0.596  0.00  0.00    -0.048 Br
ATOM     26  C   UNL d   1      12.976  -6.375   1.410  0.00  0.00     0.048 A 
BRANCH  21  27
ATOM     27  O   UNL d   1      12.863  -4.584  -1.759  0.00  0.00    -0.355 OA
ATOM     28  C   UNL d   1      13.652  -4.580  -2.947  0.00  0.00     0.210 C 
ENDBRANCH  21  27
BRANCH  24  29
ATOM     29  O   UNL d   1      14.546  -7.362   2.737  0.00  0.00    -0.355 OA
ATOM     30  C   UNL d   1      15.836  -7.804   3.116  0.00  0.00     0.210 C 
ENDBRANCH  24  29
ENDBRANCH  19  20
ENDBRANCH  18  19
ENDBRANCH  17  18
ENDBRANCH  16  17
ENDBRANCH   1  16
TORSDOF 13
