REMARK  11 active torsions:
REMARK  status: ('A' for Active; 'I' for Inactive)
REMARK    1  A    between atoms: O_6  and  C_1 
REMARK    2  A    between atoms: C_7  and  C_1 
REMARK    3  A    between atoms: C_2  and  C_8 
REMARK    4  A    between atoms: C_5  and  C_2 
REMARK    5  A    between atoms: C_11  and  C_7 
REMARK    6  A    between atoms: C_8  and  C_12 
REMARK    7  A    between atoms: C_15  and  C_11 
REMARK    8  A    between atoms: C_12  and  C_16 
REMARK    9  A    between atoms: C_13  and  C_14 
REMARK   10  A    between atoms: C_16  and  C_13 
REMARK   11  A    between atoms: C_14  and  C_15 
ROOT
ATOM      1  C   UNL d   1       8.607   3.122  -2.824  0.00  0.00     0.008 C 
ENDROOT
BRANCH   1   2
ATOM      2  C   UNL d   1       9.141   4.195  -3.767  0.00  0.00     0.084 C 
BRANCH   2   3
ATOM      3  C   UNL d   1      10.658   4.225  -3.807  0.00  0.00     0.159 C 
ATOM      4  O   UNL d   1      11.353   3.461  -3.142  0.00  0.00    -0.292 OA
BRANCH   3   5
ATOM      5  C   UNL d   1      11.313   5.232  -4.695  0.00  0.00     0.010 A 
ATOM      6  C   UNL d   1      10.570   6.109  -5.497  0.00  0.00     0.015 A 
ATOM      7  C   UNL d   1      11.222   7.039  -6.310  0.00  0.00     0.001 A 
ATOM      8  C   UNL d   1      12.614   7.098  -6.326  0.00  0.00     0.000 A 
ATOM      9  C   UNL d   1      13.360   6.228  -5.532  0.00  0.00     0.001 A 
ATOM     10  C   UNL d   1      12.711   5.296  -4.719  0.00  0.00     0.015 A 
ENDBRANCH   3   5
ENDBRANCH   2   3
ENDBRANCH   1   2
BRANCH   1  11
ATOM     11  C   UNL d   1       7.081   3.125  -2.814  0.00  0.00     0.000 C 
BRANCH  11  12
ATOM     12  C   UNL d   1       6.545   2.048  -1.876  0.00  0.00     0.000 C 
BRANCH  12  13
ATOM     13  C   UNL d   1       5.020   2.047  -1.861  0.00  0.00     0.000 C 
BRANCH  13  14
ATOM     14  C   UNL d   1       4.480   0.970  -0.923  0.00  0.00     0.001 C 
BRANCH  14  15
ATOM     15  C   UNL d   1       2.954   0.979  -0.916  0.00  0.00     0.010 C 
BRANCH  15  16
ATOM     16  C   UNL d   1       2.388  -0.089   0.014  0.00  0.00     0.110 C 
BRANCH  16  17
ATOM     17  C   UNL d   1       0.877  -0.075   0.015  0.00  0.00     0.139 C 
ATOM     18  O   UNL d   1       0.175   0.684  -0.634  0.00  0.00    -0.650 OA
BRANCH  17  19
ATOM     19  O   UNL d   1       0.356  -1.017   0.835  0.00  0.00    -0.776 OA
ATOM     20  H   UNL d   1       1.030  -1.554   1.292  0.00  0.00     0.167 HD
ENDBRANCH  17  19
ENDBRANCH  16  17
ENDBRANCH  15  16
ENDBRANCH  14  15
ENDBRANCH  13  14
ENDBRANCH  12  13
ENDBRANCH  11  12
ENDBRANCH   1  11
TORSDOF 11
