REMARK  2 active torsions:
REMARK  status: ('A' for Active; 'I' for Inactive)
REMARK    1  A    between atoms: S_9  and  C_1 
REMARK    2  A    between atoms: C_13  and  S_9 
ROOT
ATOM      1  C   UNL d   1      -1.148  -1.518  -0.086  0.00  0.00     0.077 A 
ATOM      2  C   UNL d   1      -1.620  -0.261  -0.045  0.00  0.00     0.105 A 
ATOM      3  C   UNL d   1       0.325  -1.771  -0.005  0.00  0.00     0.201 A 
ATOM      4  C   UNL d   1      -0.722   0.923   0.057  0.00  0.00     0.206 A 
ATOM      5  C   UNL d   1       1.234  -0.610   0.013  0.00  0.00     0.030 A 
ATOM      6  C   UNL d   1       0.731   0.687   0.033  0.00  0.00     0.030 A 
ATOM      7  O   UNL d   1       0.806  -2.900   0.045  0.00  0.00    -0.286 OA
ATOM      8  O   UNL d   1      -1.144   2.070   0.141  0.00  0.00    -0.286 OA
ATOM      9 CL   UNL d   1      -3.315   0.123  -0.132  0.00  0.00    -0.078 Cl
ATOM     10  C   UNL d   1       2.623  -0.813   0.005  0.00  0.00     0.016 A 
ATOM     11  C   UNL d   1       1.609   1.781   0.032  0.00  0.00     0.016 A 
ATOM     12  C   UNL d   1       2.989   1.574   0.016  0.00  0.00     0.001 A 
ATOM     13  C   UNL d   1       3.496   0.276   0.006  0.00  0.00     0.001 A 
ENDROOT
BRANCH   1  14
ATOM     14  S   UNL d   1      -2.170  -2.907  -0.372  0.00  0.00    -0.124 SA
BRANCH  14  15
ATOM     15  C   UNL d   1      -1.976  -3.859   1.163  0.00  0.00     0.075 C 
ATOM     16  C   UNL d   1      -2.937  -5.039   1.139  0.00  0.00     0.016 C 
ENDBRANCH  14  15
ENDBRANCH   1  14
TORSDOF 2
