REMARK  5 active torsions:
REMARK  status: ('A' for Active; 'I' for Inactive)
REMARK    1  A    between atoms: C_3  and  C_1 
REMARK    2  A    between atoms: C_4  and  C_2 
REMARK    3  A    between atoms: O_15  and  C_3 
REMARK    4  A    between atoms: O_14  and  C_4 
REMARK    5  A    between atoms: N_7  and  C_5 
REMARK       I    between atoms: C_8  and  N_7 
ROOT
ATOM      1  C   UNL d   1       1.341  -0.244   0.023  0.00  0.00     0.041 A 
ATOM      2  C   UNL d   1      -0.884  -1.179  -0.006  0.00  0.00     0.041 A 
ATOM      3  C   UNL d   1      -0.582   1.231   0.152  0.00  0.00     0.036 A 
ATOM      4  C   UNL d   1       0.500  -1.358  -0.059  0.00  0.00     0.036 A 
ATOM      5  C   UNL d   1      -1.422   0.115   0.083  0.00  0.00     0.048 A 
ATOM      6  C   UNL d   1       0.802   1.040   0.161  0.00  0.00     0.048 A 
ENDROOT
BRANCH   3   7
ATOM      7  N   UNL d   1      -1.183   2.506   0.229  0.00  0.00    -0.327 N 
ATOM      8  C   UNL d   1      -0.541   3.722   0.069  0.00  0.00     0.218 C 
ATOM      9  O   UNL d   1       0.634   3.879  -0.249  0.00  0.00    -0.274 OA
ATOM     10  C   UNL d   1      -1.435   4.912   0.311  0.00  0.00     0.117 C 
ATOM     11  H   UNL d   1      -2.194   2.525   0.305  0.00  0.00     0.169 HD
ENDBRANCH   3   7
BRANCH   1  12
ATOM     12  C   UNL d   1       2.805  -0.474   0.009  0.00  0.00     0.176 C 
ATOM     13  O   UNL d   1       3.296  -1.502   0.444  0.00  0.00    -0.646 OA
BRANCH  12  14
ATOM     14  O   UNL d   1       3.522   0.511  -0.565  0.00  0.00    -0.773 OA
ATOM     15  H   UNL d   1       3.014   1.232  -0.985  0.00  0.00     0.167 HD
ENDBRANCH  12  14
ENDBRANCH   1  12
BRANCH   2  16
ATOM     16  C   UNL d   1      -1.825  -2.320  -0.096  0.00  0.00     0.176 C 
ATOM     17  O   UNL d   1      -2.921  -2.218  -0.622  0.00  0.00    -0.646 OA
BRANCH  16  18
ATOM     18  O   UNL d   1      -1.387  -3.446   0.498  0.00  0.00    -0.773 OA
ATOM     19  H   UNL d   1      -0.567  -3.371   1.021  0.00  0.00     0.167 HD
ENDBRANCH  16  18
ENDBRANCH   2  16
TORSDOF 5
