REMARK  8 active torsions:
REMARK  status: ('A' for Active; 'I' for Inactive)
REMARK    1  A    between atoms: N_3  and  C_1 
REMARK    2  A    between atoms: N_4  and  C_1 
REMARK    3  A    between atoms: C_5  and  N_3 
REMARK    4  A    between atoms: C_14  and  N_4 
REMARK    5  A    between atoms: C_6  and  C_5 
REMARK    6  A    between atoms: O_12  and  C_7 
REMARK    7  A    between atoms: O_13  and  C_15 
REMARK    8  A    between atoms: C_15  and  C_14 
ROOT
ATOM      1  N   UNL d   1       0.294   0.775   0.873  0.00  0.00    -0.363 N 
ATOM      2  H   UNL d   1       0.797   1.381   0.241  0.00  0.00     0.162 HD
ENDROOT
BRANCH   1   3
ATOM      3  C   UNL d   1       1.011  -0.264   1.426  0.00  0.00     0.167 C 
ATOM      4  S   UNL d   1       0.381  -1.435   2.437  0.00  0.00    -0.041 SA
BRANCH   3   5
ATOM      5  N   UNL d   1       2.312  -0.243   0.963  0.00  0.00    -0.365 N 
ATOM      6  H   UNL d   1       2.696   0.671   0.757  0.00  0.00     0.161 HD
BRANCH   5   7
ATOM      7  C   UNL d   1       3.334  -1.253   1.238  0.00  0.00     0.148 C 
BRANCH   7   8
ATOM      8  C   UNL d   1       4.489  -1.138   0.245  0.00  0.00     0.183 C 
BRANCH   8   9
ATOM      9  O   UNL d   1       5.155   0.112   0.421  0.00  0.00    -0.399 OA
ATOM     10  H   UNL d   1       5.949   0.088  -0.143  0.00  0.00     0.209 HD
ENDBRANCH   8   9
ENDBRANCH   7   8
ENDBRANCH   5   7
ENDBRANCH   3   5
ENDBRANCH   1   3
BRANCH   1  11
ATOM     11  C   UNL d   1      -1.139   0.998   0.959  0.00  0.00     0.160 C 
BRANCH  11  12
ATOM     12  C   UNL d   1      -1.508   1.975   2.043  0.00  0.00    -0.040 A 
ATOM     13  C   UNL d   1      -1.069   3.305   1.994  0.00  0.00     0.011 A 
ATOM     14  C   UNL d   1      -1.440   4.218   2.988  0.00  0.00     0.037 A 
ATOM     15  C   UNL d   1      -2.251   3.811   4.046  0.00  0.00     0.068 A 
ATOM     16  C   UNL d   1      -2.705   2.492   4.093  0.00  0.00     0.037 A 
ATOM     17  C   UNL d   1      -2.328   1.577   3.107  0.00  0.00     0.011 A 
BRANCH  15  18
ATOM     18  O   UNL d   1      -2.697   4.617   5.059  0.00  0.00    -0.356 OA
ATOM     19  C   UNL d   1      -1.879   5.742   5.357  0.00  0.00     0.210 C 
ENDBRANCH  15  18
ENDBRANCH  11  12
ENDBRANCH   1  11
TORSDOF 8
