REMARK  2 active torsions:
REMARK  status: ('A' for Active; 'I' for Inactive)
REMARK    1  A    between atoms: N_2  and  N_1 
REMARK       I    between atoms: C_5  and  N_2 
REMARK    2  A    between atoms: C_9  and  C_5 
ROOT
ATOM      1  N   UNL d   1      -1.570   2.151  -0.370  0.00  0.00    -0.259 N 
ATOM      2  C   UNL d   1      -2.764   2.304   0.334  0.00  0.00     0.271 C 
ATOM      3  O   UNL d   1      -3.370   1.406   0.917  0.00  0.00    -0.266 OA
ATOM      4  H   UNL d   1      -1.067   2.964  -0.684  0.00  0.00     0.191 HD
ENDROOT
BRANCH   1   5
ATOM      5  N   UNL d   1      -0.718   1.026  -0.163  0.00  0.00    -0.262 N 
ATOM      6  C   UNL d   1      -1.157  -0.295  -0.424  0.00  0.00     0.034 C 
ATOM      7  C   UNL d   1      -0.361  -1.365  -0.223  0.00  0.00     0.081 C 
ATOM      8  C   UNL d   1      -2.526  -0.585  -0.983  0.00  0.00     0.070 C 
ATOM      9  C   UNL d   1       1.025  -1.175   0.224  0.00  0.00     0.175 C 
ATOM     10  C   UNL d   1       1.513   0.208   0.314  0.00  0.00     0.081 C 
ATOM     11  O   UNL d   1       1.765  -2.129   0.457  0.00  0.00    -0.288 OA
ATOM     12  C   UNL d   1       0.660   1.233   0.115  0.00  0.00     0.034 C 
ATOM     13  C   UNL d   1       1.284   2.608   0.146  0.00  0.00     0.070 C 
ENDBRANCH   1   5
BRANCH   2  14
ATOM     14  C   UNL d   1      -3.335   3.687   0.400  0.00  0.00     0.049 A 
ATOM     15  C   UNL d   1      -2.856   4.762  -0.339  0.00  0.00     0.104 A 
ATOM     16  N   UNL d   1      -3.273   6.046  -0.187  0.00  0.00    -0.374 N 
ATOM     17  C   UNL d   1      -4.242   6.269   0.726  0.00  0.00     0.087 A 
ATOM     18  HN  UNL d   1      -2.872   6.806  -0.737  1.00  0.00     0.164 HD
ATOM     19  C   UNL d   1      -4.840   5.263   1.463  0.00  0.00     0.018 A 
ATOM     20  C   UNL d   1      -4.383   3.955   1.291  0.00  0.00     0.020 A 
ENDBRANCH   2  14
TORSDOF 2
