REMARK  4 active torsions:
REMARK  status: ('A' for Active; 'I' for Inactive)
REMARK    1  A    between atoms: C_2  and  N_1 
REMARK    2  A    between atoms: C_5  and  C_9 
REMARK    3  A    between atoms: O_11  and  C_5 
REMARK    4  A    between atoms: C_9  and  C_10 
ROOT
ATOM      1  C   UNL d   1       0.310   1.097   0.235  0.00  0.00     0.102 A 
ATOM      2  C   UNL d   1       0.790   2.182  -0.510  0.00  0.00     0.036 A 
ATOM      3  C   UNL d   1      -0.839   1.231   1.023  0.00  0.00     0.036 A 
ATOM      4  C   UNL d   1      -1.032   3.556   0.333  0.00  0.00    -0.048 A 
ATOM      5  C   UNL d   1       0.117   3.406  -0.459  0.00  0.00     0.010 A 
ATOM      6  C   UNL d   1      -1.508   2.457   1.065  0.00  0.00     0.010 A 
ENDROOT
BRANCH   4   7
ATOM      7  C   UNL d   1      -1.765   4.880   0.377  0.00  0.00     0.148 C 
BRANCH   7   8
ATOM      8  C   UNL d   1      -1.885   5.519   1.744  0.00  0.00     0.143 C 
ATOM      9  O   UNL d   1      -2.830   6.228   2.064  0.00  0.00    -0.650 OA
BRANCH   8  10
ATOM     10  O   UNL d   1      -0.838   5.322   2.575  0.00  0.00    -0.776 OA
ATOM     11  H   UNL d   1      -0.133   4.752   2.212  0.00  0.00     0.167 HD
ENDBRANCH   8  10
ENDBRANCH   7   8
ENDBRANCH   4   7
BRANCH   1  12
ATOM     12  N   UNL d   1       1.017  -0.189   0.188  0.00  0.00    -0.116 N 
ATOM     13  O   UNL d   1       2.029  -0.264  -0.524  0.00  0.00    -0.532 OA
ATOM     14  O   UNL d   1       0.564  -1.121   0.868  0.00  0.00    -0.532 OA
ENDBRANCH   1  12
TORSDOF 4
