REMARK  8 active torsions:
REMARK  status: ('A' for Active; 'I' for Inactive)
REMARK    1  A    between atoms: O_2  and  C_1 
REMARK    2  A    between atoms: C_4  and  C_1 
REMARK    3  A    between atoms: C_3  and  O_2 
REMARK    4  A    between atoms: C_5  and  C_16 
REMARK    5  A    between atoms: O_17  and  C_5 
REMARK    6  A    between atoms: C_6  and  C_7 
REMARK    7  A    between atoms: C_15  and  C_9 
REMARK    8  A    between atoms: C_16  and  C_15 
ROOT
ATOM      1  O   UNL d   1       0.043  -0.728  -1.767  0.00  0.00    -0.274 OA
ENDROOT
BRANCH   1   2
ATOM      2  C   UNL d   1       0.858  -0.795  -0.644  0.00  0.00     0.298 C 
ATOM      3  O   UNL d   1       2.043  -0.504  -0.574  0.00  0.00    -0.259 OA
BRANCH   2   4
ATOM      4  C   UNL d   1       0.063  -1.344   0.491  0.00  0.00     0.040 A 
ATOM      5  C   UNL d   1       0.661  -1.449   1.748  0.00  0.00     0.018 A 
ATOM      6  C   UNL d   1      -0.048  -2.005   2.822  0.00  0.00     0.009 A 
ATOM      7  C   UNL d   1      -1.368  -2.474   2.671  0.00  0.00    -0.051 A 
ATOM      8  C   UNL d   1      -1.945  -2.371   1.396  0.00  0.00     0.009 A 
ATOM      9  C   UNL d   1      -1.244  -1.815   0.321  0.00  0.00     0.018 A 
BRANCH   7  10
ATOM     10  C   UNL d   1      -2.136  -3.050   3.875  0.00  0.00    -0.024 C 
ATOM     11  C   UNL d   1      -3.562  -3.536   3.529  0.00  0.00     0.019 C 
ATOM     12  C   UNL d   1      -1.376  -4.256   4.464  0.00  0.00     0.019 C 
ATOM     13  C   UNL d   1      -2.276  -1.957   4.956  0.00  0.00     0.019 C 
ENDBRANCH   7  10
ENDBRANCH   2   4
ENDBRANCH   1   2
BRANCH   1  14
ATOM     14  C   UNL d   1       0.531  -0.766  -3.096  0.00  0.00     0.085 A 
ATOM     15  C   UNL d   1      -0.320  -0.296  -4.113  0.00  0.00    -0.024 A 
ATOM     16  C   UNL d   1       0.074  -0.498  -5.447  0.00  0.00     0.010 A 
ATOM     17  C   UNL d   1       1.272  -1.148  -5.751  0.00  0.00     0.001 A 
ATOM     18  C   UNL d   1       2.110  -1.583  -4.729  0.00  0.00     0.003 A 
ATOM     19  C   UNL d   1       1.739  -1.400  -3.400  0.00  0.00     0.038 A 
BRANCH  15  20
ATOM     20  C   UNL d   1      -1.598   0.461  -3.823  0.00  0.00     0.052 C 
BRANCH  20  21
ATOM     21  C   UNL d   1      -2.855  -0.225  -4.362  0.00  0.00     0.115 C 
BRANCH  21  22
ATOM     22  C   UNL d   1      -4.079   0.633  -4.149  0.00  0.00     0.139 C 
ATOM     23  O   UNL d   1      -4.089   1.731  -3.615  0.00  0.00    -0.650 OA
BRANCH  22  24
ATOM     24  O   UNL d   1      -5.204   0.056  -4.630  0.00  0.00    -0.776 OA
ATOM     25  H   UNL d   1      -5.058  -0.817  -5.041  0.00  0.00     0.167 HD
ENDBRANCH  22  24
ENDBRANCH  21  22
ENDBRANCH  20  21
ENDBRANCH  15  20
ENDBRANCH   1  14
TORSDOF 8
