REMARK  6 active torsions:
REMARK  status: ('A' for Active; 'I' for Inactive)
REMARK    1  A    between atoms: C_4  and  C_1 
REMARK    2  A    between atoms: C_10  and  C_1 
REMARK    3  A    between atoms: N_5  and  N_2 
REMARK    4  A    between atoms: O_17  and  C_4 
REMARK       I    between atoms: C_6  and  N_5 
REMARK    5  A    between atoms: C_7  and  C_6 
REMARK    6  A    between atoms: C_8  and  C_9 
ROOT
ATOM      1  N   UNL d   1       0.849  -2.293  -0.243  0.00  0.00    -0.265 N 
ATOM      2  C   UNL d   1       0.301  -3.559  -0.065  0.00  0.00     0.270 C 
ATOM      3  O   UNL d   1       0.927  -4.537   0.326  0.00  0.00    -0.266 OA
ATOM      4  H   UNL d   1       0.268  -1.498  -0.485  0.00  0.00     0.190 HD
ENDROOT
BRANCH   1   5
ATOM      5  N   UNL d   1       2.153  -2.082   0.082  0.00  0.00    -0.291 N 
ATOM      6  C   UNL d   1       2.560  -0.906   0.486  0.00  0.00     0.132 C 
ATOM      7  HN  UNL d   1       2.821  -2.849   0.010  1.00  0.00     0.187 HD
BRANCH   6   8
ATOM      8  C   UNL d   1       4.094  -0.845   0.685  0.00  0.00     0.195 C 
ATOM      9  O   UNL d   1       4.768   0.164   0.632  0.00  0.00    -0.645 OA
BRANCH   8  10
ATOM     10  O   UNL d   1       4.582  -2.082   0.918  0.00  0.00    -0.772 OA
ATOM     11  H   UNL d   1       3.856  -2.737   0.791  0.00  0.00     0.167 HD
ENDBRANCH   8  10
ENDBRANCH   6   8
BRANCH   6  12
ATOM     12  C   UNL d   1       1.733   0.279   0.877  0.00  0.00    -0.001 A 
ATOM     13  C   UNL d   1       0.479   0.103   1.487  0.00  0.00     0.014 A 
ATOM     14  C   UNL d   1      -0.267   1.202   1.925  0.00  0.00     0.001 A 
ATOM     15  C   UNL d   1       0.251   2.487   1.805  0.00  0.00     0.000 A 
ATOM     16  C   UNL d   1       1.497   2.678   1.215  0.00  0.00     0.001 A 
ATOM     17  C   UNL d   1       2.224   1.583   0.735  0.00  0.00     0.014 A 
ENDBRANCH   6  12
ENDBRANCH   1   5
BRANCH   2  18
ATOM     18  C   UNL d   1      -1.177  -3.651  -0.261  0.00  0.00     0.033 A 
ATOM     19  C   UNL d   1      -1.883  -2.812  -1.127  0.00  0.00     0.017 A 
ATOM     20  C   UNL d   1      -3.284  -2.875  -1.181  0.00  0.00     0.009 A 
ATOM     21  C   UNL d   1      -4.017  -3.773  -0.379  0.00  0.00    -0.051 A 
ATOM     22  C   UNL d   1      -3.281  -4.643   0.442  0.00  0.00     0.009 A 
ATOM     23  C   UNL d   1      -1.883  -4.585   0.500  0.00  0.00     0.017 A 
BRANCH  21  24
ATOM     24  C   UNL d   1      -5.559  -3.760  -0.394  0.00  0.00    -0.024 C 
ATOM     25  C   UNL d   1      -6.189  -4.798   0.564  0.00  0.00     0.019 C 
ATOM     26  C   UNL d   1      -6.066  -2.369   0.045  0.00  0.00     0.019 C 
ATOM     27  C   UNL d   1      -6.095  -4.061  -1.809  0.00  0.00     0.019 C 
ENDBRANCH  21  24
ENDBRANCH   2  18
TORSDOF 6
