REMARK  5 active torsions:
REMARK  status: ('A' for Active; 'I' for Inactive)
REMARK    1  A    between atoms: C_13  and  C_1 
REMARK    2  A    between atoms: C_3  and  C_14 
REMARK    3  A    between atoms: O_21  and  C_4 
REMARK    4  A    between atoms: C_17  and  C_13 
REMARK    5  A    between atoms: C_14  and  C_17 
ROOT
ATOM      1  C   UNL d   1      -1.487   2.424   0.201  0.00  0.00     0.021 C 
ENDROOT
BRANCH   1   2
ATOM      2  C   UNL d   1      -0.807   1.134   0.127  0.00  0.00     0.083 A 
ATOM      3  C   UNL d   1      -1.312  -0.061   0.490  0.00  0.00     0.158 A 
ATOM      4  N   UNL d   1      -0.601  -1.221   0.380  0.00  0.00    -0.313 N 
ATOM      5  C   UNL d   1       0.680  -1.270  -0.079  0.00  0.00     0.180 A 
ATOM      6  H   UNL d   1      -1.000  -2.107   0.665  0.00  0.00     0.170 HD
ATOM      7  N   UNL d   1       1.242  -0.084  -0.433  0.00  0.00    -0.299 N 
ATOM      8  S   UNL d   1       1.508  -2.706  -0.188  0.00  0.00    -0.040 SA
ATOM      9  C   UNL d   1       0.618   1.132  -0.351  0.00  0.00     0.262 A 
ATOM     10  H   UNL d   1       2.198  -0.076  -0.759  0.00  0.00     0.171 HD
ATOM     11  O   UNL d   1       1.212   2.163  -0.660  0.00  0.00    -0.267 OA
BRANCH   3  12
ATOM     12  O   UNL d   1      -2.576  -0.215   0.997  0.00  0.00    -0.345 OA
ATOM     13  H   UNL d   1      -2.801  -1.156   0.983  0.00  0.00     0.219 HD
ENDBRANCH   3  12
ENDBRANCH   1   2
BRANCH   1  14
ATOM     14  C   UNL d   1      -2.802   2.642   0.032  0.00  0.00     0.002 C 
BRANCH  14  15
ATOM     15  C   UNL d   1      -3.383   3.971   0.025  0.00  0.00     0.023 C 
BRANCH  15  16
ATOM     16  C   UNL d   1      -4.679   4.316  -0.123  0.00  0.00     0.100 A 
ATOM     17  C   UNL d   1      -4.974   5.778  -0.130  0.00  0.00     0.263 A 
ATOM     18  N   UNL d   1      -6.297   6.115  -0.245  0.00  0.00    -0.299 N 
ATOM     19  O   UNL d   1      -4.115   6.650  -0.046  0.00  0.00    -0.267 OA
ATOM     20  C   UNL d   1      -7.340   5.253  -0.360  0.00  0.00     0.181 A 
ATOM     21  H   UNL d   1      -6.497   7.108  -0.249  0.00  0.00     0.171 HD
ATOM     22  N   UNL d   1      -7.051   3.926  -0.371  0.00  0.00    -0.299 N 
ATOM     23  S   UNL d   1      -8.905   5.798  -0.485  0.00  0.00    -0.040 SA
ATOM     24  C   UNL d   1      -5.808   3.357  -0.276  0.00  0.00     0.263 A 
ATOM     25  H   UNL d   1      -7.820   3.275  -0.467  0.00  0.00     0.171 HD
ATOM     26  O   UNL d   1      -5.698   2.138  -0.320  0.00  0.00    -0.267 OA
ENDBRANCH  15  16
ENDBRANCH  14  15
ENDBRANCH   1  14
TORSDOF 5
