REMARK  3 active torsions:
REMARK  status: ('A' for Active; 'I' for Inactive)
REMARK       I    between atoms: N_2  and  C_1 
REMARK    1  A    between atoms: O_3  and  C_1 
REMARK    2  A    between atoms: C_4  and  O_3 
REMARK    3  A    between atoms: C_5  and  C_4 
ROOT
ATOM      1  C   UNL d   1       0.755  -0.073   0.269  0.00  0.00     0.364 C 
ATOM      2  N   UNL d   1       0.308  -1.377   0.232  0.00  0.00    -0.324 N 
ATOM      3  O   UNL d   1       1.625   0.328   1.028  0.00  0.00    -0.238 OA
ATOM      4  O   UNL d   1      -0.544  -4.093   0.215  0.00  0.00    -0.388 OA
ATOM      5  C   UNL d   1       0.921  -2.359   1.122  0.00  0.00     0.154 C 
ATOM      6  C   UNL d   1      -1.026  -1.736  -0.251  0.00  0.00     0.154 C 
ATOM      7  C   UNL d   1       0.819  -3.767   0.528  0.00  0.00     0.187 C 
ATOM      8  C   UNL d   1      -1.068  -3.179  -0.760  0.00  0.00     0.187 C 
ENDROOT
BRANCH   1   9
ATOM      9  O   UNL d   1       0.134   0.708  -0.654  0.00  0.00    -0.285 OA
BRANCH   9  10
ATOM     10  C   UNL d   1       0.544   2.083  -0.790  0.00  0.00     0.125 C 
ATOM     11  C   UNL d   1       2.005   2.185  -1.255  0.00  0.00     0.055 C 
ATOM     12  C   UNL d   1      -0.342   2.661  -1.905  0.00  0.00     0.055 C 
BRANCH  10  13
ATOM     13  C   UNL d   1       0.288   2.938   0.470  0.00  0.00     0.157 C 
ATOM     14  O   UNL d   1       1.004   3.897   0.772  0.00  0.00    -0.295 OA
ATOM     15  C   UNL d   1      -0.930   2.614   1.302  0.00  0.00     0.094 C 
ENDBRANCH  10  13
ENDBRANCH   9  10
ENDBRANCH   1   9
TORSDOF 3
