REMARK  9 active torsions:
REMARK  status: ('A' for Active; 'I' for Inactive)
REMARK    1  A    between atoms: N_2  and  C_1 
REMARK    2  A    between atoms: C_3  and  C_1 
REMARK    3  A    between atoms: C_4  and  C_1 
REMARK    4  A    between atoms: N_5  and  C_1 
REMARK       I    between atoms: C_6  and  N_2 
REMARK    5  A    between atoms: C_7  and  N_5 
REMARK    6  A    between atoms: O_19  and  C_6 
REMARK    7  A    between atoms: O_21  and  C_8 
REMARK    8  A    between atoms: O_22  and  C_18 
REMARK    9  A    between atoms: C_23  and  O_19 
ROOT
ATOM      1  C   UNL d   1       0.870  -0.317   0.073  0.00  0.00     0.292 C 
ENDROOT
BRANCH   1   2
ATOM      2  N   UNL d   1       0.017   0.174   1.151  0.00  0.00    -0.299 N 
ATOM      3  C   UNL d   1      -1.337   0.058   1.064  0.00  0.00     0.362 C 
ATOM      4  O   UNL d   1      -1.910  -0.296   0.057  0.00  0.00    -0.238 OA
ATOM      5  H   UNL d   1       0.438   0.330   2.053  0.00  0.00     0.167 HD
BRANCH   3   6
ATOM      6  O   UNL d   1      -1.909   0.398   2.242  0.00  0.00    -0.304 OA
BRANCH   6   7
ATOM      7  C   UNL d   1      -3.337   0.522   2.240  0.00  0.00     0.176 C 
ATOM      8  C   UNL d   1      -4.046  -0.820   2.293  0.00  0.00     0.034 C 
ENDBRANCH   6   7
ENDBRANCH   3   6
ENDBRANCH   1   2
BRANCH   1   9
ATOM      9  C   UNL d   1       0.661   0.348  -1.349  0.00  0.00     0.435 C 
ATOM     10  F   UNL d   1      -0.157   1.434  -1.268  0.00  0.00    -0.167 F 
ATOM     11  F   UNL d   1       1.835   0.810  -1.855  0.00  0.00    -0.167 F 
ATOM     12  F   UNL d   1       0.150  -0.449  -2.305  0.00  0.00    -0.167 F 
ENDBRANCH   1   9
BRANCH   1  13
ATOM     13  C   UNL d   1       0.708  -1.875  -0.143  0.00  0.00     0.435 C 
ATOM     14  F   UNL d   1       0.265  -2.476   0.995  0.00  0.00    -0.167 F 
ATOM     15  F   UNL d   1      -0.114  -2.280  -1.128  0.00  0.00    -0.167 F 
ATOM     16  F   UNL d   1       1.929  -2.432  -0.398  0.00  0.00    -0.167 F 
ENDBRANCH   1  13
BRANCH   1  17
ATOM     17  N   UNL d   1       2.270  -0.083   0.650  0.00  0.00    -0.249 NA
ATOM     18  H   UNL d   1       2.899  -0.728   0.173  0.00  0.00     0.131 HD
BRANCH  17  19
ATOM     19  C   UNL d   1       2.934   1.139   0.799  0.00  0.00     0.044 A 
ATOM     20  C   UNL d   1       4.302   1.214   1.163  0.00  0.00     0.092 A 
ATOM     21  C   UNL d   1       4.935   2.463   1.333  0.00  0.00     0.075 A 
ATOM     22  C   UNL d   1       4.250   3.659   1.170  0.00  0.00     0.070 A 
ATOM     23  C   UNL d   1       2.900   3.600   0.860  0.00  0.00     0.039 A 
ATOM     24  C   UNL d   1       2.252   2.366   0.698  0.00  0.00     0.029 A 
BRANCH  20  25
ATOM     25  O   UNL d   1       5.208   0.218   1.430  0.00  0.00    -0.354 OA
ATOM     26  C   UNL d   1       4.942  -1.148   1.203  0.00  0.00     0.210 C 
ENDBRANCH  20  25
BRANCH  22  27
ATOM     27  O   UNL d   1       4.777   4.913   1.303  0.00  0.00    -0.356 OA
ATOM     28  C   UNL d   1       6.163   4.993   1.617  0.00  0.00     0.210 C 
ENDBRANCH  22  27
ENDBRANCH  17  19
ENDBRANCH   1  17
TORSDOF 9
