REMARK  8 active torsions:
REMARK  status: ('A' for Active; 'I' for Inactive)
REMARK    1  A    between atoms: C_3  and  C_1 
REMARK    2  A    between atoms: N_2  and  C_4 
REMARK    3  A    between atoms: C_17  and  N_7 
REMARK    4  A    between atoms: S_13  and  C_22 
REMARK    5  A    between atoms: C_21  and  S_13 
REMARK    6  A    between atoms: C_20  and  C_17 
REMARK    7  A    between atoms: C_22  and  C_20 
REMARK    8  A    between atoms: O_29  and  C_20 
ROOT
ATOM      1  N   UNL d   1      -0.952   0.068  -5.198  0.00  0.00    -0.364 N 
ATOM      2  N   UNL d   1      -1.152  -1.241  -7.871  0.00  0.00     0.094 N 
ATOM      3  C   UNL d   1      -1.984  -0.948  -5.463  0.00  0.00     0.154 C 
ATOM      4  C   UNL d   1      -0.333   0.688  -6.382  0.00  0.00     0.154 C 
ATOM      5  C   UNL d   1      -1.595  -1.908  -6.611  0.00  0.00     0.292 C 
ATOM      6  C   UNL d   1      -0.030  -0.344  -7.498  0.00  0.00     0.292 C 
ENDROOT
BRANCH   2   7
ATOM      7  C   UNL d   1      -2.284  -0.532  -8.499  0.00  0.00     0.304 C 
BRANCH   7   8
ATOM      8  C   UNL d   1      -2.021   0.197  -9.838  0.00  0.00     0.156 C 
BRANCH   8   9
ATOM      9  C   UNL d   1      -1.563  -0.743 -10.968  0.00  0.00     0.113 C 
BRANCH   9  10
ATOM     10  S   UNL d   1      -1.134   0.253 -12.456  0.00  0.00    -0.127 SA
BRANCH  10  11
ATOM     11  C   UNL d   1      -0.969  -0.980 -13.735  0.00  0.00     0.000 A 
ATOM     12  C   UNL d   1      -1.390  -0.635 -15.031  0.00  0.00     0.021 A 
ATOM     13  C   UNL d   1      -1.235  -1.529 -16.091  0.00  0.00     0.043 A 
ATOM     14  C   UNL d   1      -0.650  -2.767 -15.859  0.00  0.00     0.116 A 
ATOM     15  C   UNL d   1      -0.218  -3.124 -14.587  0.00  0.00     0.043 A 
ATOM     16  F   UNL d   1      -0.489  -3.622 -16.877  0.00  0.00    -0.206 F 
ATOM     17  C   UNL d   1      -0.375  -2.229 -13.524  0.00  0.00     0.021 A 
ENDBRANCH  10  11
ENDBRANCH   9  10
ENDBRANCH   8   9
BRANCH   8  18
ATOM     18  O   UNL d   1      -3.246   0.866 -10.198  0.00  0.00    -0.393 OA
ATOM     19  H   UNL d   1      -3.865   0.200 -10.543  0.00  0.00     0.210 HD
ENDBRANCH   8  18
ENDBRANCH   7   8
ENDBRANCH   2   7
BRANCH   1  20
ATOM     20  C   UNL d   1      -0.160  -0.110  -4.069  0.00  0.00     0.103 A 
ATOM     21  C   UNL d   1       0.495   0.985  -3.503  0.00  0.00     0.049 A 
ATOM     22  C   UNL d   1       1.223   0.838  -2.322  0.00  0.00     0.021 A 
ATOM     23  C   UNL d   1       1.296  -0.412  -1.713  0.00  0.00     0.063 A 
ATOM     24  C   UNL d   1       0.623  -1.451  -2.333  0.00  0.00     0.106 A 
ATOM     25  N   UNL d   1      -0.094  -1.322  -3.477  0.00  0.00    -0.352 N 
ATOM     26  HN  UNL d   1      -0.574  -2.125  -3.883  1.00  0.00     0.166 HD
BRANCH  23  27
ATOM     27  C   UNL d   1       2.050  -0.626  -0.439  0.00  0.00     0.418 C 
ATOM     28  F   UNL d   1       2.012  -1.910   0.013  0.00  0.00    -0.166 F 
ATOM     29  F   UNL d   1       1.579   0.142   0.582  0.00  0.00    -0.166 F 
ATOM     30  F   UNL d   1       3.371  -0.313  -0.559  0.00  0.00    -0.166 F 
ENDBRANCH  23  27
ENDBRANCH   1  20
TORSDOF 8
