REMARK  6 active torsions:
REMARK  status: ('A' for Active; 'I' for Inactive)
REMARK    1  A    between atoms: C_5  and  C_1 
REMARK    2  A    between atoms: S_2  and  C_10 
REMARK    3  A    between atoms: C_4  and  S_2 
REMARK    4  A    between atoms: C_3  and  C_4 
REMARK       I    between atoms: N_9  and  C_3 
REMARK    5  A    between atoms: N_15  and  N_9 
REMARK    6  A    between atoms: C_10  and  C_11 
ROOT
ATOM      1  C   UNL d   1       1.139  -4.614  -1.490  0.00  0.00     0.147 C 
ENDROOT
BRANCH   1   2
ATOM      2  S   UNL d   1       2.142  -4.683   0.030  0.00  0.00     0.028 S 
ATOM      3  O   UNL d   1       3.498  -4.109  -0.274  0.00  0.00    -0.257 OA
BRANCH   2   4
ATOM      4  C   UNL d   1       2.358  -6.492   0.047  0.00  0.00     0.212 C 
BRANCH   4   5
ATOM      5  C   UNL d   1       1.063  -7.251   0.210  0.00  0.00     0.243 C 
ATOM      6  O   UNL d   1       0.030  -6.772   0.669  0.00  0.00    -0.271 OA
ATOM      7  N   UNL d   1       1.146  -8.572  -0.226  0.00  0.00    -0.293 N 
ATOM      8  H   UNL d   1       2.026  -8.977  -0.547  0.00  0.00     0.183 HD
BRANCH   7   9
ATOM      9  N   UNL d   1       0.009  -9.402  -0.165  0.00  0.00    -0.247 NA
ATOM     10  H   UNL d   1      -0.755  -8.922  -0.654  0.00  0.00     0.143 HD
ATOM     11  H   UNL d   1      -0.316  -9.413   0.810  0.00  0.00     0.143 HD
ENDBRANCH   7   9
ENDBRANCH   4   5
ENDBRANCH   2   4
ENDBRANCH   1   2
BRANCH   1  12
ATOM     12  C   UNL d   1       0.757  -3.223  -1.941  0.00  0.00    -0.046 A 
ATOM     13  C   UNL d   1      -0.597  -2.893  -2.127  0.00  0.00     0.024 A 
ATOM     14  C   UNL d   1      -0.977  -1.664  -2.692  0.00  0.00     0.048 A 
ATOM     15  C   UNL d   1       0.020  -0.740  -3.038  0.00  0.00     0.016 A 
ATOM     16  C   UNL d   1       1.364  -1.043  -2.831  0.00  0.00     0.001 A 
ATOM     17  C   UNL d   1       1.730  -2.280  -2.297  0.00  0.00     0.008 A 
BRANCH  14  18
ATOM     18  C   UNL d   1      -2.424  -1.352  -2.984  0.00  0.00     0.417 C 
ATOM     19  F   UNL d   1      -3.286  -2.323  -2.570  0.00  0.00    -0.166 F 
ATOM     20  F   UNL d   1      -2.659  -1.196  -4.318  0.00  0.00    -0.166 F 
ATOM     21  F   UNL d   1      -2.848  -0.200  -2.394  0.00  0.00    -0.166 F 
ENDBRANCH  14  18
ENDBRANCH   1  12
TORSDOF 6
