REMARK  8 active torsions:
REMARK  status: ('A' for Active; 'I' for Inactive)
REMARK    1  A    between atoms: C_10  and  C_3 
REMARK    2  A    between atoms: C_11  and  N_4 
REMARK    3  A    between atoms: N_8  and  C_9 
REMARK       I    between atoms: C_13  and  N_8 
REMARK    4  A    between atoms: C_12  and  C_11 
REMARK       I    between atoms: N_19  and  C_12 
REMARK    5  A    between atoms: C_16  and  C_13 
REMARK    6  A    between atoms: C_14  and  C_17 
REMARK    7  A    between atoms: C_17  and  C_16 
REMARK    8  A    between atoms: N_18  and  N_19 
ROOT
ATOM      1  C   UNL d   1      -1.598  -1.129  -0.658  0.00  0.00     0.257 C 
ATOM      2  N   UNL d   1      -1.474  -2.294   0.088  0.00  0.00    -0.266 N 
ATOM      3  O   UNL d   1      -0.808  -0.813  -1.546  0.00  0.00    -0.270 OA
ATOM      4  H   UNL d   1      -2.050  -2.475   0.910  0.00  0.00     0.190 HD
ENDROOT
BRANCH   1   5
ATOM      5  C   UNL d   1      -2.756  -0.262  -0.260  0.00  0.00     0.271 C 
BRANCH   5   6
ATOM      6  N   UNL d   1      -2.362   0.697   0.746  0.00  0.00    -0.207 N 
ATOM      7  N   UNL d   1      -3.004   1.881   0.860  0.00  0.00    -0.268 N 
ATOM      8  C   UNL d   1      -2.668   2.225   2.115  0.00  0.00     0.144 A 
ATOM      9  HN  UNL d   1      -3.582   2.376   0.181  1.00  0.00     0.190 HD
ATOM     10  N   UNL d   1      -1.855   1.296   2.716  0.00  0.00    -0.266 N 
ATOM     11  N   UNL d   1      -1.688   0.310   1.848  0.00  0.00    -0.002 NA
ATOM     12  HN  UNL d   1      -1.456   1.353   3.653  1.00  0.00     0.186 HD
BRANCH   8  13
ATOM     13  C   UNL d   1      -3.206   3.381   2.817  0.00  0.00     0.014 A 
ATOM     14  C   UNL d   1      -3.955   4.348   2.132  0.00  0.00     0.039 A 
ATOM     15  C   UNL d   1      -4.531   5.412   2.827  0.00  0.00     0.036 A 
ATOM     16 CL   UNL d   1      -5.464   6.579   1.974  0.00  0.00    -0.084 Cl
ATOM     17  C   UNL d   1      -4.372   5.530   4.204  0.00  0.00     0.047 A 
ATOM     18  C   UNL d   1      -3.621   4.577   4.885  0.00  0.00     0.036 A 
ATOM     19  C   UNL d   1      -3.034   3.510   4.204  0.00  0.00     0.039 A 
ATOM     20 CL   UNL d   1      -3.431   4.703   6.591  0.00  0.00    -0.084 Cl
ENDBRANCH   8  13
ENDBRANCH   5   6
ENDBRANCH   1   5
BRANCH   2  21
ATOM     21  N   UNL d   1      -0.348  -3.070  -0.088  0.00  0.00    -0.273 N 
ATOM     22  C   UNL d   1      -0.300  -4.420  -0.101  0.00  0.00     0.193 C 
ATOM     23  S   UNL d   1       1.204  -5.163  -0.068  0.00  0.00    -0.039 SA
ATOM     24  H   UNL d   1       0.537  -2.564  -0.150  0.00  0.00     0.189 HD
BRANCH  22  25
ATOM     25  N   UNL d   1      -1.397  -5.234  -0.134  0.00  0.00    -0.299 N 
ATOM     26  C   UNL d   1      -2.768  -5.045  -0.298  0.00  0.00     0.247 C 
ATOM     27  O   UNL d   1      -3.372  -3.979  -0.367  0.00  0.00    -0.268 OA
ATOM     28  H   UNL d   1      -1.096  -6.201  -0.129  0.00  0.00     0.171 HD
BRANCH  26  29
ATOM     29  C   UNL d   1      -3.500  -6.349  -0.326  0.00  0.00     0.076 C 
BRANCH  29  30
ATOM     30  C   UNL d   1      -4.795  -6.376  -0.682  0.00  0.00     0.024 C 
BRANCH  30  31
ATOM     31  C   UNL d   1      -5.634  -7.534  -0.611  0.00  0.00     0.004 A 
ATOM     32  S   UNL d   1      -5.123  -9.065  -0.000  0.00  0.00    -0.102 SA
ATOM     33  C   UNL d   1      -6.684  -9.742  -0.136  0.00  0.00     0.050 A 
ATOM     34  C   UNL d   1      -7.582  -8.855  -0.678  0.00  0.00     0.008 A 
ATOM     35  C   UNL d   1      -6.974  -7.600  -0.969  0.00  0.00     0.019 A 
ENDBRANCH  30  31
ENDBRANCH  29  30
ENDBRANCH  26  29
ENDBRANCH  22  25
ENDBRANCH   2  21
TORSDOF 8
