REMARK  1 active torsions:
REMARK  status: ('A' for Active; 'I' for Inactive)
REMARK       I    between atoms: N_2  and  C_1 
REMARK       I    between atoms: N_4  and  C_1 
REMARK    1  A    between atoms: C_5  and  N_2 
ROOT
ATOM      1  C   UNL d   1       1.099   2.061  -1.488  0.00  0.00     0.086 C 
ATOM      2  C   UNL d   1       1.890   2.892  -0.463  0.00  0.00     0.025 C 
ATOM      3  C   UNL d   1       0.106   2.845  -2.353  0.00  0.00     0.025 C 
ATOM      4  C   UNL d   1       0.691   3.937  -3.245  0.00  0.00     0.002 C 
ATOM      5  C   UNL d   1       1.035   3.840   0.386  0.00  0.00     0.002 C 
ATOM      6  C   UNL d   1       1.127   5.316  -0.007  0.00  0.00     0.000 C 
ATOM      7  C   UNL d   1       1.303   5.169  -2.576  0.00  0.00     0.000 C 
ATOM      8  C   UNL d   1       0.545   5.714  -1.367  0.00  0.00     0.000 C 
ENDROOT
BRANCH   1   9
ATOM      9  N   UNL d   1       0.364   0.996  -0.799  0.00  0.00    -0.339 N 
ATOM     10  C   UNL d   1       0.921  -0.222  -0.533  0.00  0.00     0.314 C 
ATOM     11  O   UNL d   1       2.010  -0.612  -0.911  0.00  0.00    -0.248 OA
ATOM     12  N   UNL d   1       0.098  -0.997   0.221  0.00  0.00    -0.352 N 
ATOM     13  H   UNL d   1      -0.899  -0.874   0.122  0.00  0.00     0.160 HD
ATOM     14  H   UNL d   1       0.410  -1.955   0.301  0.00  0.00     0.160 HD
ATOM     15  H   UNL d   1      -0.380   1.279  -0.177  0.00  0.00     0.164 HD
ENDBRANCH   1   9
TORSDOF 1
