REMARK  5 active torsions:
REMARK  status: ('A' for Active; 'I' for Inactive)
REMARK    1  A    between atoms: C_8  and  C_1 
REMARK    2  A    between atoms: S_9  and  C_5 
REMARK    3  A    between atoms: C_12  and  S_9 
REMARK    4  A    between atoms: C_10  and  C_12 
REMARK    5  A    between atoms: C_14  and  C_10 
ROOT
ATOM      1  C   UNL d   1      -0.088   0.948  -0.582  0.00  0.00     0.135 A 
ATOM      2  N   UNL d   1      -0.627  -0.262  -0.950  0.00  0.00    -0.320 N 
ATOM      3  N   UNL d   1       0.478   0.790   0.604  0.00  0.00    -0.283 N 
ATOM      4  HN  UNL d   1       0.962   1.516   1.132  1.00  0.00     0.188 HD
ATOM      5  C   UNL d   1      -0.375  -1.128   0.070  0.00  0.00     0.161 A 
ATOM      6  N   UNL d   1       0.304  -0.517   1.009  0.00  0.00    -0.278 N 
ATOM      7  HN  UNL d   1       0.643  -0.932   1.877  1.00  0.00     0.189 HD
ATOM      8  H   UNL d   1      -1.130  -0.479  -1.804  0.00  0.00     0.169 HD
ENDROOT
BRANCH   5   9
ATOM      9  S   UNL d   1      -0.772  -2.805   0.002  0.00  0.00    -0.085 SA
BRANCH   9  10
ATOM     10  C   UNL d   1      -2.592  -2.812  -0.021  0.00  0.00     0.166 C 
BRANCH  10  11
ATOM     11  C   UNL d   1      -3.165  -2.233  -1.301  0.00  0.00     0.169 C 
ATOM     12  O   UNL d   1      -2.460  -1.755  -2.199  0.00  0.00    -0.291 OA
BRANCH  11  13
ATOM     13  C   UNL d   1      -4.644  -2.191  -1.485  0.00  0.00     0.010 A 
ATOM     14  C   UNL d   1      -5.544  -2.767  -0.581  0.00  0.00     0.015 A 
ATOM     15  C   UNL d   1      -6.920  -2.664  -0.807  0.00  0.00     0.001 A 
ATOM     16  C   UNL d   1      -7.403  -1.989  -1.929  0.00  0.00     0.000 A 
ATOM     17  C   UNL d   1      -6.513  -1.422  -2.837  0.00  0.00     0.001 A 
ATOM     18  C   UNL d   1      -5.141  -1.525  -2.618  0.00  0.00     0.015 A 
ENDBRANCH  11  13
ENDBRANCH  10  11
ENDBRANCH   9  10
ENDBRANCH   5   9
BRANCH   1  19
ATOM     19  C   UNL d   1      -0.145   2.182  -1.368  0.00  0.00     0.048 A 
ATOM     20  C   UNL d   1      -0.787   2.258  -2.608  0.00  0.00     0.130 A 
ATOM     21  F   UNL d   1      -1.379   1.173  -3.134  0.00  0.00    -0.205 F 
ATOM     22  C   UNL d   1      -0.841   3.449  -3.334  0.00  0.00     0.043 A 
ATOM     23  C   UNL d   1      -0.241   4.599  -2.825  0.00  0.00     0.003 A 
ATOM     24  C   UNL d   1       0.409   4.549  -1.593  0.00  0.00     0.001 A 
ATOM     25  C   UNL d   1       0.456   3.352  -0.871  0.00  0.00     0.018 A 
ENDBRANCH   1  19
TORSDOF 5
