REMARK  13 active torsions:
REMARK  status: ('A' for Active; 'I' for Inactive)
REMARK    1  A    between atoms: N_4  and  C_1 
REMARK    2  A    between atoms: N_8  and  C_1 
REMARK    3  A    between atoms: C_2  and  N_3 
REMARK    4  A    between atoms: N_7  and  C_2 
REMARK    5  A    between atoms: N_3  and  N_4 
REMARK    6  A    between atoms: C_13  and  N_7 
REMARK    7  A    between atoms: C_14  and  N_8 
REMARK    8  A    between atoms: C_9  and  C_14 
REMARK    9  A    between atoms: C_16  and  C_9 
REMARK   10  A    between atoms: C_10  and  C_13 
REMARK   11  A    between atoms: C_15  and  C_10 
REMARK   12  A    between atoms: O_11  and  C_16 
REMARK   13  A    between atoms: O_12  and  C_15 
ROOT
ATOM      1  N   UNL d   1       0.753  -1.061  -2.426  0.00  0.00    -0.274 N 
ATOM      2  H   UNL d   1       1.753  -0.911  -2.537  0.00  0.00     0.189 HD
ENDROOT
BRANCH   1   3
ATOM      3  C   UNL d   1       0.001  -1.070  -3.597  0.00  0.00     0.186 C 
ATOM      4  S   UNL d   1      -1.517  -0.392  -3.756  0.00  0.00    -0.040 SA
BRANCH   3   5
ATOM      5  N   UNL d   1       0.688  -1.748  -4.587  0.00  0.00    -0.366 N 
ATOM      6  H   UNL d   1       1.465  -2.314  -4.264  0.00  0.00     0.161 HD
BRANCH   5   7
ATOM      7  C   UNL d   1       0.317  -1.909  -5.988  0.00  0.00     0.124 C 
BRANCH   7   8
ATOM      8  C   UNL d   1       1.228  -1.058  -6.869  0.00  0.00     0.046 C 
BRANCH   8   9
ATOM      9  C   UNL d   1       0.909  -1.214  -8.350  0.00  0.00     0.168 C 
BRANCH   9  10
ATOM     10  O   UNL d   1      -0.431  -0.794  -8.586  0.00  0.00    -0.396 OA
ATOM     11  C   UNL d   1      -0.792  -0.910  -9.955  0.00  0.00     0.201 C 
ENDBRANCH   9  10
ENDBRANCH   8   9
ENDBRANCH   7   8
ENDBRANCH   5   7
ENDBRANCH   3   5
ENDBRANCH   1   3
BRANCH   1  12
ATOM     12  N   UNL d   1       0.230  -0.568  -1.216  0.00  0.00    -0.274 N 
ATOM     13  H   UNL d   1      -0.780  -0.673  -1.098  0.00  0.00     0.189 HD
BRANCH  12  14
ATOM     14  C   UNL d   1       0.894   0.385  -0.488  0.00  0.00     0.186 C 
ATOM     15  S   UNL d   1       2.305   1.153  -0.948  0.00  0.00    -0.040 SA
BRANCH  14  16
ATOM     16  N   UNL d   1       0.377   0.667   0.746  0.00  0.00    -0.366 N 
ATOM     17  H   UNL d   1       0.898   1.374   1.251  0.00  0.00     0.161 HD
BRANCH  16  18
ATOM     18  C   UNL d   1      -0.467  -0.213   1.542  0.00  0.00     0.124 C 
BRANCH  18  19
ATOM     19  C   UNL d   1      -1.848   0.373   1.808  0.00  0.00     0.046 C 
BRANCH  19  20
ATOM     20  C   UNL d   1      -2.692   0.493   0.543  0.00  0.00     0.168 C 
BRANCH  20  21
ATOM     21  O   UNL d   1      -2.716  -0.724  -0.204  0.00  0.00    -0.396 OA
ATOM     22  C   UNL d   1      -3.521  -1.736   0.389  0.00  0.00     0.201 C 
ENDBRANCH  20  21
ENDBRANCH  19  20
ENDBRANCH  18  19
ENDBRANCH  16  18
ENDBRANCH  14  16
ENDBRANCH  12  14
ENDBRANCH   1  12
TORSDOF 13
