REMARK  4 active torsions:
REMARK  status: ('A' for Active; 'I' for Inactive)
REMARK    1  A    between atoms: C_10  and  C_1 
REMARK    2  A    between atoms: C_7  and  C_4 
REMARK    3  A    between atoms: O_17  and  C_10 
REMARK    4  A    between atoms: O_19  and  C_11 
ROOT
ATOM      1  C   UNL d   1       1.621  -1.110   0.004  0.00  0.00     0.080 A 
ATOM      2  C   UNL d   1       0.232   0.817   0.009  0.00  0.00     0.048 A 
ATOM      3  C   UNL d   1       0.277  -0.581   0.007  0.00  0.00     0.069 A 
ATOM      4  C   UNL d   1      -1.006   1.496   0.009  0.00  0.00     0.071 A 
ATOM      5  S   UNL d   1       1.822   1.458   0.011  0.00  0.00    -0.091 SA
ATOM      6  C   UNL d   1       2.554  -0.080   0.006  0.00  0.00    -0.002 A 
ATOM      7  N   UNL d   1      -0.855  -1.333   0.006  0.00  0.00    -0.335 N 
ATOM      8  HN  UNL d   1      -0.814  -2.352   0.005  1.00  0.00     0.168 HD
ATOM      9  C   UNL d   1      -2.024  -0.687   0.005  0.00  0.00     0.142 A 
ATOM     10  C   UNL d   1      -2.153   0.685   0.007  0.00  0.00     0.073 A 
ATOM     11  C   UNL d   1       4.050  -0.157   0.003  0.00  0.00     0.057 C 
ENDROOT
BRANCH   1  12
ATOM     12  C   UNL d   1       1.989  -2.531  -0.000  0.00  0.00     0.296 C 
ATOM     13  O   UNL d   1       3.153  -2.922   0.005  0.00  0.00    -0.259 OA
BRANCH  12  14
ATOM     14  O   UNL d   1       0.919  -3.374  -0.014  0.00  0.00    -0.322 OA
ATOM     15  C   UNL d   1       1.237  -4.764  -0.020  0.00  0.00     0.213 C 
ENDBRANCH  12  14
ENDBRANCH   1  12
BRANCH   4  16
ATOM     16  C   UNL d   1      -1.181   2.991   0.011  0.00  0.00     0.419 C 
ATOM     17  F   UNL d   1      -0.029   3.713   0.011  0.00  0.00    -0.166 F 
ATOM     18  F   UNL d   1      -1.885   3.422  -1.074  0.00  0.00    -0.166 F 
ATOM     19  F   UNL d   1      -1.882   3.420   1.098  0.00  0.00    -0.166 F 
ENDBRANCH   4  16
BRANCH   9  20
ATOM     20  O   UNL d   1      -3.200  -1.411   0.003  0.00  0.00    -0.341 OA
ATOM     21  C   UNL d   1      -2.985  -2.822   0.007  0.00  0.00     0.211 C 
ENDBRANCH   9  20
TORSDOF 4
