REMARK  2 active torsions:
REMARK  status: ('A' for Active; 'I' for Inactive)
REMARK    1  A    between atoms: C_15  and  C_4 
REMARK    2  A    between atoms: C_8  and  C_10 
ROOT
ATOM      1  N   UNL d   1       0.669   0.219  -0.974  0.00  0.00    -0.316 N 
ATOM      2  HN  UNL d   1       1.263   0.408  -1.781  1.00  0.00     0.169 HD
ATOM      3  C   UNL d   1       0.126  -0.924  -0.606  0.00  0.00     0.208 A 
ATOM      4  C   UNL d   1       0.236   1.099   0.002  0.00  0.00     0.154 A 
ATOM      5  C   UNL d   1       0.290  -2.149  -1.318  0.00  0.00     0.153 A 
ATOM      6  N   UNL d   1      -0.539   0.525   0.936  0.00  0.00    -0.241 N 
ATOM      7  HN  UNL d   1      -0.972   0.962   1.749  1.00  0.00     0.196 HD
ATOM      8  O   UNL d   1      -0.614  -0.806   0.537  0.00  0.00    -0.215 OA
ATOM      9  N   UNL d   1       0.031  -4.333  -1.818  0.00  0.00    -0.272 N 
ATOM     10  HN  UNL d   1      -0.269  -5.307  -1.784  1.00  0.00     0.194 HD
ATOM     11  O   UNL d   1      -0.310  -3.319  -0.938  0.00  0.00    -0.234 OA
ATOM     12  C   UNL d   1       1.031  -2.400  -2.455  0.00  0.00     0.063 A 
ATOM     13  C   UNL d   1       0.834  -3.765  -2.718  0.00  0.00     0.117 A 
ENDROOT
BRANCH   4  14
ATOM     14  C   UNL d   1       0.604   2.518  -0.012  0.00  0.00     0.078 A 
ATOM     15  N   UNL d   1       0.160   3.295   1.010  0.00  0.00    -0.362 N 
ATOM     16  C   UNL d   1       0.499   4.605   1.001  0.00  0.00     0.104 A 
ATOM     17  HN  UNL d   1      -0.410   2.904   1.760  1.00  0.00     0.165 HD
ATOM     18  C   UNL d   1       1.268   5.200   0.013  0.00  0.00     0.063 A 
ATOM     19  C   UNL d   1       1.714   4.387  -1.033  0.00  0.00     0.020 A 
ATOM     20  C   UNL d   1       1.381   3.033  -1.048  0.00  0.00     0.034 A 
BRANCH  18  21
ATOM     21  C   UNL d   1       1.606   6.658   0.075  0.00  0.00     0.418 C 
ATOM     22  F   UNL d   1       1.091   7.294   1.163  0.00  0.00    -0.166 F 
ATOM     23  F   UNL d   1       2.949   6.877   0.116  0.00  0.00    -0.166 F 
ATOM     24  F   UNL d   1       1.149   7.343  -1.009  0.00  0.00    -0.166 F 
ENDBRANCH  18  21
ENDBRANCH   4  14
TORSDOF 2
