REMARK  3 active torsions:
REMARK  status: ('A' for Active; 'I' for Inactive)
REMARK       I    between atoms: N_2  and  C_1 
REMARK       I    between atoms: N_5  and  C_1 
REMARK    1  A    between atoms: C_4  and  N_2 
REMARK    2  A    between atoms: C_3  and  N_6 
REMARK    3  A    between atoms: O_21  and  C_15 
ROOT
ATOM      1  C   UNL d   1       0.903   0.083  -0.122  0.00  0.00     0.323 C 
ATOM      2  N   UNL d   1       0.418  -1.215  -0.065  0.00  0.00    -0.305 N 
ATOM      3  N   UNL d   1       0.181   1.006   0.614  0.00  0.00    -0.331 N 
ATOM      4  N   UNL d   1      -0.501   2.804   2.751  0.00  0.00    -0.377 N 
ATOM      5  O   UNL d   1       1.874   0.408  -0.801  0.00  0.00    -0.247 OA
ATOM      6  C   UNL d   1       0.585   2.418   0.563  0.00  0.00     0.147 C 
ATOM      7  C   UNL d   1      -1.003   0.744   1.432  0.00  0.00     0.147 C 
ATOM      8  C   UNL d   1       0.743   3.005   1.976  0.00  0.00     0.143 C 
ATOM      9  C   UNL d   1      -0.940   1.403   2.825  0.00  0.00     0.143 C 
ATOM     10  H   UNL d   1      -0.585  -1.270  -0.080  0.00  0.00     0.171 HD
ENDROOT
BRANCH   2  11
ATOM     11  C   UNL d   1       1.085  -2.271  -0.734  0.00  0.00     0.091 A 
ATOM     12  C   UNL d   1       2.436  -2.579  -0.461  0.00  0.00     0.063 A 
ATOM     13 CL   UNL d   1       3.323  -1.829   0.829  0.00  0.00    -0.082 Cl
ATOM     14  C   UNL d   1       3.076  -3.631  -1.125  0.00  0.00     0.026 A 
ATOM     15  C   UNL d   1       2.380  -4.399  -2.053  0.00  0.00     0.005 A 
ATOM     16  C   UNL d   1       1.030  -4.140  -2.289  0.00  0.00     0.039 A 
ATOM     17  C   UNL d   1       0.375  -3.089  -1.633  0.00  0.00     0.096 A 
BRANCH  17  18
ATOM     18  O   UNL d   1      -0.977  -3.029  -1.865  0.00  0.00    -0.354 OA
ATOM     19  C   UNL d   1      -1.494  -1.775  -2.303  0.00  0.00     0.210 C 
ENDBRANCH  17  18
ENDBRANCH   2  11
BRANCH   4  20
ATOM     20  C   UNL d   1      -1.163   3.861   3.372  0.00  0.00     0.044 A 
ATOM     21  C   UNL d   1      -1.864   3.774   4.620  0.00  0.00     0.017 A 
ATOM     22  C   UNL d   1      -2.562   4.927   5.064  0.00  0.00     0.044 A 
ATOM     23  C   UNL d   1      -1.900   2.643   5.484  0.00  0.00     0.016 A 
ATOM     24  C   UNL d   1      -3.305   4.882   6.237  0.00  0.00     0.030 A 
ATOM     25  N   UNL d   1      -2.550   6.100   4.419  0.00  0.00    -0.359 N 
ATOM     26  C   UNL d   1      -3.383   3.735   7.023  0.00  0.00     0.002 A 
ATOM     27  C   UNL d   1      -2.668   2.612   6.650  0.00  0.00     0.001 A 
ATOM     28  C   UNL d   1      -1.844   6.196   3.279  0.00  0.00     0.007 A 
ATOM     29  HN  UNL d   1      -3.065   6.902   4.784  1.00  0.00     0.166 HD
ATOM     30  C   UNL d   1      -1.176   5.113   2.728  0.00  0.00     0.054 A 
ATOM     31  C   UNL d   1      -1.806   7.534   2.606  0.00  0.00     0.068 C 
ENDBRANCH   4  20
TORSDOF 3
