REMARK  5 active torsions:
REMARK  status: ('A' for Active; 'I' for Inactive)
REMARK    1  A    between atoms: C_3  and  N_1 
REMARK    2  A    between atoms: C_15  and  N_2 
REMARK    3  A    between atoms: C_8  and  C_3 
REMARK    4  A    between atoms: C_17  and  C_15 
REMARK    5  A    between atoms: O_16  and  C_17 
ROOT
ATOM      1  N   UNL d   1      -1.480   0.048   0.297  0.00  0.00     0.096 N 
ATOM      2  N   UNL d   1       1.490  -0.023  -0.342  0.00  0.00     0.093 N 
ATOM      3  C   UNL d   1      -0.798  -1.142  -0.256  0.00  0.00     0.303 C 
ATOM      4  C   UNL d   1      -0.720   1.252  -0.121  0.00  0.00     0.303 C 
ATOM      5  C   UNL d   1       0.715  -1.219   0.065  0.00  0.00     0.302 C 
ATOM      6  C   UNL d   1       0.804   1.185   0.164  0.00  0.00     0.302 C 
ENDROOT
BRANCH   1   7
ATOM      7  C   UNL d   1      -1.599   0.013   1.766  0.00  0.00     0.311 C 
BRANCH   7   8
ATOM      8  C   UNL d   1      -2.358  -1.177   2.314  0.00  0.00    -0.030 A 
ATOM      9  C   UNL d   1      -1.716  -2.089   3.170  0.00  0.00     0.012 A 
ATOM     10  C   UNL d   1      -2.415  -3.167   3.709  0.00  0.00     0.043 A 
ATOM     11  C   UNL d   1      -3.759  -3.337   3.395  0.00  0.00     0.116 A 
ATOM     12  C   UNL d   1      -4.410  -2.455   2.541  0.00  0.00     0.043 A 
ATOM     13  F   UNL d   1      -4.435  -4.363   3.926  0.00  0.00    -0.206 F 
ATOM     14  C   UNL d   1      -3.710  -1.376   1.997  0.00  0.00     0.012 A 
ENDBRANCH   7   8
ENDBRANCH   1   7
BRANCH   2  15
ATOM     15  C   UNL d   1       1.675  -0.012  -1.806  0.00  0.00     0.298 C 
BRANCH  15  16
ATOM     16  C   UNL d   1       2.619   1.082  -2.323  0.00  0.00     0.194 C 
BRANCH  16  17
ATOM     17  O   UNL d   1       2.771   0.947  -3.735  0.00  0.00    -0.399 OA
ATOM     18  H   UNL d   1       3.370   1.657  -4.021  0.00  0.00     0.209 HD
ENDBRANCH  16  17
ENDBRANCH  15  16
ENDBRANCH   2  15
TORSDOF 5
