REMARK  5 active torsions:
REMARK  status: ('A' for Active; 'I' for Inactive)
REMARK    1  A    between atoms: C_4  and  C_1 
REMARK       I    between atoms: N_14  and  C_4 
REMARK    2  A    between atoms: C_6  and  C_11 
REMARK    3  A    between atoms: C_7  and  C_12 
REMARK       I    between atoms: C_13  and  N_18 
REMARK       I    between atoms: N_17  and  C_13 
REMARK    4  A    between atoms: N_18  and  N_14 
REMARK    5  A    between atoms: C_16  and  N_17 
ROOT
ATOM      1  C   UNL d   1       3.168  -3.932  -0.249  0.00  0.00     0.339 C 
ATOM      2  N   UNL d   1       2.902  -5.254   0.039  0.00  0.00    -0.308 N 
ATOM      3  N   UNL d   1       4.492  -3.586  -0.052  0.00  0.00    -0.248 N 
ATOM      4  O   UNL d   1       2.381  -3.103  -0.702  0.00  0.00    -0.245 OA
ATOM      5  H   UNL d   1       3.650  -5.782   0.465  0.00  0.00     0.170 HD
ATOM      6  H   UNL d   1       5.085  -4.050   0.629  0.00  0.00     0.192 HD
ENDROOT
BRANCH   3   7
ATOM      7  N   UNL d   1       4.832  -2.252  -0.357  0.00  0.00    -0.261 N 
ATOM      8  C   UNL d   1       6.122  -1.799  -0.161  0.00  0.00     0.280 C 
ATOM      9  O   UNL d   1       6.963  -2.548   0.348  0.00  0.00    -0.265 OA
ATOM     10  H   UNL d   1       4.103  -1.703  -0.816  0.00  0.00     0.190 HD
BRANCH   8  11
ATOM     11  C   UNL d   1       6.402  -0.440  -0.565  0.00  0.00     0.115 A 
ATOM     12  C   UNL d   1       7.590   0.284  -0.543  0.00  0.00     0.046 A 
ATOM     13  N   UNL d   1       7.480   1.594  -1.006  0.00  0.00    -0.298 N 
ATOM     14  C   UNL d   1       8.940  -0.155  -0.106  0.00  0.00     0.071 C 
ATOM     15  N   UNL d   1       6.249   1.889  -1.378  0.00  0.00    -0.269 N 
ATOM     16  HN  UNL d   1       8.261   2.248  -1.053  1.00  0.00     0.187 HD
ATOM     17  S   UNL d   1       5.196   0.613  -1.188  0.00  0.00     0.009 SA
ATOM     18  HN  UNL d   1       5.972   2.800  -1.743  1.00  0.00     0.195 HD
ENDBRANCH   8  11
ENDBRANCH   3   7
BRANCH   2  19
ATOM     19  C   UNL d   1       1.727  -5.965  -0.302  0.00  0.00     0.037 A 
ATOM     20  C   UNL d   1       0.677  -5.396  -1.028  0.00  0.00     0.045 A 
ATOM     21  C   UNL d   1      -0.418  -6.161  -1.462  0.00  0.00     0.050 A 
ATOM     22  C   UNL d   1      -0.475  -7.518  -1.123  0.00  0.00     0.032 A 
ATOM     23  C   UNL d   1       0.556  -8.114  -0.381  0.00  0.00     0.050 A 
ATOM     24  C   UNL d   1       1.649  -7.324   0.032  0.00  0.00     0.045 A 
BRANCH  21  25
ATOM     25  C   UNL d   1      -1.471  -5.512  -2.328  0.00  0.00     0.417 C 
ATOM     26  F   UNL d   1      -2.413  -6.387  -2.777  0.00  0.00    -0.166 F 
ATOM     27  F   UNL d   1      -2.151  -4.528  -1.680  0.00  0.00    -0.166 F 
ATOM     28  F   UNL d   1      -0.940  -4.936  -3.441  0.00  0.00    -0.166 F 
ENDBRANCH  21  25
BRANCH  23  29
ATOM     29  C   UNL d   1       0.518  -9.591  -0.065  0.00  0.00     0.417 C 
ATOM     30  F   UNL d   1      -0.521 -10.245  -0.654  0.00  0.00    -0.166 F 
ATOM     31  F   UNL d   1       1.645 -10.235  -0.478  0.00  0.00    -0.166 F 
ATOM     32  F   UNL d   1       0.410  -9.839   1.268  0.00  0.00    -0.166 F 
ENDBRANCH  23  29
ENDBRANCH   2  19
TORSDOF 5
