REMARK  7 active torsions:
REMARK  status: ('A' for Active; 'I' for Inactive)
REMARK    1  A    between atoms: N_2  and  C_1 
REMARK    2  A    between atoms: N_4  and  C_1 
REMARK    3  A    between atoms: C_3  and  N_2 
REMARK    4  A    between atoms: N_10  and  N_4 
REMARK    5  A    between atoms: C_11  and  N_4 
REMARK    6  A    between atoms: C_15  and  C_11 
REMARK    7  A    between atoms: O_14  and  C_15 
ROOT
ATOM      1  C   UNL d   1       1.062   0.357   0.207  0.00  0.00     0.189 C 
ATOM      2  S   UNL d   1       2.352   1.210   0.881  0.00  0.00    -0.039 SA
ENDROOT
BRANCH   1   3
ATOM      3  N   UNL d   1       0.497   0.637  -1.030  0.00  0.00    -0.332 N 
ATOM      4  H   UNL d   1      -0.523   0.604  -1.025  0.00  0.00     0.168 HD
BRANCH   3   5
ATOM      5  C   UNL d   1       1.120   1.212  -2.160  0.00  0.00     0.042 A 
ATOM      6  C   UNL d   1       2.411   0.800  -2.515  0.00  0.00     0.053 A 
ATOM      7  C   UNL d   1       2.997   1.249  -3.695  0.00  0.00     0.036 A 
ATOM      8 CL   UNL d   1       4.566   0.696  -4.139  0.00  0.00    -0.084 Cl
ATOM      9  C   UNL d   1       2.310   2.118  -4.536  0.00  0.00     0.024 A 
ATOM     10  C   UNL d   1       1.026   2.539  -4.187  0.00  0.00     0.011 A 
ATOM     11  C   UNL d   1       0.415   2.096  -2.998  0.00  0.00    -0.035 A 
ATOM     12  C   UNL d   1      -0.952   2.636  -2.680  0.00  0.00     0.050 C 
ENDBRANCH   3   5
ENDBRANCH   1   3
BRANCH   1  13
ATOM     13  N   UNL d   1       0.400  -0.686   0.893  0.00  0.00    -0.289 N 
BRANCH  13  14
ATOM     14  N   UNL d   1       0.661  -0.916   2.276  0.00  0.00    -0.245 NA
ATOM     15  H   UNL d   1       0.901  -0.005   2.686  0.00  0.00     0.143 HD
ATOM     16  H   UNL d   1       1.541  -1.438   2.327  0.00  0.00     0.143 HD
ENDBRANCH  13  14
BRANCH  13  17
ATOM     17  C   UNL d   1      -0.456  -1.686   0.234  0.00  0.00     0.171 C 
BRANCH  17  18
ATOM     18  C   UNL d   1      -1.931  -1.292   0.232  0.00  0.00     0.185 C 
BRANCH  18  19
ATOM     19  O   UNL d   1      -2.160  -0.171  -0.629  0.00  0.00    -0.399 OA
ATOM     20  H   UNL d   1      -3.114   0.023  -0.565  0.00  0.00     0.209 HD
ENDBRANCH  18  19
ENDBRANCH  17  18
ENDBRANCH  13  17
ENDBRANCH   1  13
TORSDOF 7
