REMARK  5 active torsions:
REMARK  status: ('A' for Active; 'I' for Inactive)
REMARK    1  A    between atoms: C_13  and  N_4 
REMARK    2  A    between atoms: C_20  and  C_13 
REMARK    3  A    between atoms: C_16  and  C_18 
REMARK    4  A    between atoms: C_18  and  C_21 
REMARK    5  A    between atoms: C_21  and  C_20 
ROOT
ATOM      1  C   UNL d   1       0.331  -0.656  -0.015  0.00  0.00     0.145 A 
ATOM      2  C   UNL d   1       0.280   0.706   0.019  0.00  0.00     0.149 A 
ATOM      3  N   UNL d   1      -0.809  -1.421  -0.026  0.00  0.00    -0.287 N 
ATOM      4  N   UNL d   1      -2.076   0.615  -0.019  0.00  0.00    -0.264 N 
ATOM      5  C   UNL d   1      -2.058  -0.795  -0.036  0.00  0.00     0.332 A 
ATOM      6  C   UNL d   1      -0.941   1.431   0.067  0.00  0.00     0.282 A 
ATOM      7  N   UNL d   1       1.612  -1.117  -0.018  0.00  0.00    -0.336 N 
ATOM      8  HN  UNL d   1       1.926  -2.088  -0.030  1.00  0.00     0.168 HD
ATOM      9  N   UNL d   1       1.585   1.108   0.012  0.00  0.00    -0.340 N 
ATOM     10  C   UNL d   1       2.353  -0.029  -0.003  0.00  0.00     0.184 A 
ATOM     11  O   UNL d   1      -3.100  -1.460  -0.049  0.00  0.00    -0.246 OA
ATOM     12  O   UNL d   1      -0.989   2.651   0.197  0.00  0.00    -0.265 OA
ATOM     13  C   UNL d   1      -0.750  -2.870  -0.017  0.00  0.00     0.163 C 
ATOM     14  C   UNL d   1       2.114   2.448   0.004  0.00  0.00     0.157 C 
ENDROOT
BRANCH   4  15
ATOM     15  C   UNL d   1      -3.373   1.288   0.052  0.00  0.00     0.137 C 
BRANCH  15  16
ATOM     16  C   UNL d   1      -3.684   2.198  -1.148  0.00  0.00     0.021 C 
BRANCH  16  17
ATOM     17  C   UNL d   1      -3.712   1.492  -2.505  0.00  0.00     0.009 C 
BRANCH  17  18
ATOM     18  C   UNL d   1      -4.809   0.436  -2.586  0.00  0.00     0.078 C 
BRANCH  18  19
ATOM     19  C   UNL d   1      -4.883  -0.244  -3.939  0.00  0.00     0.123 C 
ATOM     20  O   UNL d   1      -4.163   0.065  -4.884  0.00  0.00    -0.298 OA
ATOM     21  C   UNL d   1      -5.920  -1.331  -4.061  0.00  0.00     0.091 C 
ENDBRANCH  18  19
ENDBRANCH  17  18
ENDBRANCH  16  17
ENDBRANCH  15  16
ENDBRANCH   4  15
TORSDOF 5
