REMARK  3 active torsions:
REMARK  status: ('A' for Active; 'I' for Inactive)
REMARK    1  A    between atoms: C_2  and  C_1 
REMARK       I    between atoms: N_6  and  C_1 
REMARK    2  A    between atoms: N_3  and  N_6 
REMARK    3  A    between atoms: C_10  and  C_11 
ROOT
ATOM      1  N   UNL d   1      -1.085   0.433   1.545  0.00  0.00    -0.308 N 
ATOM      2  HN  UNL d   1      -1.571  -0.463   1.546  1.00  0.00     0.186 HD
ATOM      3  C   UNL d   1      -1.720   1.563   1.609  0.00  0.00     0.119 C 
ENDROOT
BRANCH   1   4
ATOM      4  N   UNL d   1       0.274   0.523   1.477  0.00  0.00    -0.266 N 
ATOM      5  C   UNL d   1       1.034  -0.636   1.431  0.00  0.00     0.271 C 
ATOM      6  O   UNL d   1       0.595  -1.780   1.504  0.00  0.00    -0.266 OA
ATOM      7  H   UNL d   1       0.707   1.436   1.550  0.00  0.00     0.190 HD
BRANCH   5   8
ATOM      8  C   UNL d   1       2.497  -0.442   1.316  0.00  0.00     0.049 A 
ATOM      9  C   UNL d   1       3.056   0.622   0.619  0.00  0.00     0.104 A 
ATOM     10  N   UNL d   1       4.390   0.824   0.489  0.00  0.00    -0.374 N 
ATOM     11  C   UNL d   1       5.201  -0.098   1.056  0.00  0.00     0.087 A 
ATOM     12  HN  UNL d   1       4.764   1.630  -0.011  1.00  0.00     0.164 HD
ATOM     13  C   UNL d   1       4.741  -1.205   1.752  0.00  0.00     0.018 A 
ATOM     14  C   UNL d   1       3.365  -1.379   1.881  0.00  0.00     0.020 A 
ENDBRANCH   5   8
ENDBRANCH   1   4
BRANCH   3  15
ATOM     15  C   UNL d   1      -3.200   1.635   1.683  0.00  0.00    -0.008 A 
ATOM     16  C   UNL d   1      -3.885   2.885   1.715  0.00  0.00    -0.014 A 
ATOM     17  C   UNL d   1      -5.301   2.859   1.801  0.00  0.00    -0.025 A 
ATOM     18  C   UNL d   1      -3.265   4.161   1.663  0.00  0.00     0.013 A 
ATOM     19  C   UNL d   1      -6.030   4.060   1.839  0.00  0.00     0.012 A 
ATOM     20  C   UNL d   1      -5.984   1.633   1.845  0.00  0.00     0.012 A 
ATOM     21  C   UNL d   1      -5.387   5.295   1.784  0.00  0.00     0.001 A 
ATOM     22  C   UNL d   1      -4.005   5.345   1.694  0.00  0.00     0.001 A 
ATOM     23  C   UNL d   1      -5.296   0.424   1.800  0.00  0.00     0.002 A 
ATOM     24  C   UNL d   1      -3.909   0.423   1.720  0.00  0.00     0.014 A 
ENDBRANCH   3  15
TORSDOF 3
