REMARK  2 active torsions:
REMARK  status: ('A' for Active; 'I' for Inactive)
REMARK    1  A    between atoms: C_2  and  C_1 
REMARK    2  A    between atoms: O_19  and  C_3 
ROOT
ATOM      1  C   UNL d   1      -0.586   3.332  -0.180  0.00  0.00     0.144 C 
ATOM      2  S   UNL d   1       0.369   4.415  -1.284  0.00  0.00    -0.144 SA
ATOM      3  S   UNL d   1      -0.613   3.959   1.524  0.00  0.00    -0.144 SA
ATOM      4  C   UNL d   1      -0.835   6.788  -0.469  0.00  0.00    -0.041 A 
ATOM      5  C   UNL d   1      -1.271   6.571   0.852  0.00  0.00    -0.041 A 
ATOM      6  C   UNL d   1      -0.346   8.062  -0.821  0.00  0.00     0.015 A 
ATOM      7  C   UNL d   1      -1.169   7.620   1.785  0.00  0.00     0.015 A 
ATOM      8  C   UNL d   1      -0.273   9.112   0.106  0.00  0.00    -0.056 A 
ATOM      9  C   UNL d   1      -0.673   8.883   1.431  0.00  0.00    -0.056 A 
ATOM     10  C   UNL d   1      -1.855   5.262   1.321  0.00  0.00     0.114 C 
ATOM     11  C   UNL d   1      -0.872   5.720  -1.535  0.00  0.00     0.114 C 
ATOM     12  C   UNL d   1       0.241  10.454  -0.338  0.00  0.00     0.049 C 
ATOM     13  C   UNL d   1      -0.582   9.956   2.480  0.00  0.00     0.049 C 
ENDROOT
BRANCH   1  14
ATOM     14  C   UNL d   1      -0.099   1.893  -0.222  0.00  0.00     0.002 A 
ATOM     15  C   UNL d   1       1.206   1.474   0.100  0.00  0.00     0.095 A 
ATOM     16  C   UNL d   1       1.534   0.107   0.109  0.00  0.00     0.069 A 
ATOM     17 CL   UNL d   1       3.118  -0.436   0.534  0.00  0.00    -0.081 Cl
ATOM     18  C   UNL d   1       0.583  -0.856  -0.229  0.00  0.00     0.050 A 
ATOM     19  C   UNL d   1      -0.699  -0.452  -0.572  0.00  0.00     0.036 A 
ATOM     20  C   UNL d   1      -1.042   0.901  -0.564  0.00  0.00     0.035 A 
ATOM     21 CL   UNL d   1      -1.884  -1.622  -1.003  0.00  0.00    -0.084 Cl
BRANCH  15  22
ATOM     22  O   UNL d   1       2.191   2.371   0.416  0.00  0.00    -0.358 OA
ATOM     23  H   UNL d   1       1.906   3.275   0.189  0.00  0.00     0.217 HD
ENDBRANCH  15  22
ENDBRANCH   1  14
TORSDOF 2
