REMARK  3 active torsions:
REMARK  status: ('A' for Active; 'I' for Inactive)
REMARK    1  A    between atoms: C_9  and  C_2 
REMARK    2  A    between atoms: O_16  and  C_7 
REMARK    3  A    between atoms: O_17  and  C_14 
ROOT
ATOM      1  C   UNL d   1       0.753  -0.263  -0.198  0.00  0.00     0.052 A 
ATOM      2  C   UNL d   1       2.800   1.059   0.018  0.00  0.00     0.011 A 
ATOM      3  C   UNL d   1       1.399   0.988  -0.249  0.00  0.00    -0.017 A 
ATOM      4  N   UNL d   1       1.422  -1.427  -0.051  0.00  0.00    -0.335 N 
ATOM      5  HN  UNL d   1       0.933  -2.322  -0.073  1.00  0.00     0.168 HD
ATOM      6  C   UNL d   1       3.468  -0.184   0.225  0.00  0.00     0.107 A 
ATOM      7  C   UNL d   1       2.753  -1.368   0.127  0.00  0.00     0.164 A 
ATOM      8  C   UNL d   1      -0.720  -0.391  -0.241  0.00  0.00    -0.003 A 
ATOM      9  C   UNL d   1       4.874  -0.280   0.524  0.00  0.00     0.104 C 
ATOM     10  N   UNL d   1       6.013  -0.365   0.730  0.00  0.00    -0.191 NA
ATOM     11  C   UNL d   1       0.563   2.151  -0.749  0.00  0.00     0.046 C 
ATOM     12  C   UNL d   1      -1.532   0.757  -0.277  0.00  0.00    -0.045 A 
ATOM     13  C   UNL d   1      -0.905   2.127  -0.297  0.00  0.00     0.044 C 
ATOM     14  C   UNL d   1      -1.358  -1.645  -0.154  0.00  0.00     0.014 A 
ATOM     15  C   UNL d   1      -2.932   0.638  -0.186  0.00  0.00     0.008 A 
ATOM     16  C   UNL d   1      -2.748  -1.758  -0.069  0.00  0.00     0.001 A 
ATOM     17  C   UNL d   1      -3.534  -0.613  -0.077  0.00  0.00     0.001 A 
ENDROOT
BRANCH   7  18
ATOM     18  O   UNL d   1       3.445  -2.566   0.212  0.00  0.00    -0.340 OA
ATOM     19  C   UNL d   1       2.623  -3.724   0.079  0.00  0.00     0.211 C 
ENDBRANCH   7  18
BRANCH   2  20
ATOM     20  C   UNL d   1       3.559   2.359   0.086  0.00  0.00     0.010 A 
ATOM     21  C   UNL d   1       3.162   3.459   0.897  0.00  0.00     0.079 A 
ATOM     22  C   UNL d   1       3.934   4.632   0.918  0.00  0.00     0.037 A 
ATOM     23  C   UNL d   1       5.133   4.717   0.210  0.00  0.00     0.003 A 
ATOM     24  C   UNL d   1       5.563   3.641  -0.547  0.00  0.00     0.001 A 
ATOM     25  C   UNL d   1       4.766   2.498  -0.639  0.00  0.00     0.015 A 
BRANCH  21  26
ATOM     26  O   UNL d   1       2.029   3.281   1.650  0.00  0.00    -0.355 OA
ATOM     27  C   UNL d   1       1.462   4.357   2.386  0.00  0.00     0.210 C 
ENDBRANCH  21  26
ENDBRANCH   2  20
TORSDOF 3
