REMARK  3 active torsions:
REMARK  status: ('A' for Active; 'I' for Inactive)
REMARK    1  A    between atoms: C_10  and  C_1 
REMARK    2  A    between atoms: O_16  and  C_1 
REMARK    3  A    between atoms: C_2  and  C_5 
ROOT
ATOM      1  C   UNL d   1      12.212   3.924  -0.232  0.00  0.00     0.233 C 
ATOM      2  C   UNL d   1      10.002   3.194  -0.048  0.00  0.00     0.042 C 
ATOM      3  N   UNL d   1       9.918   4.445  -0.387  0.00  0.00    -0.321 N 
ATOM      4  HN  UNL d   1       9.075   4.945  -0.668  1.00  0.00     0.180 HD
ATOM      5  C   UNL d   1      11.407   2.714   0.245  0.00  0.00     0.125 C 
ATOM      6  N   UNL d   1      11.172   4.954  -0.293  0.00  0.00    -0.198 NA
ATOM      7  H   UNL d   1      11.375   5.611  -1.050  0.00  0.00     0.150 HD
ENDROOT
BRANCH   2   8
ATOM      8  C   UNL d   1       8.845   2.279   0.105  0.00  0.00     0.028 C 
ATOM      9  S   UNL d   1       8.822   1.251   1.505  0.00  0.00    -0.111 SA
ATOM     10  C   UNL d   1       7.092   0.799   1.247  0.00  0.00     0.130 C 
ATOM     11  S   UNL d   1       5.953   1.837   2.233  0.00  0.00    -0.124 SA
ATOM     12  C   UNL d   1       6.772   1.103  -0.237  0.00  0.00     0.069 C 
ATOM     13  C   UNL d   1       4.832   1.955   0.922  0.00  0.00     0.049 C 
ATOM     14  C   UNL d   1       5.326   1.552  -0.257  0.00  0.00    -0.067 C 
ATOM     15  C   UNL d   1       4.503   1.408  -1.497  0.00  0.00     0.044 C 
ATOM     16  C   UNL d   1       7.789   2.133  -0.718  0.00  0.00    -0.055 C 
ATOM     17  C   UNL d   1       7.586   2.824  -2.027  0.00  0.00     0.046 C 
ENDBRANCH   2   8
BRANCH   1  18
ATOM     18  C   UNL d   1      13.418   4.235   0.714  0.00  0.00     0.434 C 
ATOM     19  F   UNL d   1      13.291   3.713   1.952  0.00  0.00    -0.166 F 
ATOM     20  F   UNL d   1      14.549   3.695   0.175  0.00  0.00    -0.166 F 
ATOM     21  F   UNL d   1      13.650   5.560   0.842  0.00  0.00    -0.166 F 
ENDBRANCH   1  18
BRANCH   1  22
ATOM     22  O   UNL d   1      12.653   3.661  -1.578  0.00  0.00    -0.366 OA
ATOM     23  H   UNL d   1      13.590   3.380  -1.522  0.00  0.00     0.212 HD
ENDBRANCH   1  22
TORSDOF 3
