REMARK  6 active torsions:
REMARK  status: ('A' for Active; 'I' for Inactive)
REMARK    1  A    between atoms: C_3  and  C_1 
REMARK    2  A    between atoms: C_4  and  C_1 
REMARK    3  A    between atoms: C_7  and  C_2 
REMARK    4  A    between atoms: N_6  and  C_5 
REMARK    5  A    between atoms: N_18  and  C_14 
REMARK    6  A    between atoms: N_19  and  C_15 
ROOT
ATOM      1  C   UNL d   1       1.194   0.043  -0.007  0.00  0.00    -0.015 C 
ATOM      2  C   UNL d   1       0.425  -1.061   0.123  0.00  0.00     0.024 C 
ENDROOT
BRANCH   1   3
ATOM      3  C   UNL d   1       0.387   1.297  -0.050  0.00  0.00    -0.025 A 
ATOM      4  C   UNL d   1       0.049   1.957   1.139  0.00  0.00     0.014 A 
ATOM      5  C   UNL d   1      -0.651   3.168   1.103  0.00  0.00     0.024 A 
ATOM      6  C   UNL d   1      -1.081   3.706  -0.111  0.00  0.00     0.005 A 
ATOM      7  C   UNL d   1      -0.720   3.060  -1.296  0.00  0.00     0.024 A 
ATOM      8  C   UNL d   1      -0.006   1.853  -1.269  0.00  0.00     0.014 A 
BRANCH   6   9
ATOM      9  N   UNL d   1      -1.648   4.987  -0.150  0.00  0.00    -0.303 NA
ATOM     10  H   UNL d   1      -2.196   5.168  -0.983  0.00  0.00     0.124 HD
ATOM     11  H   UNL d   1      -2.137   5.246   0.701  0.00  0.00     0.124 HD
ENDBRANCH   6   9
ENDBRANCH   1   3
BRANCH   1  12
ATOM     12  C   UNL d   1       2.692   0.067  -0.036  0.00  0.00    -0.025 A 
ATOM     13  C   UNL d   1       3.471  -0.973  -0.559  0.00  0.00     0.014 A 
ATOM     14  C   UNL d   1       4.872  -0.914  -0.546  0.00  0.00     0.024 A 
ATOM     15  C   UNL d   1       5.537   0.179  -0.000  0.00  0.00     0.005 A 
ATOM     16  C   UNL d   1       4.778   1.271   0.409  0.00  0.00     0.024 A 
ATOM     17  C   UNL d   1       3.380   1.208   0.411  0.00  0.00     0.014 A 
BRANCH  15  18
ATOM     18  N   UNL d   1       6.932   0.275  -0.082  0.00  0.00    -0.303 NA
ATOM     19  H   UNL d   1       7.330   0.922   0.593  0.00  0.00     0.124 HD
ATOM     20  H   UNL d   1       7.396  -0.629  -0.061  0.00  0.00     0.124 HD
ENDBRANCH  15  18
ENDBRANCH   1  12
BRANCH   2  21
ATOM     21  C   UNL d   1       0.801  -2.470   0.298  0.00  0.00    -0.035 A 
ATOM     22  C   UNL d   1       1.116  -2.975   1.556  0.00  0.00     0.013 A 
ATOM     23  C   UNL d   1       1.313  -4.354   1.738  0.00  0.00     0.030 A 
ATOM     24  C   UNL d   1       1.218  -5.274   0.679  0.00  0.00     0.029 A 
ATOM     25  C   UNL d   1       0.967  -4.723  -0.590  0.00  0.00     0.030 A 
ATOM     26  C   UNL d   1       0.746  -3.350  -0.780  0.00  0.00     0.013 A 
BRANCH  24  27
ATOM     27  N   UNL d   1       1.283  -6.645   0.890  0.00  0.00    -0.390 N 
ATOM     28  C   UNL d   1       2.100  -7.228   1.949  0.00  0.00     0.149 C 
ATOM     29  C   UNL d   1       0.817  -7.587  -0.123  0.00  0.00     0.149 C 
ENDBRANCH  24  27
ENDBRANCH   2  21
TORSDOF 6
