REMARK  3 active torsions:
REMARK  status: ('A' for Active; 'I' for Inactive)
REMARK    1  A    between atoms: C_8  and  C_4 
REMARK    2  A    between atoms: O_16  and  C_11 
REMARK    3  A    between atoms: O_19  and  C_14 
ROOT
ATOM      1  C   UNL d   1      -1.485   0.145   0.327  0.00  0.00     0.115 C 
ATOM      2  C   UNL d   1      -0.837  -1.131   0.661  0.00  0.00     0.302 C 
ATOM      3  C   UNL d   1      -1.091   1.363   1.047  0.00  0.00     0.302 C 
ATOM      4  C   UNL d   1      -2.407   0.123  -0.653  0.00  0.00     0.038 C 
ATOM      5  O   UNL d   1       0.336  -1.019   1.323  0.00  0.00    -0.280 OA
ATOM      6  O   UNL d   1       0.166   1.353   1.530  0.00  0.00    -0.280 OA
ATOM      7  C   UNL d   1       1.015   0.235   1.272  0.00  0.00     0.175 C 
ATOM      8  O   UNL d   1      -1.838   2.309   1.246  0.00  0.00    -0.259 OA
ATOM      9  O   UNL d   1      -1.304  -2.222   0.366  0.00  0.00    -0.259 OA
ATOM     10  C   UNL d   1       1.740   0.398  -0.068  0.00  0.00     0.080 C 
ATOM     11  C   UNL d   1       2.046   0.224   2.402  0.00  0.00     0.080 C 
ENDROOT
BRANCH   4  12
ATOM     12  C   UNL d   1      -3.113   1.285  -1.213  0.00  0.00     0.001 A 
ATOM     13  C   UNL d   1      -2.551   2.139  -2.175  0.00  0.00     0.078 A 
ATOM     14  C   UNL d   1      -3.269   3.252  -2.624  0.00  0.00     0.040 A 
ATOM     15  C   UNL d   1      -4.565   3.496  -2.162  0.00  0.00     0.039 A 
ATOM     16  C   UNL d   1      -5.144   2.631  -1.235  0.00  0.00     0.069 A 
ATOM     17  C   UNL d   1      -4.409   1.547  -0.748  0.00  0.00     0.051 A 
BRANCH  13  18
ATOM     18  O   UNL d   1      -1.278   2.010  -2.669  0.00  0.00    -0.355 OA
ATOM     19  C   UNL d   1      -1.060   0.781  -3.360  0.00  0.00     0.210 C 
ENDBRANCH  13  18
BRANCH  16  20
ATOM     20  O   UNL d   1      -6.399   2.767  -0.708  0.00  0.00    -0.356 OA
ATOM     21  C   UNL d   1      -7.349   3.412  -1.548  0.00  0.00     0.210 C 
ENDBRANCH  16  20
ENDBRANCH   4  12
TORSDOF 3
