REMARK  5 active torsions:
REMARK  status: ('A' for Active; 'I' for Inactive)
REMARK    1  A    between atoms: C_2  and  N_1 
REMARK    2  A    between atoms: C_3  and  N_1 
REMARK    3  A    between atoms: O_8  and  N_1 
REMARK    4  A    between atoms: C_4  and  C_2 
REMARK    5  A    between atoms: C_5  and  C_3 
ROOT
ATOM      1  N   UNL d   1       1.042   0.103   0.038  0.00  0.00    -0.191 NA
ENDROOT
BRANCH   1   2
ATOM      2  C   UNL d   1       0.735   0.762  -1.245  0.00  0.00     0.159 C 
BRANCH   2   3
ATOM      3  C   UNL d   1       1.298   2.168  -1.321  0.00  0.00    -0.043 A 
ATOM      4  C   UNL d   1       2.249   2.504  -2.298  0.00  0.00     0.010 A 
ATOM      5  C   UNL d   1       2.761   3.802  -2.372  0.00  0.00     0.024 A 
ATOM      6  C   UNL d   1       2.326   4.770  -1.469  0.00  0.00     0.034 A 
ATOM      7  C   UNL d   1       1.386   4.453  -0.492  0.00  0.00     0.024 A 
ATOM      8 CL   UNL d   1       2.956   6.369  -1.561  0.00  0.00    -0.084 Cl
ATOM      9  C   UNL d   1       0.873   3.155  -0.419  0.00  0.00     0.010 A 
ENDBRANCH   2   3
ENDBRANCH   1   2
BRANCH   1  10
ATOM     10  C   UNL d   1       0.448  -1.245   0.061  0.00  0.00     0.159 C 
BRANCH  10  11
ATOM     11  C   UNL d   1       0.695  -1.985   1.362  0.00  0.00    -0.043 A 
ATOM     12  C   UNL d   1       0.202  -1.489   2.579  0.00  0.00     0.010 A 
ATOM     13  C   UNL d   1       0.388  -2.206   3.765  0.00  0.00     0.024 A 
ATOM     14  C   UNL d   1       1.068  -3.421   3.741  0.00  0.00     0.034 A 
ATOM     15  C   UNL d   1       1.576  -3.922   2.544  0.00  0.00     0.024 A 
ATOM     16 CL   UNL d   1       1.275  -4.317   5.196  0.00  0.00    -0.084 Cl
ATOM     17  C   UNL d   1       1.389  -3.205   1.359  0.00  0.00     0.010 A 
ENDBRANCH  10  11
ENDBRANCH   1  10
BRANCH   1  18
ATOM     18  O   UNL d   1       2.488  -0.105   0.029  0.00  0.00    -0.312 OA
ATOM     19  H   UNL d   1       2.759   0.458   0.780  0.00  0.00     0.237 HD
ENDBRANCH   1  18
TORSDOF 5
