REMARK  3 active torsions:
REMARK  status: ('A' for Active; 'I' for Inactive)
REMARK    1  A    between atoms: N_2  and  C_5 
REMARK    2  A    between atoms: N_7  and  N_2 
REMARK    3  A    between atoms: C_4  and  N_7 
ROOT
ATOM      1  C   UNL d   1      -0.011   0.718   0.039  0.00  0.00     0.006 A 
ATOM      2  C   UNL d   1      -1.320   1.455   0.063  0.00  0.00     0.038 C 
ATOM      3  C   UNL d   1       0.056  -0.683  -0.052  0.00  0.00     0.012 A 
ATOM      4  S   UNL d   1      -1.360  -1.767  -0.120  0.00  0.00    -0.129 SA
ATOM      5  C   UNL d   1       1.178   1.466   0.101  0.00  0.00     0.038 A 
ATOM      6  C   UNL d   1       1.313  -1.309  -0.093  0.00  0.00     0.021 A 
ATOM      7  C   UNL d   1       2.415   0.826   0.065  0.00  0.00     0.035 A 
ATOM      8  C   UNL d   1      -2.552   0.672  -0.359  0.00  0.00     0.070 C 
ATOM      9  C   UNL d   1      -2.648  -0.621   0.423  0.00  0.00     0.085 C 
ATOM     10  C   UNL d   1       2.489  -0.559  -0.033  0.00  0.00     0.025 A 
ATOM     11 CL   UNL d   1       3.862   1.752   0.136  0.00  0.00    -0.084 Cl
ENDROOT
BRANCH   2  12
ATOM     12  N   UNL d   1      -1.306   2.709   0.420  0.00  0.00    -0.302 N 
ATOM     13  HN  UNL d   1      -0.426   3.149   0.684  1.00  0.00     0.186 HD
BRANCH  12  14
ATOM     14  N   UNL d   1      -2.458   3.436   0.442  0.00  0.00    -0.276 N 
ATOM     15  H   UNL d   1      -3.346   3.051   0.149  0.00  0.00     0.189 HD
BRANCH  14  16
ATOM     16  C   UNL d   1      -2.468   4.742   0.846  0.00  0.00     0.184 C 
ATOM     17  S   UNL d   1      -3.862   5.639   0.887  0.00  0.00    -0.040 SA
ATOM     18  N   UNL d   1      -1.273   5.256   1.213  0.00  0.00    -0.375 N 
ATOM     19  H   UNL d   1      -0.465   4.652   1.138  0.00  0.00     0.158 HD
ATOM     20  H   UNL d   1      -1.178   6.217   1.506  0.00  0.00     0.158 HD
ENDBRANCH  14  16
ENDBRANCH  12  14
ENDBRANCH   2  12
TORSDOF 3
