REMARK  4 active torsions:
REMARK  status: ('A' for Active; 'I' for Inactive)
REMARK    1  A    between atoms: C_2  and  S_1 
REMARK    2  A    between atoms: C_5  and  S_1 
REMARK    3  A    between atoms: C_6  and  C_2 
REMARK    4  A    between atoms: C_7  and  C_6 
ROOT
ATOM      1  S   UNL d   1       1.042  -0.014   0.011  0.00  0.00     0.175 S 
ATOM      2  O   UNL d   1       0.621  -0.853   1.118  0.00  0.00    -0.223 OA
ATOM      3  O   UNL d   1       0.589   1.362  -0.083  0.00  0.00    -0.223 OA
ENDROOT
BRANCH   1   4
ATOM      4  C   UNL d   1       0.599  -0.840  -1.496  0.00  0.00     0.153 C 
BRANCH   4   5
ATOM      5  C   UNL d   1      -0.909  -1.031  -1.575  0.00  0.00     0.093 C 
BRANCH   5   6
ATOM      6  C   UNL d   1      -1.312  -1.714  -2.862  0.00  0.00     0.123 C 
ATOM      7  O   UNL d   1      -0.483  -2.039  -3.713  0.00  0.00    -0.298 OA
ATOM      8  C   UNL d   1      -2.778  -1.988  -3.068  0.00  0.00     0.091 C 
ENDBRANCH   5   6
ENDBRANCH   4   5
ENDBRANCH   1   4
BRANCH   1   9
ATOM      9  C   UNL d   1       2.819   0.005   0.003  0.00  0.00     0.059 A 
ATOM     10  C   UNL d   1       3.496   1.077  -0.585  0.00  0.00     0.023 A 
ATOM     11  C   UNL d   1       4.889   1.130  -0.516  0.00  0.00     0.002 A 
ATOM     12  C   UNL d   1       5.597   0.124   0.144  0.00  0.00     0.000 A 
ATOM     13  C   UNL d   1       4.915  -0.943   0.733  0.00  0.00     0.002 A 
ATOM     14  C   UNL d   1       3.523  -1.004   0.667  0.00  0.00     0.023 A 
ENDBRANCH   1   9
TORSDOF 4
