REMARK  2 active torsions:
REMARK  status: ('A' for Active; 'I' for Inactive)
REMARK    1  A    between atoms: C_6  and  N_1 
REMARK    2  A    between atoms: C_15  and  C_9 
ROOT
ATOM      1  N   UNL d   1      -2.345  -0.130  -0.433  0.00  0.00    -0.251 N 
ATOM      2  C   UNL d   1      -1.527  -1.236  -0.728  0.00  0.00     0.236 C 
ATOM      3  C   UNL d   1      -1.642   0.844   0.307  0.00  0.00     0.236 C 
ATOM      4  C   UNL d   1      -0.351  -1.012   0.155  0.00  0.00     0.100 C 
ATOM      5  C   UNL d   1      -0.212   0.511   0.032  0.00  0.00     0.100 C 
ATOM      6  C   UNL d   1       1.084  -1.482   0.291  0.00  0.00     0.022 C 
ATOM      7  C   UNL d   1       1.117   0.742   0.764  0.00  0.00     0.022 C 
ATOM      8  C   UNL d   1       2.141   0.482  -0.337  0.00  0.00    -0.025 C 
ATOM      9  C   UNL d   1       2.057  -0.822  -0.664  0.00  0.00    -0.025 C 
ATOM     10  C   UNL d   1       1.400  -0.575   1.520  0.00  0.00     0.018 C 
ATOM     11  O   UNL d   1      -2.059   1.720   1.045  0.00  0.00    -0.272 OA
ATOM     12  O   UNL d   1      -1.762  -2.243  -1.371  0.00  0.00    -0.272 OA
ENDROOT
BRANCH   1  13
ATOM     13  C   UNL d   1      -3.758  -0.140  -0.524  0.00  0.00     0.059 A 
ATOM     14  C   UNL d   1      -4.514   1.009  -0.844  0.00  0.00     0.037 A 
ATOM     15  C   UNL d   1      -5.918   0.957  -0.768  0.00  0.00     0.017 A 
ATOM     16  C   UNL d   1      -6.568  -0.215  -0.379  0.00  0.00     0.001 A 
ATOM     17  C   UNL d   1      -5.830  -1.358  -0.101  0.00  0.00     0.002 A 
ATOM     18  C   UNL d   1      -4.438  -1.325  -0.188  0.00  0.00     0.031 A 
BRANCH  14  19
ATOM     19  C   UNL d   1      -3.868   2.231  -1.417  0.00  0.00     0.158 C 
ATOM     20  O   UNL d   1      -2.802   2.140  -2.021  0.00  0.00    -0.293 OA
ATOM     21  C   UNL d   1      -4.594   3.551  -1.323  0.00  0.00     0.097 C 
ENDBRANCH  14  19
ENDBRANCH   1  13
TORSDOF 2
