REMARK  2 active torsions:
REMARK  status: ('A' for Active; 'I' for Inactive)
REMARK    1  A    between atoms: C_5  and  S_1 
REMARK    2  A    between atoms: O_13  and  N_3 
ROOT
ATOM      1  C   UNL d   1       0.590  -3.639  -1.534  0.00  0.00     0.073 A 
ATOM      2  N   UNL d   1       0.815  -4.996  -1.507  0.00  0.00    -0.235 N 
ATOM      3  C   UNL d   1       0.930  -2.617  -0.632  0.00  0.00     0.056 A 
ATOM      4  C   UNL d   1       0.577  -1.306  -0.984  0.00  0.00     0.061 A 
ATOM      5  C   UNL d   1       0.305  -5.603  -2.613  0.00  0.00     0.124 A 
ATOM      6  C   UNL d   1      -0.271  -4.627  -3.395  0.00  0.00     0.033 A 
ATOM      7  C   UNL d   1      -0.098  -3.381  -2.727  0.00  0.00    -0.005 A 
ATOM      8  C   UNL d   1      -0.126  -1.022  -2.154  0.00  0.00     0.024 A 
ATOM      9  C   UNL d   1      -0.467  -2.056  -3.034  0.00  0.00     0.015 A 
ENDROOT
BRANCH   4  10
ATOM     10  S   UNL d   1       1.020   0.021   0.119  0.00  0.00     0.172 S 
ATOM     11  O   UNL d   1       1.175  -0.545   1.446  0.00  0.00    -0.223 OA
ATOM     12  O   UNL d   1       0.095   1.117  -0.122  0.00  0.00    -0.223 OA
ATOM     13  C   UNL d   1       2.622   0.513  -0.463  0.00  0.00     0.167 C 
ENDBRANCH   4  10
BRANCH   2  14
ATOM     14  O   UNL d   1       1.520  -5.689  -0.533  0.00  0.00    -0.283 OA
ATOM     15  H   UNL d   1       1.489  -5.056   0.201  0.00  0.00     0.245 HD
ENDBRANCH   2  14
TORSDOF 2
