REMARK  5 active torsions:
REMARK  status: ('A' for Active; 'I' for Inactive)
REMARK       I    between atoms: N_2  and  C_1 
REMARK    1  A    between atoms: C_3  and  C_1 
REMARK    2  A    between atoms: C_4  and  C_10 
REMARK    3  A    between atoms: O_17  and  C_4 
REMARK    4  A    between atoms: O_18  and  C_6 
REMARK    5  A    between atoms: O_19  and  C_11 
ROOT
ATOM      1  C   UNL d   1       0.833  -0.118   0.005  0.00  0.00     0.253 C 
ATOM      2  N   UNL d   1       0.058  -1.205   0.419  0.00  0.00    -0.348 N 
ATOM      3  O   UNL d   1       2.061  -0.120   0.031  0.00  0.00    -0.267 OA
ATOM      4  C   UNL d   1       0.734  -2.412   0.883  0.00  0.00     0.127 C 
ATOM      5  C   UNL d   1      -1.376  -1.183   0.712  0.00  0.00     0.127 C 
ATOM      6  C   UNL d   1      -1.436  -3.694   0.406  0.00  0.00     0.087 C 
ATOM      7  C   UNL d   1       0.096  -3.662   0.272  0.00  0.00     0.035 C 
ATOM      8  C   UNL d   1      -2.049  -2.347  -0.017  0.00  0.00     0.035 C 
ENDROOT
BRANCH   1   9
ATOM      9  C   UNL d   1       0.163   1.109  -0.507  0.00  0.00     0.035 A 
ATOM     10  C   UNL d   1      -0.918   1.032  -1.393  0.00  0.00     0.056 A 
ATOM     11  C   UNL d   1      -1.643   2.176  -1.753  0.00  0.00     0.102 A 
ATOM     12  C   UNL d   1      -1.178   3.434  -1.332  0.00  0.00     0.101 A 
ATOM     13  C   UNL d   1      -0.023   3.508  -0.534  0.00  0.00     0.040 A 
ATOM     14  C   UNL d   1       0.639   2.356  -0.110  0.00  0.00     0.020 A 
BRANCH  11  15
ATOM     15  O   UNL d   1      -2.784   2.101  -2.509  0.00  0.00    -0.353 OA
ATOM     16  C   UNL d   1      -3.450   0.843  -2.569  0.00  0.00     0.210 C 
ENDBRANCH  11  15
BRANCH  12  17
ATOM     17  O   UNL d   1      -1.704   4.673  -1.589  0.00  0.00    -0.353 OA
ATOM     18  C   UNL d   1      -2.921   4.767  -2.313  0.00  0.00     0.210 C 
ENDBRANCH  12  17
ENDBRANCH   1   9
BRANCH   6  19
ATOM     19  C   UNL d   1      -1.894  -4.071   1.808  0.00  0.00     0.143 C 
ATOM     20  O   UNL d   1      -2.580  -3.365   2.530  0.00  0.00    -0.650 OA
BRANCH  19  21
ATOM     21  O   UNL d   1      -1.516  -5.313   2.186  0.00  0.00    -0.776 OA
ATOM     22  H   UNL d   1      -1.030  -5.815   1.508  0.00  0.00     0.167 HD
ENDBRANCH  19  21
ENDBRANCH   6  19
TORSDOF 5
