REMARK  8 active torsions:
REMARK  status: ('A' for Active; 'I' for Inactive)
REMARK    1  A    between atoms: C_1  and  O_9 
REMARK    2  A    between atoms: C_2  and  O_19 
REMARK    3  A    between atoms: C_3  and  O_20 
REMARK    4  A    between atoms: C_5  and  O_21 
REMARK    5  A    between atoms: C_6  and  C_23 
REMARK    6  A    between atoms: C_10  and  O_9 
REMARK    7  A    between atoms: O_22  and  C_14 
REMARK    8  A    between atoms: O_24  and  C_23 
ROOT
ATOM      1  C   UNL d   1       1.072   1.351  -0.164  0.00  0.00     0.298 C 
ATOM      2  C   UNL d   1       1.063  -0.072   0.436  0.00  0.00     0.205 C 
ATOM      3  C   UNL d   1      -0.168  -0.803  -0.101  0.00  0.00     0.183 C 
ATOM      4  O   UNL d   1      -0.103   2.036   0.317  0.00  0.00    -0.348 OA
ATOM      5  C   UNL d   1      -1.458  -0.018   0.151  0.00  0.00     0.180 C 
ATOM      6  C   UNL d   1      -1.306   1.462  -0.230  0.00  0.00     0.179 C 
ENDROOT
BRANCH   1   7
ATOM      7  O   UNL d   1       2.236   2.052   0.276  0.00  0.00    -0.315 OA
BRANCH   7   8
ATOM      8  C   UNL d   1       3.151   2.441  -0.670  0.00  0.00     0.106 A 
ATOM      9  C   UNL d   1       3.491   1.767  -1.852  0.00  0.00     0.101 A 
ATOM     10  C   UNL d   1       4.476   2.276  -2.705  0.00  0.00     0.077 A 
ATOM     11  C   UNL d   1       5.129   3.457  -2.352  0.00  0.00     0.092 A 
ATOM     12  C   UNL d   1       4.828   4.141  -1.180  0.00  0.00     0.001 A 
ATOM     13  O   UNL d   1       6.126   3.922  -3.229  0.00  0.00    -0.275 OA
ATOM     14  C   UNL d   1       3.841   3.620  -0.337  0.00  0.00     0.054 A 
ATOM     15  C   UNL d   1       5.553   5.361  -0.870  0.00  0.00     0.020 A 
ATOM     16  C   UNL d   1       6.501   5.797  -1.704  0.00  0.00     0.083 A 
ATOM     17  C   UNL d   1       6.853   5.076  -2.950  0.00  0.00     0.288 A 
ATOM     18  O   UNL d   1       7.743   5.498  -3.683  0.00  0.00    -0.260 OA
BRANCH   9  19
ATOM     19  O   UNL d   1       2.899   0.574  -2.180  0.00  0.00    -0.358 OA
ATOM     20  H   UNL d   1       3.173   0.338  -3.087  0.00  0.00     0.217 HD
ENDBRANCH   9  19
ENDBRANCH   7   8
ENDBRANCH   1   7
BRANCH   2  21
ATOM     21  O   UNL d   1       2.219  -0.865   0.130  0.00  0.00    -0.388 OA
ATOM     22  H   UNL d   1       2.561  -0.559  -0.734  0.00  0.00     0.210 HD
ENDBRANCH   2  21
BRANCH   3  23
ATOM     23  O   UNL d   1      -0.328  -2.106   0.487  0.00  0.00    -0.390 OA
ATOM     24  H   UNL d   1       0.464  -2.273   1.035  0.00  0.00     0.210 HD
ENDBRANCH   3  23
BRANCH   6  25
ATOM     25  C   UNL d   1      -2.495   2.292   0.274  0.00  0.00     0.198 C 
BRANCH  25  26
ATOM     26  O   UNL d   1      -2.531   2.317   1.702  0.00  0.00    -0.398 OA
ATOM     27  H   UNL d   1      -1.656   2.644   1.984  0.00  0.00     0.209 HD
ENDBRANCH  25  26
ENDBRANCH   6  25
BRANCH   5  28
ATOM     28  O   UNL d   1      -2.498  -0.619  -0.633  0.00  0.00    -0.390 OA
ATOM     29  H   UNL d   1      -2.374  -1.586  -0.536  0.00  0.00     0.210 HD
ENDBRANCH   5  28
TORSDOF 8
