REMARK  9 active torsions:
REMARK  status: ('A' for Active; 'I' for Inactive)
REMARK    1  A    between atoms: N_2  and  C_1 
REMARK    2  A    between atoms: C_3  and  C_1 
REMARK    3  A    between atoms: C_5  and  C_1 
REMARK    4  A    between atoms: O_6  and  C_1 
REMARK       I    between atoms: C_4  and  N_2 
REMARK    5  A    between atoms: C_8  and  C_4 
REMARK    6  A    between atoms: O_14  and  C_5 
REMARK    7  A    between atoms: C_13  and  O_6 
REMARK    8  A    between atoms: C_16  and  C_13 
REMARK    9  A    between atoms: C_24  and  O_14 
ROOT
ATOM      1  C   UNL d   1       0.866  -0.035   0.023  0.00  0.00     0.327 C 
ENDROOT
BRANCH   1   2
ATOM      2  N   UNL d   1       0.303  -1.402   0.148  0.00  0.00    -0.309 N 
ATOM      3  C   UNL d   1       0.024  -1.971   1.358  0.00  0.00     0.254 C 
ATOM      4  O   UNL d   1       0.236  -1.400   2.418  0.00  0.00    -0.268 OA
ATOM      5  H   UNL d   1      -0.017  -1.842  -0.706  0.00  0.00     0.166 HD
BRANCH   3   6
ATOM      6  C   UNL d   1      -0.531  -3.335   1.357  0.00  0.00     0.032 A 
ATOM      7  C   UNL d   1      -0.080  -4.314   0.468  0.00  0.00     0.017 A 
ATOM      8  C   UNL d   1      -0.563  -5.623   0.578  0.00  0.00     0.001 A 
ATOM      9  C   UNL d   1      -1.484  -5.949   1.573  0.00  0.00     0.000 A 
ATOM     10  C   UNL d   1      -1.942  -4.971   2.454  0.00  0.00     0.001 A 
ATOM     11  C   UNL d   1      -1.461  -3.665   2.353  0.00  0.00     0.017 A 
ENDBRANCH   3   6
ENDBRANCH   1   2
BRANCH   1  12
ATOM     12  C   UNL d   1       0.222   1.121   0.865  0.00  0.00     0.448 C 
ATOM     13  F   UNL d   1      -0.903   0.737   1.517  0.00  0.00    -0.166 F 
ATOM     14  F   UNL d   1       1.075   1.620   1.796  0.00  0.00    -0.166 F 
ATOM     15  F   UNL d   1      -0.151   2.185   0.105  0.00  0.00    -0.166 F 
ENDBRANCH   1  12
BRANCH   1  16
ATOM     16  C   UNL d   1       0.535   0.365  -1.431  0.00  0.00     0.325 C 
ATOM     17  O   UNL d   1      -0.405  -0.110  -2.071  0.00  0.00    -0.259 OA
BRANCH  16  18
ATOM     18  O   UNL d   1       1.464   1.218  -1.951  0.00  0.00    -0.318 OA
BRANCH  18  19
ATOM     19  C   UNL d   1       1.514   1.289  -3.381  0.00  0.00     0.174 C 
ATOM     20  C   UNL d   1       2.308   0.101  -3.901  0.00  0.00     0.034 C 
ENDBRANCH  18  19
ENDBRANCH  16  18
ENDBRANCH   1  16
BRANCH   1  21
ATOM     21  O   UNL d   1       2.306  -0.152   0.055  0.00  0.00    -0.341 OA
BRANCH  21  22
ATOM     22  C   UNL d   1       2.871  -0.595   1.281  0.00  0.00     0.210 C 
BRANCH  22  23
ATOM     23  C   UNL d   1       4.373  -0.528   1.156  0.00  0.00    -0.034 A 
ATOM     24  C   UNL d   1       5.075   0.608   1.585  0.00  0.00     0.012 A 
ATOM     25  C   UNL d   1       6.466   0.654   1.482  0.00  0.00     0.043 A 
ATOM     26  C   UNL d   1       7.152  -0.427   0.941  0.00  0.00     0.116 A 
ATOM     27  C   UNL d   1       6.474  -1.555   0.497  0.00  0.00     0.043 A 
ATOM     28  F   UNL d   1       8.488  -0.381   0.847  0.00  0.00    -0.206 F 
ATOM     29  C   UNL d   1       5.084  -1.604   0.598  0.00  0.00     0.012 A 
ENDBRANCH  22  23
ENDBRANCH  21  22
ENDBRANCH   1  21
TORSDOF 9
