REMARK  3 active torsions:
REMARK  status: ('A' for Active; 'I' for Inactive)
REMARK    1  A    between atoms: C_11  and  C_4 
REMARK    2  A    between atoms: C_7  and  C_13 
REMARK    3  A    between atoms: O_21  and  C_7 
ROOT
ATOM      1  N   UNL d   1      -0.913  -0.517   0.056  0.00  0.00    -0.322 N 
ATOM      2  C   UNL d   1      -1.740   0.582   0.058  0.00  0.00     0.044 A 
ATOM      3  N   UNL d   1       0.298   2.021   0.185  0.00  0.00    -0.374 N 
ATOM      4  C   UNL d   1      -1.151   1.954   0.027  0.00  0.00     0.165 C 
ATOM      5  C   UNL d   1       1.060   0.864   0.039  0.00  0.00     0.057 A 
ATOM      6  C   UNL d   1       0.499  -0.424   0.032  0.00  0.00     0.065 A 
ATOM      7  C   UNL d   1      -1.704  -1.647   0.052  0.00  0.00     0.097 A 
ATOM      8  C   UNL d   1      -3.052   0.149   0.072  0.00  0.00     0.029 A 
ATOM      9  C   UNL d   1       1.307  -1.566  -0.016  0.00  0.00     0.033 A 
ATOM     10  C   UNL d   1      -3.027  -1.262   0.060  0.00  0.00     0.020 A 
ATOM     11  C   UNL d   1       2.459   0.971   0.041  0.00  0.00     0.038 A 
ATOM     12  C   UNL d   1       2.697  -1.430  -0.039  0.00  0.00     0.009 A 
ATOM     13  C   UNL d   1       3.284  -0.162  -0.005  0.00  0.00    -0.060 A 
ATOM     14  C   UNL d   1       4.776   0.001  -0.008  0.00  0.00     0.048 C 
ATOM     15  H   UNL d   1       0.721   2.863  -0.187  0.00  0.00     0.160 HD
ENDROOT
BRANCH   4  16
ATOM     16  C   UNL d   1      -1.556   2.711  -1.237  0.00  0.00    -0.030 A 
ATOM     17  C   UNL d   1      -2.280   3.909  -1.140  0.00  0.00     0.011 A 
ATOM     18  C   UNL d   1      -2.733   4.560  -2.290  0.00  0.00     0.019 A 
ATOM     19  C   UNL d   1      -2.469   4.023  -3.555  0.00  0.00     0.037 A 
ATOM     20  C   UNL d   1      -1.687   2.868  -3.668  0.00  0.00     0.019 A 
ATOM     21  C   UNL d   1      -1.239   2.216  -2.515  0.00  0.00     0.011 A 
BRANCH  19  22
ATOM     22  C   UNL d   1      -3.026   4.726  -4.739  0.00  0.00     0.176 C 
ATOM     23  O   UNL d   1      -3.251   5.924  -4.751  0.00  0.00    -0.646 OA
BRANCH  22  24
ATOM     24  O   UNL d   1      -3.317   3.913  -5.777  0.00  0.00    -0.773 OA
ATOM     25  H   UNL d   1      -3.268   2.959  -5.584  0.00  0.00     0.167 HD
ENDBRANCH  22  24
ENDBRANCH  19  22
ENDBRANCH   4  16
TORSDOF 3
