REMARK  1 active torsions:
REMARK  status: ('A' for Active; 'I' for Inactive)
REMARK    1  A    between atoms: C_4  and  N_1 
ROOT
ATOM      1  N   UNL d   1       2.604   0.023   0.204  0.00  0.00    -0.252 N 
ATOM      2  C   UNL d   1       1.960   1.045  -0.485  0.00  0.00     0.232 C 
ATOM      3  C   UNL d   1       1.902  -1.162   0.395  0.00  0.00     0.232 C 
ATOM      4  C   UNL d   1       0.587   1.369   0.048  0.00  0.00     0.113 C 
ATOM      5  C   UNL d   1       0.510  -0.948   0.953  0.00  0.00     0.113 C 
ATOM      6  C   UNL d   1      -0.285   0.130   0.210  0.00  0.00    -0.024 C 
ATOM      7  O   UNL d   1       2.435   1.696  -1.414  0.00  0.00    -0.273 OA
ATOM      8  O   UNL d   1       2.319  -2.303   0.197  0.00  0.00    -0.273 OA
ATOM      9  C   UNL d   1      -0.796  -0.390  -1.153  0.00  0.00     0.010 C 
ATOM     10  C   UNL d   1      -1.566   0.485   1.009  0.00  0.00     0.010 C 
ATOM     11  C   UNL d   1      -2.735   0.253   0.062  0.00  0.00     0.001 C 
ATOM     12  C   UNL d   1      -2.232  -0.819  -0.885  0.00  0.00     0.001 C 
ENDROOT
BRANCH   1  13
ATOM     13  C   UNL d   1       4.014   0.134   0.468  0.00  0.00     0.045 A 
ATOM     14  C   UNL d   1       4.593   1.417   0.541  0.00  0.00     0.038 A 
ATOM     15  C   UNL d   1       5.908   1.634   0.987  0.00  0.00    -0.043 A 
ATOM     16  C   UNL d   1       6.397   3.050   1.114  0.00  0.00     0.049 C 
ATOM     17  C   UNL d   1       6.684   0.524   1.329  0.00  0.00     0.017 A 
ATOM     18  C   UNL d   1       6.143  -0.760   1.248  0.00  0.00     0.022 A 
ATOM     19 BR   UNL d   1       8.470   0.698   1.942  0.00  0.00    -0.051 Br
ATOM     20  C   UNL d   1       4.816  -0.951   0.839  0.00  0.00     0.031 A 
ENDBRANCH   1  13
TORSDOF 1
