REMARK  6 active torsions:
REMARK  status: ('A' for Active; 'I' for Inactive)
REMARK    1  A    between atoms: C_7  and  C_1 
REMARK    2  A    between atoms: O_13  and  C_7 
REMARK    3  A    between atoms: N_8  and  N_10 
REMARK    4  A    between atoms: C_14  and  C_12 
REMARK    5  A    between atoms: C_22  and  O_13 
REMARK    6  A    between atoms: O_20  and  C_15 
ROOT
ATOM      1  C   UNL d   1      -0.091   1.373   0.041  0.00  0.00     0.109 A 
ATOM      2  C   UNL d   1      -1.390   0.907   0.045  0.00  0.00     0.153 A 
ATOM      3  N   UNL d   1      -0.048  -0.927   0.016  0.00  0.00    -0.302 N 
ATOM      4  HN  UNL d   1       0.261  -1.899   0.009  1.00  0.00     0.186 HD
ATOM      5  N   UNL d   1      -1.303  -0.455   0.013  0.00  0.00    -0.283 N 
ATOM      6  C   UNL d   1       0.703   0.183   0.029  0.00  0.00     0.042 A 
ATOM      7  N   UNL d   1      -2.608   1.496   0.069  0.00  0.00    -0.284 N 
ATOM      8  C   UNL d   1       2.182   0.050   0.011  0.00  0.00     0.071 C 
ATOM      9  H   UNL d   1      -2.089  -1.092  -0.016  0.00  0.00     0.188 HD
ATOM     10  H   UNL d   1      -2.670   2.520   0.023  0.00  0.00     0.188 HD
ENDROOT
BRANCH   1  11
ATOM     11  C   UNL d   1       0.307   2.762  -0.004  0.00  0.00     0.299 C 
ATOM     12  O   UNL d   1      -0.492   3.692  -0.062  0.00  0.00    -0.259 OA
BRANCH  11  13
ATOM     13  O   UNL d   1       1.662   2.908  -0.068  0.00  0.00    -0.318 OA
BRANCH  13  14
ATOM     14  C   UNL d   1       2.130   4.155  -0.595  0.00  0.00     0.174 C 
ATOM     15  C   UNL d   1       2.194   4.030  -2.106  0.00  0.00     0.034 C 
ENDBRANCH  13  14
ENDBRANCH  11  13
ENDBRANCH   1  11
BRANCH   7  16
ATOM     16  N   UNL d   1      -3.719   0.739  -0.098  0.00  0.00    -0.309 N 
ATOM     17  C   UNL d   1      -4.829   1.220   0.360  0.00  0.00     0.118 C 
ATOM     18  HN  UNL d   1      -3.682  -0.168  -0.563  1.00  0.00     0.186 HD
BRANCH  17  19
ATOM     19  C   UNL d   1      -6.074   0.431   0.239  0.00  0.00    -0.019 A 
ATOM     20  C   UNL d   1      -6.070  -0.768  -0.484  0.00  0.00     0.015 A 
ATOM     21  C   UNL d   1      -7.232  -1.531  -0.580  0.00  0.00     0.037 A 
ATOM     22  C   UNL d   1      -8.389  -1.093   0.050  0.00  0.00     0.065 A 
ATOM     23  C   UNL d   1      -8.405   0.099   0.771  0.00  0.00     0.037 A 
ATOM     24  C   UNL d   1      -7.243   0.868   0.870  0.00  0.00     0.015 A 
BRANCH  22  25
ATOM     25  O   UNL d   1      -9.499  -1.877  -0.067  0.00  0.00    -0.361 OA
ATOM     26  H   UNL d   1     -10.228  -1.467   0.425  0.00  0.00     0.217 HD
ENDBRANCH  22  25
ENDBRANCH  17  19
ENDBRANCH   7  16
TORSDOF 6
