REMARK  4 active torsions:
REMARK  status: ('A' for Active; 'I' for Inactive)
REMARK    1  A    between atoms: N_7  and  C_5 
REMARK    2  A    between atoms: C_10  and  C_6 
REMARK    3  A    between atoms: C_8  and  N_7 
REMARK    4  A    between atoms: O_14  and  C_13 
ROOT
ATOM      1  N   UNL d   1      -1.070  -0.626  -0.144  0.00  0.00    -0.298 N 
ATOM      2  HN  UNL d   1      -1.994  -1.042  -0.264  1.00  0.00     0.187 HD
ATOM      3  N   UNL d   1      -0.943   0.747  -0.063  0.00  0.00    -0.285 N 
ATOM      4  HN  UNL d   1      -1.779   1.329  -0.126  1.00  0.00     0.188 HD
ATOM      5  C   UNL d   1       0.257   1.334   0.098  0.00  0.00     0.120 A 
ATOM      6  C   UNL d   1       0.015  -1.421  -0.067  0.00  0.00     0.058 A 
ATOM      7  C   UNL d   1       1.276  -0.846   0.023  0.00  0.00     0.035 A 
ATOM      8  C   UNL d   1       1.397   0.544   0.106  0.00  0.00     0.052 A 
ENDROOT
BRANCH   5   9
ATOM      9  N   UNL d   1       0.389   2.716   0.359  0.00  0.00    -0.341 N 
ATOM     10  H   UNL d   1       1.097   3.139  -0.228  0.00  0.00     0.167 HD
BRANCH   9  11
ATOM     11  C   UNL d   1      -0.614   3.622   0.776  0.00  0.00     0.036 A 
ATOM     12  C   UNL d   1      -1.802   3.197   1.389  0.00  0.00     0.066 A 
ATOM     13  C   UNL d   1      -2.762   4.104   1.842  0.00  0.00     0.070 A 
ATOM     14  C   UNL d   1      -2.510   5.469   1.728  0.00  0.00     0.037 A 
ATOM     15  C   UNL d   1      -1.314   5.919   1.170  0.00  0.00     0.005 A 
ATOM     16  C   UNL d   1      -0.370   5.000   0.703  0.00  0.00     0.029 A 
BRANCH  13  17
ATOM     17  O   UNL d   1      -3.959   3.773   2.420  0.00  0.00    -0.356 OA
ATOM     18  C   UNL d   1      -4.290   2.388   2.442  0.00  0.00     0.210 C 
ENDBRANCH  13  17
ENDBRANCH   9  11
ENDBRANCH   5   9
BRANCH   6  19
ATOM     19  C   UNL d   1      -0.243  -2.873  -0.028  0.00  0.00    -0.008 A 
ATOM     20  C   UNL d   1      -1.389  -3.421  -0.636  0.00  0.00     0.014 A 
ATOM     21  C   UNL d   1      -1.665  -4.790  -0.574  0.00  0.00     0.001 A 
ATOM     22  C   UNL d   1      -0.800  -5.645   0.102  0.00  0.00     0.000 A 
ATOM     23  C   UNL d   1       0.336  -5.130   0.719  0.00  0.00     0.001 A 
ATOM     24  C   UNL d   1       0.609  -3.760   0.656  0.00  0.00     0.014 A 
ENDBRANCH   6  19
TORSDOF 4
