REMARK  6 active torsions:
REMARK  status: ('A' for Active; 'I' for Inactive)
REMARK    1  A    between atoms: C_2  and  C_1 
REMARK       I    between atoms: N_11  and  C_2 
REMARK    2  A    between atoms: N_5  and  C_14 
REMARK    3  A    between atoms: N_12  and  C_7 
REMARK    4  A    between atoms: C_16  and  N_11 
REMARK    5  A    between atoms: C_14  and  C_15 
REMARK    6  A    between atoms: C_15  and  C_16 
ROOT
ATOM      1  C   UNL d   1       2.027   1.960   1.077  0.00  0.00     0.253 C 
ATOM      2  O   UNL d   1       2.383   2.388   2.171  0.00  0.00    -0.268 OA
ATOM      3  N   UNL d   1       2.315   2.599  -0.110  0.00  0.00    -0.357 N 
ATOM      4  H   UNL d   1       1.924   2.205  -0.963  0.00  0.00     0.162 HD
ENDROOT
BRANCH   1   5
ATOM      5  C   UNL d   1       1.231   0.702   0.986  0.00  0.00     0.052 A 
ATOM      6  C   UNL d   1       1.348  -0.229  -0.069  0.00  0.00     0.021 A 
ATOM      7  C   UNL d   1       0.509  -1.354  -0.065  0.00  0.00     0.024 A 
ATOM      8  C   UNL d   1      -0.354  -1.605   1.003  0.00  0.00     0.002 A 
ATOM      9  C   UNL d   1      -0.429  -0.710   2.064  0.00  0.00     0.001 A 
ATOM     10  C   UNL d   1       0.355   0.443   2.053  0.00  0.00     0.019 A 
BRANCH   6  11
ATOM     11  N   UNL d   1       2.173  -0.017  -1.197  0.00  0.00    -0.302 NA
ATOM     12  H   UNL d   1       3.083   0.337  -0.906  0.00  0.00     0.124 HD
ATOM     13  H   UNL d   1       2.286  -0.856  -1.764  0.00  0.00     0.124 HD
ENDBRANCH   6  11
ENDBRANCH   1   5
BRANCH   3  14
ATOM     14  C   UNL d   1       3.098   3.818  -0.155  0.00  0.00     0.124 C 
BRANCH  14  15
ATOM     15  C   UNL d   1       4.603   3.546  -0.117  0.00  0.00     0.040 C 
BRANCH  15  16
ATOM     16  C   UNL d   1       5.064   2.760  -1.340  0.00  0.00     0.130 C 
BRANCH  16  17
ATOM     17  N   UNL d   1       6.477   2.449  -1.310  0.00  0.00    -0.352 N 
ATOM     18  C   UNL d   1       7.470   3.179  -1.904  0.00  0.00     0.182 A 
ATOM     19  N   UNL d   1       8.639   2.599  -1.758  0.00  0.00    -0.361 N 
ATOM     20  C   UNL d   1       8.389   1.452  -1.047  0.00  0.00     0.106 A 
ATOM     21  HN  UNL d   1       9.542   2.930  -2.099  1.00  0.00     0.166 HD
ATOM     22  C   UNL d   1       7.050   1.337  -0.759  0.00  0.00     0.108 A 
ENDBRANCH  16  17
ENDBRANCH  15  16
ENDBRANCH  14  15
ENDBRANCH   3  14
TORSDOF 6
