REMARK  4 active torsions:
REMARK  status: ('A' for Active; 'I' for Inactive)
REMARK       I    between atoms: N_2  and  C_1 
REMARK    1  A    between atoms: C_5  and  C_1 
REMARK       I    between atoms: C_3  and  N_4 
REMARK    2  A    between atoms: C_12  and  C_3 
REMARK    3  A    between atoms: N_4  and  C_17 
REMARK    4  A    between atoms: C_6  and  C_7 
ROOT
ATOM      1  C   UNL d   1       0.905   0.062  -0.066  0.00  0.00     0.253 C 
ATOM      2  N   UNL d   1       0.254   1.104  -0.725  0.00  0.00    -0.348 N 
ATOM      3  C   UNL d   1      -0.875   1.897  -0.234  0.00  0.00     0.128 C 
ATOM      4  C   UNL d   1       0.665   1.449  -2.081  0.00  0.00     0.128 C 
ATOM      5  O   UNL d   1       1.920  -0.477  -0.524  0.00  0.00    -0.267 OA
ATOM      6  C   UNL d   1      -1.788   1.943  -2.581  0.00  0.00     0.087 C 
ATOM      7  C   UNL d   1      -2.095   1.622  -1.111  0.00  0.00     0.045 C 
ATOM      8  C   UNL d   1      -0.499   1.249  -3.051  0.00  0.00     0.045 C 
ENDROOT
BRANCH   1   9
ATOM      9  C   UNL d   1       0.411  -0.433   1.244  0.00  0.00     0.032 A 
ATOM     10  C   UNL d   1      -0.945  -0.619   1.512  0.00  0.00     0.017 A 
ATOM     11  C   UNL d   1      -1.375  -0.988   2.787  0.00  0.00     0.009 A 
ATOM     12  C   UNL d   1      -0.457  -1.289   3.806  0.00  0.00    -0.051 A 
ATOM     13  C   UNL d   1       0.911  -1.200   3.489  0.00  0.00     0.009 A 
ATOM     14  C   UNL d   1       1.341  -0.769   2.228  0.00  0.00     0.017 A 
BRANCH  12  15
ATOM     15  C   UNL d   1      -0.967  -1.705   5.194  0.00  0.00    -0.024 C 
ATOM     16  C   UNL d   1       0.170  -2.100   6.160  0.00  0.00     0.019 C 
ATOM     17  C   UNL d   1      -1.743  -0.534   5.835  0.00  0.00     0.019 C 
ATOM     18  C   UNL d   1      -1.912  -2.920   5.072  0.00  0.00     0.019 C 
ENDBRANCH  12  15
ENDBRANCH   1   9
BRANCH   6  19
ATOM     19  N   UNL d   1      -1.718   3.383  -2.800  0.00  0.00    -0.352 N 
ATOM     20  C   UNL d   1      -2.864   4.143  -2.929  0.00  0.00     0.252 C 
ATOM     21  O   UNL d   1      -3.993   3.666  -2.894  0.00  0.00    -0.268 OA
ATOM     22  H   UNL d   1      -0.855   3.859  -2.575  0.00  0.00     0.163 HD
BRANCH  20  23
ATOM     23  C   UNL d   1      -2.673   5.611  -3.092  0.00  0.00     0.032 A 
ATOM     24  C   UNL d   1      -1.484   6.156  -3.594  0.00  0.00     0.017 A 
ATOM     25  C   UNL d   1      -1.370   7.536  -3.777  0.00  0.00     0.001 A 
ATOM     26  C   UNL d   1      -2.442   8.373  -3.468  0.00  0.00     0.000 A 
ATOM     27  C   UNL d   1      -3.627   7.836  -2.969  0.00  0.00     0.001 A 
ATOM     28  C   UNL d   1      -3.744   6.458  -2.781  0.00  0.00     0.017 A 
ENDBRANCH  20  23
ENDBRANCH   6  19
TORSDOF 4
