REMARK  4 active torsions:
REMARK  status: ('A' for Active; 'I' for Inactive)
REMARK    1  A    between atoms: O_2  and  S_1 
REMARK    2  A    between atoms: C_7  and  S_1 
REMARK    3  A    between atoms: C_3  and  O_2 
REMARK    4  A    between atoms: C_18  and  C_10 
ROOT
ATOM      1  O   UNL d   1       0.763   0.659  -1.220  0.00  0.00    -0.227 OA
ENDROOT
BRANCH   1   2
ATOM      2  S   UNL d   1       0.943  -0.011   0.254  0.00  0.00     0.303 S 
ATOM      3  O   UNL d   1       0.064   0.664   1.193  0.00  0.00    -0.193 OA
ATOM      4  O   UNL d   1       2.360  -0.142   0.552  0.00  0.00    -0.193 OA
BRANCH   2   5
ATOM      5  C   UNL d   1       0.341  -1.681   0.076  0.00  0.00     0.086 A 
ATOM      6  C   UNL d   1       1.213  -2.672  -0.383  0.00  0.00     0.026 A 
ATOM      7  C   UNL d   1       0.806  -4.009  -0.388  0.00  0.00     0.009 A 
ATOM      8  C   UNL d   1      -0.472  -4.372   0.067  0.00  0.00    -0.055 A 
ATOM      9  C   UNL d   1      -1.336  -3.362   0.524  0.00  0.00     0.009 A 
ATOM     10  C   UNL d   1      -0.934  -2.022   0.535  0.00  0.00     0.026 A 
BRANCH   8  11
ATOM     11  C   UNL d   1      -0.928  -5.823   0.079  0.00  0.00     0.010 C 
ATOM     12  C   UNL d   1      -0.929  -6.420  -1.331  0.00  0.00     0.015 C 
ATOM     13  C   UNL d   1      -0.088  -6.680   1.030  0.00  0.00     0.015 C 
ENDBRANCH   8  11
ENDBRANCH   2   5
ENDBRANCH   1   2
BRANCH   1  14
ATOM     14  C   UNL d   1       1.082   1.988  -1.450  0.00  0.00     0.117 A 
ATOM     15  C   UNL d   1       0.347   2.655  -2.445  0.00  0.00     0.078 A 
ATOM     16  N   UNL d   1      -0.658   2.046  -3.118  0.00  0.00    -0.357 N 
ATOM     17  C   UNL d   1       0.697   3.999  -2.726  0.00  0.00    -0.006 A 
ATOM     18  C   UNL d   1      -1.333   2.737  -4.071  0.00  0.00     0.005 A 
ATOM     19  HN  UNL d   1      -0.906   1.078  -2.910  1.00  0.00     0.166 HD
ATOM     20  C   UNL d   1      -2.439   2.025  -4.792  0.00  0.00     0.068 C 
ATOM     21  C   UNL d   1      -1.036   4.050  -4.401  0.00  0.00     0.025 A 
ATOM     22  C   UNL d   1      -0.010   4.686  -3.718  0.00  0.00     0.016 A 
ATOM     23  C   UNL d   1       1.735   4.638  -2.034  0.00  0.00     0.014 A 
ATOM     24  C   UNL d   1       2.449   3.955  -1.059  0.00  0.00     0.004 A 
ATOM     25  C   UNL d   1       2.129   2.633  -0.772  0.00  0.00     0.040 A 
ENDBRANCH   1  14
TORSDOF 4
