REMARK  4 active torsions:
REMARK  status: ('A' for Active; 'I' for Inactive)
REMARK    1  A    between atoms: C_8  and  C_1 
REMARK    2  A    between atoms: N_11  and  C_8 
REMARK    3  A    between atoms: C_9  and  N_11 
REMARK    4  A    between atoms: N_12  and  C_10 
ROOT
ATOM      1  C   UNL d   1      -0.855  -1.920  -1.076  0.00  0.00     0.140 C 
ATOM      2  C   UNL d   1      -1.169  -3.228  -1.528  0.00  0.00     0.112 C 
ATOM      3  C   UNL d   1      -1.666  -0.831  -1.498  0.00  0.00     0.112 C 
ATOM      4  N   UNL d   1      -1.424  -4.303  -1.889  0.00  0.00    -0.191 NA
ATOM      5  N   UNL d   1      -2.306   0.079  -1.831  0.00  0.00    -0.191 NA
ENDROOT
BRANCH   1   6
ATOM      6  C   UNL d   1       0.178  -1.689  -0.245  0.00  0.00     0.123 C 
BRANCH   6   7
ATOM      7  N   UNL d   1       1.119  -2.560   0.260  0.00  0.00    -0.350 N 
ATOM      8  H   UNL d   1       1.298  -3.418  -0.260  0.00  0.00     0.166 HD
BRANCH   7   9
ATOM      9  C   UNL d   1       2.244  -2.232   1.029  0.00  0.00     0.106 A 
ATOM     10  N   UNL d   1       3.329  -3.013   0.847  0.00  0.00    -0.333 N 
ATOM     11  C   UNL d   1       4.450  -2.718   1.531  0.00  0.00     0.079 A 
ATOM     12  HN  UNL d   1       3.301  -3.807   0.206  1.00  0.00     0.168 HD
ATOM     13  C   UNL d   1       4.535  -1.661   2.422  0.00  0.00     0.042 A 
ATOM     14  C   UNL d   1       3.408  -0.881   2.636  0.00  0.00     0.007 A 
ATOM     15  C   UNL d   1       2.246  -1.169   1.929  0.00  0.00     0.048 A 
BRANCH  11  16
ATOM     16  N   UNL d   1       5.572  -3.500   1.265  0.00  0.00    -0.289 NA
ATOM     17  H   UNL d   1       5.286  -4.239   0.628  0.00  0.00     0.125 HD
ATOM     18  H   UNL d   1       5.986  -3.867   2.113  0.00  0.00     0.125 HD
ENDBRANCH  11  16
ENDBRANCH   7   9
ENDBRANCH   6   7
ENDBRANCH   1   6
TORSDOF 4
