REMARK  4 active torsions:
REMARK  status: ('A' for Active; 'I' for Inactive)
REMARK    1  A    between atoms: N_8  and  C_1 
REMARK    2  A    between atoms: C_2  and  C_5 
REMARK       I    between atoms: C_5  and  N_8 
REMARK    3  A    between atoms: S_17  and  C_11 
REMARK    4  A    between atoms: S_18  and  C_12 
ROOT
ATOM      1  C   UNL d   1       0.937   3.470  -0.493  0.00  0.00     0.262 C 
ATOM      2  N   UNL d   1       1.802   2.400  -0.570  0.00  0.00    -0.307 N 
ATOM      3  O   UNL d   1      -0.281   3.371  -0.380  0.00  0.00    -0.267 OA
ATOM      4  H   UNL d   1       2.762   2.516  -0.275  0.00  0.00     0.170 HD
ENDROOT
BRANCH   2   5
ATOM      5  C   UNL d   1       1.357   1.097  -0.560  0.00  0.00     0.138 C 
ATOM      6  N   UNL d   1       2.073   0.176   0.091  0.00  0.00    -0.282 N 
ATOM      7  N   UNL d   1       1.270  -0.907   0.098  0.00  0.00    -0.294 N 
ATOM      8  HN  UNL d   1       3.008   0.269   0.490  1.00  0.00     0.189 HD
ATOM      9  C   UNL d   1       1.679  -2.095   0.806  0.00  0.00     0.178 C 
ATOM     10  C   UNL d   1       0.119  -0.755  -0.633  0.00  0.00     0.067 A 
ATOM     11  C   UNL d   1       0.199   0.533  -1.160  0.00  0.00     0.076 A 
ATOM     12  C   UNL d   1      -0.967  -1.608  -0.886  0.00  0.00     0.032 A 
ATOM     13  C   UNL d   1      -0.786   0.938  -2.079  0.00  0.00     0.132 A 
ATOM     14  F   UNL d   1      -0.688   2.106  -2.731  0.00  0.00    -0.205 F 
ATOM     15  C   UNL d   1      -1.858   0.094  -2.374  0.00  0.00     0.043 A 
ATOM     16  C   UNL d   1      -1.961  -1.152  -1.759  0.00  0.00     0.005 A 
ENDBRANCH   2   5
BRANCH   1  17
ATOM     17  C   UNL d   1       1.581   4.773  -0.453  0.00  0.00     0.091 A 
ATOM     18  C   UNL d   1       1.266   5.767   0.470  0.00  0.00     0.076 A 
ATOM     19  S   UNL d   1       2.210   7.156   0.133  0.00  0.00    -0.006 SA
ATOM     20  N   UNL d   1       3.012   6.519  -1.161  0.00  0.00    -0.319 N 
ATOM     21  C   UNL d   1       2.577   5.278  -1.360  0.00  0.00     0.093 A 
ATOM     22  HN  UNL d   1       3.723   6.996  -1.715  1.00  0.00     0.175 HD
BRANCH  18  23
ATOM     23  S   UNL d   1       0.199   5.715   1.867  0.00  0.00    -0.125 SA
ATOM     24  C   UNL d   1      -1.409   6.006   1.092  0.00  0.00     0.096 C 
ENDBRANCH  18  23
BRANCH  21  25
ATOM     25  S   UNL d   1       3.241   4.349  -2.704  0.00  0.00    -0.115 SA
ATOM     26  C   UNL d   1       3.607   5.659  -3.892  0.00  0.00     0.097 C 
ENDBRANCH  21  25
ENDBRANCH   1  17
TORSDOF 4
