REMARK  2 active torsions:
REMARK  status: ('A' for Active; 'I' for Inactive)
REMARK    1  A    between atoms: C_3  and  N_1 
REMARK    2  A    between atoms: C_7  and  C_2 
ROOT
ATOM      1  N   UNL d   1      -0.626  -1.205   0.214  0.00  0.00    -0.296 N 
ATOM      2  C   UNL d   1       0.781  -1.370  -0.132  0.00  0.00     0.190 C 
ATOM      3  S   UNL d   1       1.528   0.281  -0.012  0.00  0.00    -0.129 SA
ATOM      4  C   UNL d   1      -1.127   0.098   0.167  0.00  0.00     0.235 C 
ATOM      5  C   UNL d   1      -0.057   1.111  -0.182  0.00  0.00     0.179 C 
ATOM      6  O   UNL d   1      -2.299   0.428   0.307  0.00  0.00    -0.272 OA
ENDROOT
BRANCH   1   7
ATOM      7  C   UNL d   1      -1.486  -2.332   0.384  0.00  0.00     0.077 A 
ATOM      8  C   UNL d   1      -1.310  -3.517  -0.349  0.00  0.00     0.146 A 
ATOM      9  C   UNL d   1      -2.119  -4.631  -0.143  0.00  0.00     0.086 A 
ATOM     10  F   UNL d   1      -0.391  -3.587  -1.324  0.00  0.00    -0.204 F 
ATOM     11  C   UNL d   1      -3.119  -4.567   0.814  0.00  0.00     0.119 A 
ATOM     12  C   UNL d   1      -3.328  -3.409   1.554  0.00  0.00     0.044 A 
ATOM     13  F   UNL d   1      -3.897  -5.634   1.026  0.00  0.00    -0.206 F 
ATOM     14  C   UNL d   1      -2.519  -2.289   1.331  0.00  0.00     0.036 A 
ENDBRANCH   1   7
BRANCH   2  15
ATOM     15  C   UNL d   1       1.518  -2.369   0.730  0.00  0.00    -0.010 A 
ATOM     16  C   UNL d   1       2.191  -3.437   0.136  0.00  0.00     0.097 A 
ATOM     17  N   UNL d   1       2.792  -4.438   0.818  0.00  0.00    -0.375 N 
ATOM     18  C   UNL d   1       2.737  -4.375   2.164  0.00  0.00     0.087 A 
ATOM     19  HN  UNL d   1       3.265  -5.204   0.338  1.00  0.00     0.164 HD
ATOM     20  C   UNL d   1       2.126  -3.344   2.858  0.00  0.00     0.018 A 
ATOM     21  C   UNL d   1       1.512  -2.328   2.131  0.00  0.00     0.013 A 
ENDBRANCH   2  15
TORSDOF 2
