REMARK  5 active torsions:
REMARK  status: ('A' for Active; 'I' for Inactive)
REMARK    1  A    between atoms: C3_3  and  N1_1 
REMARK    2  A    between atoms: C1_2  and  C5_5 
REMARK       I    between atoms: N_12  and  C1_2 
REMARK    3  A    between atoms: CA_14  and  N_12 
REMARK    4  A    between atoms: C_13  and  CA_14 
REMARK    5  A    between atoms: OXT_16  and  C_13 
ROOT
ATOM      1  C1  <1> d   1      -2.215  -1.204   4.512  0.00  0.00     0.252 C 
ATOM      2  O3  <1> d   1      -2.177  -0.585   5.569  0.00  0.00    -0.268 OA
ATOM      3  N   ALA d   1      -2.998  -2.325   4.348  0.00  0.00    -0.343 N 
ATOM      4  H   ALA d   1      -3.006  -2.851   3.484  0.00  0.00     0.163 HD
ENDROOT
BRANCH   1   5
ATOM      5  C5  <1> d   1      -1.366  -0.777   3.354  0.00  0.00     0.032 A 
ATOM      6  C9  <1> d   1      -1.487  -1.322   2.066  0.00  0.00     0.019 A 
ATOM      7  C7  <1> d   1      -0.611  -0.933   1.043  0.00  0.00     0.037 A 
ATOM      8  C3  <1> d   1       0.389   0.014   1.304  0.00  0.00     0.102 A 
ATOM      9  C6  <1> d   1       0.497   0.595   2.572  0.00  0.00     0.037 A 
ATOM     10  C8  <1> d   1      -0.380   0.196   3.590  0.00  0.00     0.019 A 
BRANCH   8  11
ATOM     11  N1  <1> d   1       1.338   0.383   0.245  0.00  0.00    -0.116 N 
ATOM     12  O1  <1> d   1       2.194   1.238   0.511  0.00  0.00    -0.532 OA
ATOM     13  O2  <1> d   1       1.232  -0.191  -0.848  0.00  0.00    -0.532 OA
ENDBRANCH   8  11
ENDBRANCH   1   5
BRANCH   3  14
ATOM     14  CA  ALA d   1      -3.788  -2.898   5.434  0.00  0.00     0.178 C 
ATOM     15  CB  ALA d   1      -2.912  -3.562   6.490  0.00  0.00     0.043 C 
BRANCH  14  16
ATOM     16  C   ALA d   1      -4.723  -3.949   4.821  0.00  0.00     0.163 C 
ATOM     17  O   ALA d   1      -4.534  -4.459   3.723  0.00  0.00    -0.648 OA
BRANCH  16  18
ATOM     18  OXT ALA d   1      -5.776  -4.277   5.601  0.00  0.00    -0.775 OA
ATOM     19  HXT ALA d   1      -5.825  -3.789   6.445  0.00  0.00     0.167 HD
ENDBRANCH  16  18
ENDBRANCH  14  16
ENDBRANCH   3  14
TORSDOF 5
