REMARK  4 active torsions:
REMARK  status: ('A' for Active; 'I' for Inactive)
REMARK    1  A    between atoms: N_11  and  C_1 
REMARK    2  A    between atoms: C_3  and  C_9 
REMARK    3  A    between atoms: N_4  and  N_11 
REMARK    4  A    between atoms: C_9  and  N_4 
ROOT
ATOM      1  N   UNL d   1      -1.137   1.179  -0.233  0.00  0.00    -0.307 N 
ATOM      2  HN  UNL d   1      -1.661   0.318  -0.076  1.00  0.00     0.186 HD
ENDROOT
BRANCH   1   3
ATOM      3  N   UNL d   1       0.230   1.205  -0.233  0.00  0.00    -0.277 N 
ATOM      4  H   UNL d   1       0.739   2.070  -0.391  0.00  0.00     0.189 HD
BRANCH   3   5
ATOM      5  C   UNL d   1       0.946   0.058  -0.018  0.00  0.00     0.184 C 
ATOM      6  S   UNL d   1       2.603   0.032  -0.007  0.00  0.00    -0.040 SA
ATOM      7  N   UNL d   1       0.205  -1.057   0.186  0.00  0.00    -0.375 N 
ATOM      8  H   UNL d   1       0.630  -1.957   0.354  0.00  0.00     0.158 HD
ATOM      9  H   UNL d   1      -0.802  -0.953   0.163  0.00  0.00     0.158 HD
ENDBRANCH   3   5
ENDBRANCH   1   3
BRANCH   1  10
ATOM     10  C   UNL d   1      -1.726   2.313  -0.444  0.00  0.00     0.144 C 
BRANCH  10  11
ATOM     11  C   UNL d   1      -3.159   2.377  -0.460  0.00  0.00     0.092 A 
ATOM     12  O   UNL d   1      -3.759   3.585  -0.683  0.00  0.00    -0.314 OA
ATOM     13  C   UNL d   1      -5.106   3.375  -0.648  0.00  0.00     0.050 A 
ATOM     14  C   UNL d   1      -5.973   4.551  -0.865  0.00  0.00     0.076 C 
ATOM     15  C   UNL d   1      -5.375   2.046  -0.405  0.00  0.00     0.035 A 
ATOM     16  C   UNL d   1      -4.122   1.404  -0.284  0.00  0.00     0.041 A 
ENDBRANCH  10  11
ENDBRANCH   1  10
TORSDOF 4
