REMARK  7 active torsions:
REMARK  status: ('A' for Active; 'I' for Inactive)
REMARK       I    between atoms: N_4  and  C_1 
REMARK       I    between atoms: N_7  and  C_1 
REMARK    1  A    between atoms: C_6  and  C_2 
REMARK    2  A    between atoms: C_3  and  N_4 
REMARK    3  A    between atoms: C_5  and  N_7 
REMARK       I    between atoms: N_18  and  C_6 
REMARK    4  A    between atoms: N_10  and  C_22 
REMARK    5  A    between atoms: C_28  and  N_18 
REMARK    6  A    between atoms: C_22  and  C_23 
REMARK    7  A    between atoms: C_23  and  C_28 
ROOT
ATOM      1  C   UNL d   1      -1.796  -0.985   0.496  0.00  0.00     0.058 A 
ATOM      2  C   UNL d   1      -1.079  -0.046   1.273  0.00  0.00     0.052 A 
ATOM      3  C   UNL d   1      -3.201  -1.010   0.593  0.00  0.00     0.019 A 
ATOM      4  C   UNL d   1      -1.779   0.883   2.057  0.00  0.00     0.030 A 
ATOM      5  C   UNL d   1      -3.882  -0.084   1.387  0.00  0.00     0.001 A 
ATOM      6  C   UNL d   1      -3.172   0.870   2.107  0.00  0.00     0.002 A 
ENDROOT
BRANCH   2   7
ATOM      7  N   UNL d   1       0.335   0.006   1.237  0.00  0.00    -0.308 N 
ATOM      8  C   UNL d   1       1.134   0.244   2.345  0.00  0.00     0.325 C 
ATOM      9  N   UNL d   1       2.439   0.453   1.943  0.00  0.00    -0.305 N 
ATOM     10  O   UNL d   1       0.748   0.306   3.506  0.00  0.00    -0.247 OA
ATOM     11  H   UNL d   1       2.479   1.185   1.242  0.00  0.00     0.171 HD
ATOM     12  H   UNL d   1       0.775  -0.644   0.582  0.00  0.00     0.170 HD
BRANCH   9  13
ATOM     13  C   UNL d   1       3.534   0.432   2.846  0.00  0.00     0.080 A 
ATOM     14  C   UNL d   1       3.864  -0.708   3.602  0.00  0.00     0.062 A 
ATOM     15 CL   UNL d   1       2.912  -2.152   3.591  0.00  0.00    -0.082 Cl
ATOM     16  C   UNL d   1       5.072  -0.754   4.314  0.00  0.00     0.026 A 
ATOM     17  C   UNL d   1       5.944   0.334   4.304  0.00  0.00     0.003 A 
ATOM     18  C   UNL d   1       5.601   1.487   3.602  0.00  0.00     0.026 A 
ATOM     19  C   UNL d   1       4.411   1.530   2.872  0.00  0.00     0.062 A 
ATOM     20 CL   UNL d   1       4.033   2.989   2.018  0.00  0.00    -0.082 Cl
ENDBRANCH   9  13
ENDBRANCH   2   7
BRANCH   1  21
ATOM     21  C   UNL d   1      -1.071  -1.992  -0.351  0.00  0.00     0.253 C 
ATOM     22  O   UNL d   1       0.145  -2.131  -0.258  0.00  0.00    -0.268 OA
ATOM     23  N   UNL d   1      -1.824  -2.737  -1.246  0.00  0.00    -0.357 N 
ATOM     24  H   UNL d   1      -2.733  -2.388  -1.516  0.00  0.00     0.162 HD
BRANCH  23  25
ATOM     25  C   UNL d   1      -1.221  -3.728  -2.119  0.00  0.00     0.124 C 
BRANCH  25  26
ATOM     26  C   UNL d   1      -0.763  -4.994  -1.396  0.00  0.00     0.040 C 
BRANCH  26  27
ATOM     27  C   UNL d   1      -1.901  -5.704  -0.665  0.00  0.00     0.130 C 
BRANCH  27  28
ATOM     28  N   UNL d   1      -1.452  -6.909   0.007  0.00  0.00    -0.352 N 
ATOM     29  C   UNL d   1      -1.485  -8.176  -0.503  0.00  0.00     0.182 A 
ATOM     30  N   UNL d   1      -1.024  -9.058   0.357  0.00  0.00    -0.361 N 
ATOM     31  C   UNL d   1      -0.684  -8.320   1.468  0.00  0.00     0.106 A 
ATOM     32  HN  UNL d   1      -0.937 -10.066   0.228  1.00  0.00     0.166 HD
ATOM     33  C   UNL d   1      -0.942  -6.988   1.270  0.00  0.00     0.108 A 
ENDBRANCH  27  28
ENDBRANCH  26  27
ENDBRANCH  25  26
ENDBRANCH  23  25
ENDBRANCH   1  21
TORSDOF 7
