REMARK  2 active torsions:
REMARK  status: ('A' for Active; 'I' for Inactive)
REMARK    1  A    between atoms: C_2  and  C_1 
REMARK       I    between atoms: N_8  and  C_2 
REMARK    2  A    between atoms: C_12  and  N_8 
ROOT
ATOM      1  C   UNL d   1      -0.279  -2.425  -0.022  0.00  0.00     0.266 C 
ATOM      2  N   UNL d   1       0.777  -3.322  -0.109  0.00  0.00    -0.321 N 
ATOM      3  O   UNL d   1      -0.103  -1.222   0.164  0.00  0.00    -0.267 OA
ATOM      4  H   UNL d   1       0.570  -4.261  -0.420  0.00  0.00     0.169 HD
ENDROOT
BRANCH   1   5
ATOM      5  C   UNL d   1      -1.614  -2.960  -0.179  0.00  0.00     0.110 A 
ATOM      6  C   UNL d   1      -2.838  -2.295  -0.189  0.00  0.00     0.043 A 
ATOM      7  N   UNL d   1      -3.945  -3.128  -0.335  0.00  0.00    -0.296 N 
ATOM      8  C   UNL d   1      -3.110  -0.838  -0.059  0.00  0.00     0.071 C 
ATOM      9  N   UNL d   1      -3.602  -4.399  -0.423  0.00  0.00    -0.061 NA
ATOM     10  HN  UNL d   1      -4.908  -2.794  -0.370  1.00  0.00     0.183 HD
ATOM     11  S   UNL d   1      -1.954  -4.630  -0.337  0.00  0.00     0.007 SA
ENDBRANCH   1   5
BRANCH   2  12
ATOM     12  C   UNL d   1       2.132  -3.026   0.179  0.00  0.00     0.050 A 
ATOM     13  C   UNL d   1       2.580  -1.845   0.771  0.00  0.00     0.117 A 
ATOM     14  N   UNL d   1       3.875  -1.582   1.082  0.00  0.00    -0.373 N 
ATOM     15  C   UNL d   1       4.776  -2.536   0.785  0.00  0.00     0.088 A 
ATOM     16  HN  UNL d   1       4.152  -0.703   1.520  1.00  0.00     0.164 HD
ATOM     17  C   UNL d   1       4.442  -3.741   0.192  0.00  0.00     0.019 A 
ATOM     18  C   UNL d   1       3.101  -3.990  -0.109  0.00  0.00     0.032 A 
ENDBRANCH   2  12
TORSDOF 2
