REMARK  2 active torsions:
REMARK  status: ('A' for Active; 'I' for Inactive)
REMARK    1  A    between atoms: C_3  and  N_1 
REMARK    2  A    between atoms: C_11  and  N_4 
ROOT
ATOM      1  N   UNL d   1       2.837  -2.275  -2.639  0.00  0.00    -0.195 NA
ATOM      2  C   UNL d   1       2.319  -1.323  -2.219  0.00  0.00     0.089 C 
ATOM      3  C   UNL d   1       1.614  -0.126  -1.708  0.00  0.00     0.395 C 
ENDROOT
BRANCH   3   4
ATOM      4  N   UNL d   1       1.433  -0.102  -0.240  0.00  0.00     0.104 N 
ATOM      5  C   UNL d   1       0.748   1.148   0.179  0.00  0.00     0.293 C 
ATOM      6  C   UNL d   1      -0.748   1.261  -0.217  0.00  0.00     0.153 C 
ATOM      7  N   UNL d   1      -1.478   0.049   0.177  0.00  0.00    -0.378 N 
ATOM      8  C   UNL d   1      -0.855  -1.234  -0.170  0.00  0.00     0.153 C 
ATOM      9  C   UNL d   1       0.628  -1.248   0.258  0.00  0.00     0.293 C 
BRANCH   7  10
ATOM     10  C   UNL d   1      -2.615   0.131   0.959  0.00  0.00     0.030 A 
ATOM     11  C   UNL d   1      -2.881  -0.792   1.983  0.00  0.00     0.036 A 
ATOM     12  C   UNL d   1      -4.034  -0.715   2.781  0.00  0.00    -0.060 A 
ATOM     13  C   UNL d   1      -4.281  -1.715   3.871  0.00  0.00     0.048 C 
ATOM     14  C   UNL d   1      -4.954   0.309   2.549  0.00  0.00     0.007 A 
ATOM     15  C   UNL d   1      -4.716   1.239   1.543  0.00  0.00     0.003 A 
ATOM     16  C   UNL d   1      -3.559   1.149   0.763  0.00  0.00     0.029 A 
ENDBRANCH   7  10
ENDBRANCH   3   4
TORSDOF 2
