REMARK  4 active torsions:
REMARK  status: ('A' for Active; 'I' for Inactive)
REMARK    1  A    between atoms: C_8  and  N_1 
REMARK    2  A    between atoms: C_9  and  C_2 
REMARK    3  A    between atoms: C_5  and  C_10 
REMARK    4  A    between atoms: C_6  and  C_11 
ROOT
ATOM      1  N   UNL d   1      -0.785  -0.929  -0.249  0.00  0.00    -0.299 N 
ATOM      2  C   UNL d   1       0.636  -1.134   0.005  0.00  0.00     0.189 C 
ATOM      3  S   UNL d   1       1.406   0.492   0.220  0.00  0.00    -0.124 SA
ATOM      4  C   UNL d   1      -1.234   0.393  -0.132  0.00  0.00     0.239 C 
ATOM      5  C   UNL d   1      -0.098   1.393  -0.200  0.00  0.00     0.138 C 
ATOM      6  O   UNL d   1      -2.398   0.767  -0.054  0.00  0.00    -0.272 OA
ATOM      7  C   UNL d   1      -0.026   1.944  -1.617  0.00  0.00     0.031 C 
ENDROOT
BRANCH   1   8
ATOM      8  C   UNL d   1      -1.670  -2.023  -0.512  0.00  0.00     0.038 A 
ATOM      9  C   UNL d   1      -2.877  -1.813  -1.196  0.00  0.00     0.030 A 
ATOM     10  C   UNL d   1      -3.715  -2.878  -1.540  0.00  0.00     0.018 A 
ATOM     11  C   UNL d   1      -3.373  -4.191  -1.204  0.00  0.00     0.048 A 
ATOM     12  C   UNL d   1      -2.169  -4.413  -0.526  0.00  0.00     0.018 A 
ATOM     13  C   UNL d   1      -1.330  -3.344  -0.186  0.00  0.00     0.030 A 
BRANCH  11  14
ATOM     14  C   UNL d   1      -4.294  -5.327  -1.571  0.00  0.00     0.417 C 
ATOM     15  F   UNL d   1      -3.838  -6.547  -1.173  0.00  0.00    -0.166 F 
ATOM     16  F   UNL d   1      -5.531  -5.191  -1.018  0.00  0.00    -0.166 F 
ATOM     17  F   UNL d   1      -4.493  -5.423  -2.915  0.00  0.00    -0.166 F 
ENDBRANCH  11  14
ENDBRANCH   1   8
BRANCH   2  18
ATOM     18  C   UNL d   1       1.389  -1.931  -1.052  0.00  0.00    -0.025 A 
ATOM     19  C   UNL d   1       1.037  -1.895  -2.410  0.00  0.00     0.011 A 
ATOM     20  C   UNL d   1       1.708  -2.685  -3.346  0.00  0.00     0.017 A 
ATOM     21  C   UNL d   1       2.765  -3.516  -2.951  0.00  0.00     0.047 A 
ATOM     22  C   UNL d   1       3.150  -3.524  -1.603  0.00  0.00     0.017 A 
ATOM     23  C   UNL d   1       2.473  -2.740  -0.666  0.00  0.00     0.011 A 
BRANCH  21  24
ATOM     24  C   UNL d   1       3.481  -4.394  -3.948  0.00  0.00     0.417 C 
ATOM     25  F   UNL d   1       2.977  -4.309  -5.211  0.00  0.00    -0.166 F 
ATOM     26  F   UNL d   1       4.804  -4.093  -4.053  0.00  0.00    -0.166 F 
ATOM     27  F   UNL d   1       3.422  -5.713  -3.613  0.00  0.00    -0.166 F 
ENDBRANCH  21  24
ENDBRANCH   2  18
TORSDOF 4
