REMARK  7 active torsions:
REMARK  status: ('A' for Active; 'I' for Inactive)
REMARK    1  A    between atoms: C_2  and  C_1 
REMARK    2  A    between atoms: C_8  and  C_1 
REMARK    3  A    between atoms: C_9  and  C_1 
REMARK    4  A    between atoms: C_5  and  C_8 
REMARK    5  A    between atoms: O_16  and  C_5 
REMARK    6  A    between atoms: C_6  and  C_9 
REMARK    7  A    between atoms: O_15  and  C_6 
ROOT
ATOM      1  C   UNL d   1       1.138  -0.027   0.080  0.00  0.00     0.040 C 
ENDROOT
BRANCH   1   2
ATOM      2  C   UNL d   1       0.587  -0.420   1.457  0.00  0.00    -0.031 A 
ATOM      3  C   UNL d   1      -0.579  -1.204   1.593  0.00  0.00     0.042 A 
ATOM      4  C   UNL d   1      -1.009  -1.651   2.849  0.00  0.00     0.048 A 
ATOM      5 CL   UNL d   1      -1.558  -1.632   0.231  0.00  0.00    -0.084 Cl
ATOM      6  C   UNL d   1      -0.293  -1.301   3.988  0.00  0.00     0.035 A 
ATOM      7  C   UNL d   1       0.822  -0.478   3.889  0.00  0.00     0.024 A 
ATOM      8 CL   UNL d   1      -0.792  -1.884   5.528  0.00  0.00    -0.084 Cl
ATOM      9  C   UNL d   1       1.251  -0.031   2.636  0.00  0.00     0.011 A 
ENDBRANCH   1   2
BRANCH   1  10
ATOM     10  C   UNL d   1       0.501   1.305  -0.356  0.00  0.00     0.119 C 
BRANCH  10  11
ATOM     11  C   UNL d   1       0.944   1.720  -1.736  0.00  0.00     0.140 C 
ATOM     12  O   UNL d   1       1.934   2.402  -1.945  0.00  0.00    -0.650 OA
BRANCH  11  13
ATOM     13  O   UNL d   1       0.186   1.213  -2.731  0.00  0.00    -0.776 OA
ATOM     14  H   UNL d   1      -0.573   0.673  -2.439  0.00  0.00     0.167 HD
ENDBRANCH  11  13
ENDBRANCH  10  11
ENDBRANCH   1  10
BRANCH   1  15
ATOM     15  C   UNL d   1       2.684   0.038  -0.002  0.00  0.00     0.119 C 
BRANCH  15  16
ATOM     16  C   UNL d   1       3.374  -1.265   0.335  0.00  0.00     0.140 C 
ATOM     17  O   UNL d   1       2.819  -2.317   0.600  0.00  0.00    -0.650 OA
BRANCH  16  18
ATOM     18  O   UNL d   1       4.723  -1.148   0.292  0.00  0.00    -0.776 OA
ATOM     19  H   UNL d   1       5.038  -0.265   0.017  0.00  0.00     0.167 HD
ENDBRANCH  16  18
ENDBRANCH  15  16
ENDBRANCH   1  15
TORSDOF 7
