REMARK  3 active torsions:
REMARK  status: ('A' for Active; 'I' for Inactive)
REMARK       I    between atoms: N_5  and  C_1 
REMARK    1  A    between atoms: C_7  and  C_1 
REMARK    2  A    between atoms: N_3  and  C_2 
REMARK    3  A    between atoms: C_9  and  N_5 
ROOT
ATOM      1  C   UNL d   1       2.404   0.048   5.118  0.00  0.00     0.052 A 
ATOM      2  C   UNL d   1       2.826   0.872   4.051  0.00  0.00     0.062 A 
ATOM      3  C   UNL d   1       2.213   0.819   2.788  0.00  0.00     0.055 A 
ATOM      4  C   UNL d   1       1.291  -0.774   4.846  0.00  0.00     0.033 A 
ATOM      5  C   UNL d   1       1.141  -0.036   2.540  0.00  0.00     0.036 A 
ATOM      6 CL   UNL d   1       4.049   2.096   4.224  0.00  0.00    -0.082 Cl
ATOM      7  C   UNL d   1       0.659  -0.809   3.593  0.00  0.00     0.032 A 
ENDROOT
BRANCH   5   8
ATOM      8  N   UNL d   1       0.509  -0.147   1.278  0.00  0.00    -0.323 N 
ATOM      9  C   UNL d   1       1.030   0.322   0.084  0.00  0.00     0.256 C 
ATOM     10  O   UNL d   1       2.132   0.837  -0.072  0.00  0.00    -0.267 OA
ATOM     11  H   UNL d   1      -0.312  -0.736   1.238  0.00  0.00     0.169 HD
BRANCH   9  12
ATOM     12  C   UNL d   1       0.194   0.124  -1.133  0.00  0.00     0.032 A 
ATOM     13  C   UNL d   1      -1.205   0.150  -1.101  0.00  0.00     0.020 A 
ATOM     14  C   UNL d   1      -1.925   0.030  -2.294  0.00  0.00     0.043 A 
ATOM     15  C   UNL d   1      -1.248  -0.110  -3.503  0.00  0.00     0.116 A 
ATOM     16  C   UNL d   1       0.141  -0.135  -3.548  0.00  0.00     0.043 A 
ATOM     17  F   UNL d   1      -1.944  -0.206  -4.642  0.00  0.00    -0.206 F 
ATOM     18  C   UNL d   1       0.862  -0.015  -2.363  0.00  0.00     0.020 A 
ENDBRANCH   9  12
ENDBRANCH   5   8
BRANCH   1  19
ATOM     19  N   UNL d   1       3.001   0.006   6.365  0.00  0.00    -0.375 N 
ATOM     20  C   UNL d   1       2.249  -0.213   7.609  0.00  0.00     0.149 C 
ATOM     21  C   UNL d   1       2.801  -1.448   8.334  0.00  0.00     0.187 C 
ATOM     22  O   UNL d   1       4.201  -1.296   8.612  0.00  0.00    -0.388 OA
ATOM     23  C   UNL d   1       4.938  -1.145   7.388  0.00  0.00     0.187 C 
ATOM     24  C   UNL d   1       4.462   0.061   6.556  0.00  0.00     0.149 C 
ENDBRANCH   1  19
TORSDOF 3
