REMARK  1 active torsions:
REMARK  status: ('A' for Active; 'I' for Inactive)
REMARK    1  A    between atoms: C_9  and  C_4 
ROOT
ATOM      1  N   UNL d   1      -8.423  -3.896  -1.076  0.00  0.00    -0.191 NA
ATOM      2  C   UNL d   1      -3.743  -1.395  -0.028  0.00  0.00    -0.016 A 
ATOM      3  C   UNL d   1      -7.426  -3.341  -0.855  0.00  0.00     0.099 C 
ATOM      4  C   UNL d   1      -4.610  -1.762   1.016  0.00  0.00     0.012 A 
ATOM      5  C   UNL d   1      -4.140  -1.644  -1.356  0.00  0.00     0.012 A 
ATOM      6  C   UNL d   1      -6.194  -2.665  -0.578  0.00  0.00     0.044 A 
ATOM      7  C   UNL d   1      -5.351  -2.284  -1.625  0.00  0.00     0.023 A 
ATOM      8  C   UNL d   1      -5.827  -2.392   0.742  0.00  0.00     0.023 A 
ENDROOT
BRANCH   2   9
ATOM      9  C   UNL d   1      -2.402  -0.750   0.286  0.00  0.00     0.220 C 
ATOM     10  N   UNL d   1      -1.249  -1.438  -0.304  0.00  0.00    -0.359 N 
ATOM     11  C   UNL d   1      -1.227  -2.896  -0.383  0.00  0.00     0.152 C 
ATOM     12  C   UNL d   1      -0.025  -0.757  -0.153  0.00  0.00     0.047 A 
ATOM     13  C   UNL d   1      -0.006   0.648  -0.037  0.00  0.00     0.060 A 
ATOM     14  C   UNL d   1       1.224  -1.401  -0.156  0.00  0.00     0.032 A 
ATOM     15  C   UNL d   1      -1.292   1.375  -0.113  0.00  0.00     0.255 C 
ATOM     16  C   UNL d   1       1.182   1.380   0.084  0.00  0.00     0.043 A 
ATOM     17  N   UNL d   1      -2.410   0.598  -0.199  0.00  0.00    -0.331 N 
ATOM     18  O   UNL d   1      -1.356   2.595  -0.117  0.00  0.00    -0.268 OA
ATOM     19  H   UNL d   1      -3.276   1.115  -0.172  0.00  0.00     0.165 HD
ATOM     20  C   UNL d   1       2.393   0.706   0.082  0.00  0.00     0.035 A 
ATOM     21 CL   UNL d   1       3.868   1.583   0.198  0.00  0.00    -0.084 Cl
ATOM     22  C   UNL d   1       2.421  -0.680  -0.034  0.00  0.00     0.026 A 
ENDBRANCH   2   9
TORSDOF 1
