REMARK  7 active torsions:
REMARK  status: ('A' for Active; 'I' for Inactive)
REMARK    1  A    between atoms: N_2  and  S_1 
REMARK    2  A    between atoms: C_10  and  S_1 
REMARK    3  A    between atoms: C_3  and  N_2 
REMARK       I    between atoms: C_7  and  N_15 
REMARK       I    between atoms: N_14  and  C_7 
REMARK    4  A    between atoms: C_8  and  O_16 
REMARK    5  A    between atoms: C_24  and  N_14 
REMARK    6  A    between atoms: N_15  and  C_23 
REMARK    7  A    between atoms: O_16  and  C_25 
ROOT
ATOM      1  C   UNL d   1       0.631  -0.550  -1.675  0.00  0.00     0.075 A 
ATOM      2  C   UNL d   1       1.469  -1.636  -1.949  0.00  0.00     0.027 A 
ATOM      3  C   UNL d   1      -0.580  -0.414  -2.346  0.00  0.00     0.027 A 
ATOM      4  C   UNL d   1      -0.174  -2.515  -3.515  0.00  0.00     0.036 A 
ATOM      5  C   UNL d   1       1.069  -2.608  -2.875  0.00  0.00     0.031 A 
ATOM      6  C   UNL d   1      -0.972  -1.392  -3.268  0.00  0.00     0.031 A 
ENDROOT
BRANCH   4   7
ATOM      7  N   UNL d   1      -0.584  -3.611  -4.313  0.00  0.00    -0.309 N 
ATOM      8  C   UNL d   1      -1.821  -3.768  -4.925  0.00  0.00     0.325 C 
ATOM      9  N   UNL d   1      -2.007  -5.068  -5.373  0.00  0.00    -0.309 N 
ATOM     10  O   UNL d   1      -2.658  -2.879  -5.021  0.00  0.00    -0.247 OA
ATOM     11  H   UNL d   1      -1.212  -5.689  -5.338  0.00  0.00     0.170 HD
ATOM     12  H   UNL d   1       0.054  -4.390  -4.363  0.00  0.00     0.170 HD
BRANCH   9  13
ATOM     13  C   UNL d   1      -3.210  -5.626  -5.864  0.00  0.00     0.036 A 
ATOM     14  C   UNL d   1      -4.418  -4.927  -5.945  0.00  0.00     0.032 A 
ATOM     15  C   UNL d   1      -5.585  -5.543  -6.413  0.00  0.00     0.039 A 
ATOM     16  C   UNL d   1      -5.561  -6.871  -6.831  0.00  0.00     0.078 A 
ATOM     17  C   UNL d   1      -4.363  -7.578  -6.741  0.00  0.00     0.039 A 
ATOM     18  C   UNL d   1      -3.196  -6.965  -6.263  0.00  0.00     0.032 A 
BRANCH  16  19
ATOM     19  O   UNL d   1      -6.608  -7.579  -7.346  0.00  0.00    -0.255 OA
BRANCH  19  20
ATOM     20  C   UNL d   1      -7.853  -6.918  -7.509  0.00  0.00     0.530 C 
ATOM     21  F   UNL d   1      -7.725  -5.762  -8.195  0.00  0.00    -0.144 F 
ATOM     22  F   UNL d   1      -8.678  -7.725  -8.213  0.00  0.00    -0.144 F 
ATOM     23  F   UNL d   1      -8.424  -6.673  -6.311  0.00  0.00    -0.144 F 
ENDBRANCH  19  20
ENDBRANCH  16  19
ENDBRANCH   9  13
ENDBRANCH   4   7
BRANCH   1  24
ATOM     24  S   UNL d   1       1.003   0.521  -0.305  0.00  0.00     0.247 S 
ATOM     25  O   UNL d   1      -0.226   1.176   0.091  0.00  0.00    -0.205 OA
ATOM     26  O   UNL d   1       1.779  -0.257   0.636  0.00  0.00    -0.205 OA
BRANCH  24  27
ATOM     27  N   UNL d   1       1.960   1.721  -1.024  0.00  0.00    -0.165 NA
ATOM     28  H   UNL d   1       1.441   2.594  -0.904  0.00  0.00     0.147 HD
BRANCH  27  29
ATOM     29  C   UNL d   1       3.253   1.850  -0.525  0.00  0.00     0.117 A 
ATOM     30  N   UNL d   1       3.591   2.851   0.288  0.00  0.00    -0.249 N 
ATOM     31  O   UNL d   1       4.915   2.615   0.626  0.00  0.00    -0.241 OA
ATOM     32  HN  UNL d   1       3.001   3.625   0.596  1.00  0.00     0.196 HD
ATOM     33  C   UNL d   1       5.363   1.520  -0.048  0.00  0.00     0.075 A 
ATOM     34  C   UNL d   1       4.347   1.018  -0.821  0.00  0.00     0.079 A 
ATOM     35  C   UNL d   1       6.760   1.123   0.192  0.00  0.00     0.079 C 
ENDBRANCH  27  29
ENDBRANCH  24  27
ENDBRANCH   1  24
TORSDOF 7
