REMARK  8 active torsions:
REMARK  status: ('A' for Active; 'I' for Inactive)
REMARK    1  A    between atoms: C_4  and  C_1 
REMARK    2  A    between atoms: S_3  and  C_2 
REMARK    3  A    between atoms: C_6  and  S_3 
REMARK    4  A    between atoms: O_14  and  C_4 
REMARK    5  A    between atoms: C_5  and  C_6 
REMARK    6  A    between atoms: C_7  and  C_5 
REMARK    7  A    between atoms: C_8  and  C_6 
REMARK    8  A    between atoms: C_11  and  C_7 
ROOT
ATOM      1  C   UNL d   1       2.983  -3.021   0.170  0.00  0.00     0.092 C 
ENDROOT
BRANCH   1   2
ATOM      2  C   UNL d   1       3.261  -2.299   1.504  0.00  0.00     0.104 C 
BRANCH   2   3
ATOM      3  C   UNL d   1       2.410  -2.656   2.716  0.00  0.00     0.161 C 
ATOM      4  O   UNL d   1       1.618  -3.594   2.727  0.00  0.00    -0.292 OA
BRANCH   3   5
ATOM      5  C   UNL d   1       2.547  -1.836   3.968  0.00  0.00     0.010 A 
ATOM      6  C   UNL d   1       3.321  -0.671   4.040  0.00  0.00     0.015 A 
ATOM      7  C   UNL d   1       3.369   0.073   5.226  0.00  0.00     0.001 A 
ATOM      8  C   UNL d   1       2.654  -0.343   6.348  0.00  0.00     0.000 A 
ATOM      9  C   UNL d   1       1.895  -1.509   6.293  0.00  0.00     0.001 A 
ATOM     10  C   UNL d   1       1.843  -2.251   5.110  0.00  0.00     0.015 A 
ENDBRANCH   3   5
ENDBRANCH   2   3
ENDBRANCH   1   2
BRANCH   1  11
ATOM     11  S   UNL d   1       1.281  -2.825  -0.570  0.00  0.00    -0.119 SA
BRANCH  11  12
ATOM     12  C   UNL d   1       1.004  -1.068  -0.773  0.00  0.00     0.018 A 
ATOM     13  C   UNL d   1       1.704  -0.185  -1.610  0.00  0.00     0.054 A 
ATOM     14  C   UNL d   1       1.248   1.140  -1.782  0.00  0.00     0.020 A 
ATOM     15  C   UNL d   1       0.083   1.581  -1.157  0.00  0.00     0.001 A 
ATOM     16  C   UNL d   1      -0.627   0.711  -0.341  0.00  0.00     0.001 A 
ATOM     17  C   UNL d   1      -0.168  -0.596  -0.149  0.00  0.00     0.019 A 
BRANCH  13  18
ATOM     18  C   UNL d   1       2.909  -0.538  -2.403  0.00  0.00     0.177 C 
ATOM     19  O   UNL d   1       3.833   0.240  -2.563  0.00  0.00    -0.646 OA
BRANCH  18  20
ATOM     20  O   UNL d   1       2.858  -1.751  -2.986  0.00  0.00    -0.773 OA
ATOM     21  H   UNL d   1       2.055  -2.271  -2.777  0.00  0.00     0.167 HD
ENDBRANCH  18  20
ENDBRANCH  13  18
ENDBRANCH  11  12
ENDBRANCH   1  11
BRANCH   1  22
ATOM     22  C   UNL d   1       3.382  -4.504   0.166  0.00  0.00    -0.043 A 
ATOM     23  C   UNL d   1       2.522  -5.520   0.632  0.00  0.00     0.011 A 
ATOM     24  C   UNL d   1       2.890  -6.864   0.585  0.00  0.00     0.043 A 
ATOM     25  C   UNL d   1       4.128  -7.213   0.069  0.00  0.00     0.116 A 
ATOM     26  C   UNL d   1       5.002  -6.240  -0.394  0.00  0.00     0.043 A 
ATOM     27  F   UNL d   1       4.481  -8.504   0.013  0.00  0.00    -0.206 F 
ATOM     28  C   UNL d   1       4.635  -4.891  -0.346  0.00  0.00     0.011 A 
ENDBRANCH   1  22
TORSDOF 8
