REMARK  3 active torsions:
REMARK  status: ('A' for Active; 'I' for Inactive)
REMARK    1  A    between atoms: C_2  and  C_1 
REMARK       I    between atoms: N_3  and  C_2 
REMARK    2  A    between atoms: C_6  and  N_3 
REMARK    3  A    between atoms: O_10  and  C_9 
ROOT
ATOM      1  C   UNL d   1      -2.743  -0.858   0.339  0.00  0.00     0.265 C 
ATOM      2  N   UNL d   1      -3.559   0.252   0.412  0.00  0.00    -0.320 N 
ATOM      3  O   UNL d   1      -1.622  -0.915  -0.148  0.00  0.00    -0.267 OA
ATOM      4  H   UNL d   1      -4.443   0.132   0.893  0.00  0.00     0.169 HD
ENDROOT
BRANCH   2   5
ATOM      5  C   UNL d   1      -3.323   1.547  -0.078  0.00  0.00     0.068 A 
ATOM      6  C   UNL d   1      -4.171   2.580   0.365  0.00  0.00     0.095 A 
ATOM      7  C   UNL d   1      -4.055   3.871  -0.149  0.00  0.00     0.039 A 
ATOM      8  C   UNL d   1      -3.068   4.153  -1.091  0.00  0.00     0.003 A 
ATOM      9  C   UNL d   1      -2.204   3.143  -1.516  0.00  0.00     0.002 A 
ATOM     10  C   UNL d   1      -2.327   1.846  -1.008  0.00  0.00     0.032 A 
BRANCH   6  11
ATOM     11  O   UNL d   1      -5.171   2.356   1.280  0.00  0.00    -0.354 OA
ATOM     12  C   UNL d   1      -4.656   2.103   2.592  0.00  0.00     0.210 C 
ENDBRANCH   6  11
ENDBRANCH   2   5
BRANCH   1  13
ATOM     13  C   UNL d   1      -3.361  -2.049   1.030  0.00  0.00     0.097 C 
ATOM     14  C   UNL d   1      -2.669  -2.756   1.952  0.00  0.00     0.064 C 
ATOM     15  O   UNL d   1      -3.151  -3.854   2.647  0.00  0.00    -0.353 OA
ATOM     16  C   UNL d   1      -1.278  -2.397   2.412  0.00  0.00     0.078 C 
ATOM     17  C   UNL d   1      -4.335  -4.477   2.144  0.00  0.00     0.185 C 
ATOM     18  C   UNL d   1      -5.462  -3.480   1.956  0.00  0.00     0.106 C 
ATOM     19  S   UNL d   1      -5.019  -2.376   0.596  0.00  0.00    -0.120 SA
ENDBRANCH   1  13
TORSDOF 3
