REMARK  4 active torsions:
REMARK  status: ('A' for Active; 'I' for Inactive)
REMARK    1  A    between atoms: C_9  and  C_3 
REMARK    2  A    between atoms: O_14  and  C_4 
REMARK    3  A    between atoms: N_13  and  C_5 
REMARK    4  A    between atoms: C_8  and  C_9 
ROOT
ATOM      1  N   UNL d   1      -0.583   1.305  -0.117  0.00  0.00    -0.313 N 
ATOM      2  HN  UNL d   1      -1.059   2.207  -0.127  1.00  0.00     0.170 HD
ATOM      3  C   UNL d   1      -0.673  -1.107  -0.027  0.00  0.00     0.019 A 
ATOM      4  C   UNL d   1      -1.252   0.150  -0.041  0.00  0.00     0.150 A 
ATOM      5  C   UNL d   1       0.740   1.205  -0.178  0.00  0.00     0.157 A 
ATOM      6  N   UNL d   1       1.422   0.058  -0.142  0.00  0.00    -0.336 N 
ATOM      7  HN  UNL d   1       2.442   0.049  -0.164  1.00  0.00     0.168 HD
ATOM      8  C   UNL d   1       0.714  -1.092  -0.077  0.00  0.00     0.018 A 
ATOM      9  C   UNL d   1       1.532  -2.351  -0.055  0.00  0.00     0.069 C 
ENDROOT
BRANCH   3  10
ATOM     10  C   UNL d   1      -1.490  -2.365   0.019  0.00  0.00     0.087 C 
BRANCH  10  11
ATOM     11  C   UNL d   1      -1.659  -3.146   1.318  0.00  0.00    -0.010 A 
ATOM     12  C   UNL d   1      -1.376  -2.683   2.621  0.00  0.00     0.042 A 
ATOM     13 CL   UNL d   1      -0.864  -1.081   3.009  0.00  0.00    -0.084 Cl
ATOM     14  C   UNL d   1      -1.535  -3.519   3.741  0.00  0.00     0.024 A 
ATOM     15  C   UNL d   1      -2.015  -4.813   3.605  0.00  0.00     0.003 A 
ATOM     16  C   UNL d   1      -2.359  -5.278   2.346  0.00  0.00     0.024 A 
ATOM     17  C   UNL d   1      -2.190  -4.458   1.222  0.00  0.00     0.042 A 
ATOM     18 CL   UNL d   1      -2.699  -5.138  -0.292  0.00  0.00    -0.084 Cl
ENDBRANCH  10  11
ENDBRANCH   3  10
BRANCH   4  19
ATOM     19  O   UNL d   1      -2.606   0.303   0.070  0.00  0.00    -0.346 OA
ATOM     20  H   UNL d   1      -2.880  -0.241   0.823  0.00  0.00     0.219 HD
ENDBRANCH   4  19
BRANCH   5  21
ATOM     21  N   UNL d   1       1.469   2.377  -0.206  0.00  0.00    -0.274 NA
ATOM     22  H   UNL d   1       0.912   3.117   0.198  0.00  0.00     0.127 HD
ATOM     23  H   UNL d   1       2.380   2.210   0.197  0.00  0.00     0.127 HD
ENDBRANCH   5  21
TORSDOF 4
