REMARK  7 active torsions:
REMARK  status: ('A' for Active; 'I' for Inactive)
REMARK    1  A    between atoms: O_7  and  C_1 
REMARK    2  A    between atoms: N_3  and  C_2 
REMARK    3  A    between atoms: O_15  and  C_6 
REMARK    4  A    between atoms: C_23  and  O_7 
REMARK    5  A    between atoms: C_11  and  C_14 
REMARK    6  A    between atoms: C_12  and  C_13 
REMARK    7  A    between atoms: C_24  and  O_15 
ROOT
ATOM      1  C   UNL d   1      -0.551   1.170   0.048  0.00  0.00     0.183 A 
ATOM      2  C   UNL d   1       0.827   1.205   0.152  0.00  0.00     0.154 A 
ATOM      3  N   UNL d   1      -1.229   0.001  -0.018  0.00  0.00    -0.315 N 
ATOM      4  HN  UNL d   1      -2.247  -0.012  -0.079  1.00  0.00     0.170 HD
ATOM      5  C   UNL d   1      -0.518  -1.147  -0.001  0.00  0.00     0.150 A 
ATOM      6  C   UNL d   1       1.563   0.017   0.102  0.00  0.00     0.045 A 
ATOM      7  C   UNL d   1       0.869  -1.190   0.014  0.00  0.00     0.059 A 
ENDROOT
BRANCH   1   8
ATOM      8  O   UNL d   1      -1.275   2.347   0.033  0.00  0.00    -0.291 OA
BRANCH   8   9
ATOM      9  C   UNL d   1      -2.476   2.359  -0.643  0.00  0.00     0.077 A 
ATOM     10  C   UNL d   1      -3.505   3.109  -0.074  0.00  0.00     0.038 A 
ATOM     11  C   UNL d   1      -4.726   3.239  -0.742  0.00  0.00     0.018 A 
ATOM     12  C   UNL d   1      -4.914   2.636  -1.993  0.00  0.00     0.009 A 
ATOM     13  C   UNL d   1      -3.891   1.863  -2.550  0.00  0.00     0.018 A 
ATOM     14  C   UNL d   1      -2.668   1.744  -1.885  0.00  0.00     0.038 A 
BRANCH  12  15
ATOM     15  C   UNL d   1      -6.200   2.865  -2.704  0.00  0.00     0.155 C 
ATOM     16  O   UNL d   1      -7.216   3.106  -2.056  0.00  0.00    -0.293 OA
ATOM     17  C   UNL d   1      -6.221   2.854  -4.212  0.00  0.00     0.096 C 
ENDBRANCH  12  15
ENDBRANCH   8   9
ENDBRANCH   1   8
BRANCH   2  18
ATOM     18  N   UNL d   1       1.506   2.459   0.321  0.00  0.00    -0.111 N 
ATOM     19  O   UNL d   1       1.187   3.157   1.292  0.00  0.00    -0.532 OA
ATOM     20  O   UNL d   1       2.405   2.726  -0.487  0.00  0.00    -0.532 OA
ENDBRANCH   2  18
BRANCH   5  21
ATOM     21  O   UNL d   1      -1.197  -2.356  -0.002  0.00  0.00    -0.294 OA
BRANCH  21  22
ATOM     22  C   UNL d   1      -2.430  -2.385   0.616  0.00  0.00     0.077 A 
ATOM     23  C   UNL d   1      -3.408  -3.192   0.036  0.00  0.00     0.038 A 
ATOM     24  C   UNL d   1      -4.668  -3.300   0.633  0.00  0.00     0.018 A 
ATOM     25  C   UNL d   1      -4.952  -2.612   1.823  0.00  0.00     0.009 A 
ATOM     26  C   UNL d   1      -3.974  -1.796   2.396  0.00  0.00     0.018 A 
ATOM     27  C   UNL d   1      -2.710  -1.706   1.808  0.00  0.00     0.038 A 
BRANCH  25  28
ATOM     28  C   UNL d   1      -6.295  -2.792   2.442  0.00  0.00     0.155 C 
ATOM     29  O   UNL d   1      -7.240  -3.150   1.742  0.00  0.00    -0.293 OA
ATOM     30  C   UNL d   1      -6.470  -2.573   3.924  0.00  0.00     0.096 C 
ENDBRANCH  25  28
ENDBRANCH  21  22
ENDBRANCH   5  21
TORSDOF 7
