REMARK  6 active torsions:
REMARK  status: ('A' for Active; 'I' for Inactive)
REMARK    1  A    between atoms: N_7  and  S_1 
REMARK    2  A    between atoms: C_8  and  S_1 
REMARK    3  A    between atoms: C_9  and  C_2 
REMARK    4  A    between atoms: C_3  and  N_7 
REMARK    5  A    between atoms: C_17  and  C_5 
REMARK       I    between atoms: N_25  and  C_9 
REMARK    6  A    between atoms: C_18  and  C_19 
ROOT
ATOM      1  C   UNL d   1       2.034   3.044  -0.202  0.00  0.00     0.095 A 
ATOM      2  C   UNL d   1       0.808   2.460  -0.461  0.00  0.00     0.046 A 
ATOM      3  S   UNL d   1       1.880   4.708   0.150  0.00  0.00    -0.082 SA
ATOM      4  C   UNL d   1       0.191   4.708  -0.130  0.00  0.00     0.018 A 
ATOM      5  C   UNL d   1      -0.247   3.425  -0.433  0.00  0.00     0.045 A 
ENDROOT
BRANCH   2   6
ATOM      6  N   UNL d   1       0.624   1.080  -0.734  0.00  0.00    -0.180 NA
ATOM      7  H   UNL d   1       1.432   0.510  -0.460  0.00  0.00     0.146 HD
BRANCH   6   8
ATOM      8  S   UNL d   1       0.162   0.644  -2.320  0.00  0.00     0.246 S 
ATOM      9  O   UNL d   1       1.071   1.302  -3.244  0.00  0.00    -0.206 OA
ATOM     10  O   UNL d   1      -1.265   0.816  -2.439  0.00  0.00    -0.206 OA
BRANCH   8  11
ATOM     11  C   UNL d   1       0.589  -1.109  -2.347  0.00  0.00     0.081 A 
ATOM     12  C   UNL d   1       1.952  -1.409  -2.556  0.00  0.00     0.033 A 
ATOM     13  C   UNL d   1       2.419  -2.732  -2.608  0.00  0.00    -0.039 A 
ATOM     14  C   UNL d   1       3.864  -3.002  -2.917  0.00  0.00     0.050 C 
ATOM     15  C   UNL d   1       1.504  -3.763  -2.401  0.00  0.00     0.040 A 
ATOM     16  C   UNL d   1       0.150  -3.481  -2.205  0.00  0.00     0.032 A 
ATOM     17 CL   UNL d   1       1.990  -5.423  -2.399  0.00  0.00    -0.084 Cl
ATOM     18  C   UNL d   1      -0.341  -2.155  -2.215  0.00  0.00    -0.037 A 
ATOM     19  C   UNL d   1      -1.828  -1.991  -2.054  0.00  0.00     0.050 C 
ENDBRANCH   8  11
ENDBRANCH   6   8
ENDBRANCH   2   6
BRANCH   1  20
ATOM     20  C   UNL d   1       3.327   2.390  -0.242  0.00  0.00     0.258 C 
ATOM     21  O   UNL d   1       3.464   1.176  -0.399  0.00  0.00    -0.267 OA
ATOM     22  N   UNL d   1       4.433   3.182  -0.128  0.00  0.00    -0.365 N 
ATOM     23  H   UNL d   1       4.357   4.192  -0.097  0.00  0.00     0.159 HD
ATOM     24  H   UNL d   1       5.344   2.761  -0.267  0.00  0.00     0.159 HD
ENDBRANCH   1  20
BRANCH   4  25
ATOM     25  C   UNL d   1      -0.585   5.960  -0.046  0.00  0.00    -0.019 A 
ATOM     26  C   UNL d   1      -1.916   5.943   0.386  0.00  0.00     0.013 A 
ATOM     27  C   UNL d   1      -2.699   7.108   0.358  0.00  0.00     0.009 A 
ATOM     28  C   UNL d   1      -2.185   8.332  -0.106  0.00  0.00    -0.051 A 
ATOM     29  C   UNL d   1      -0.831   8.357  -0.465  0.00  0.00     0.009 A 
ATOM     30  C   UNL d   1      -0.049   7.193  -0.438  0.00  0.00     0.013 A 
BRANCH  28  31
ATOM     31  C   UNL d   1      -3.108   9.553  -0.268  0.00  0.00    -0.024 C 
ATOM     32  C   UNL d   1      -2.396  10.798  -0.846  0.00  0.00     0.019 C 
ATOM     33  C   UNL d   1      -4.251   9.194  -1.244  0.00  0.00     0.019 C 
ATOM     34  C   UNL d   1      -3.713   9.958   1.091  0.00  0.00     0.019 C 
ENDBRANCH  28  31
ENDBRANCH   4  25
TORSDOF 6
