REMARK  7 active torsions:
REMARK  status: ('A' for Active; 'I' for Inactive)
REMARK    1  A    between atoms: C_4  and  N_1 
REMARK    2  A    between atoms: C_3  and  C_2 
REMARK    3  A    between atoms: O_15  and  C_3 
REMARK    4  A    between atoms: C_10  and  C_6 
REMARK    5  A    between atoms: S_8  and  C_12 
REMARK    6  A    between atoms: C_9  and  S_8 
REMARK    7  A    between atoms: C_12  and  C_10 
ROOT
ATOM      1  C   UNL d   1      -0.457   0.714  -6.104  0.00  0.00     0.163 C 
ENDROOT
BRANCH   1   2
ATOM      2  S   UNL d   1      -2.232   1.037  -5.819  0.00  0.00    -0.121 SA
BRANCH   2   3
ATOM      3  C   UNL d   1      -2.561   2.246  -7.096  0.00  0.00     0.017 A 
ATOM      4  C   UNL d   1      -2.593   2.012  -8.483  0.00  0.00     0.056 A 
ATOM      5  C   UNL d   1      -2.843   3.081  -9.365  0.00  0.00     0.019 A 
ATOM      6  C   UNL d   1      -3.075   4.369  -8.885  0.00  0.00     0.001 A 
ATOM      7  C   UNL d   1      -3.065   4.603  -7.516  0.00  0.00     0.001 A 
ATOM      8  C   UNL d   1      -2.816   3.550  -6.632  0.00  0.00     0.019 A 
BRANCH   4   9
ATOM      9  C   UNL d   1      -2.326   0.706  -9.141  0.00  0.00     0.294 C 
ATOM     10  O   UNL d   1      -1.746   0.630 -10.215  0.00  0.00    -0.259 OA
BRANCH   9  11
ATOM     11  O   UNL d   1      -2.833  -0.336  -8.446  0.00  0.00    -0.322 OA
ATOM     12  C   UNL d   1      -2.591  -1.607  -9.056  0.00  0.00     0.213 C 
ENDBRANCH   9  11
ENDBRANCH   4   9
ENDBRANCH   2   3
ENDBRANCH   1   2
BRANCH   1  13
ATOM     13  C   UNL d   1       0.125  -0.168  -5.002  0.00  0.00     0.169 C 
ATOM     14  O   UNL d   1      -0.524  -0.577  -4.043  0.00  0.00    -0.291 OA
BRANCH  13  15
ATOM     15  C   UNL d   1       1.568  -0.557  -5.074  0.00  0.00     0.013 A 
ATOM     16  C   UNL d   1       2.077  -1.387  -4.060  0.00  0.00     0.051 A 
ATOM     17  C   UNL d   1       3.425  -1.764  -4.072  0.00  0.00     0.103 A 
ATOM     18  C   UNL d   1       4.279  -1.317  -5.087  0.00  0.00     0.036 A 
ATOM     19  C   UNL d   1       3.772  -0.499  -6.098  0.00  0.00     0.003 A 
ATOM     20  C   UNL d   1       2.423  -0.122  -6.096  0.00  0.00     0.015 A 
BRANCH  17  21
ATOM     21  N   UNL d   1       3.948  -2.639  -3.013  0.00  0.00    -0.116 N 
ATOM     22  O   UNL d   1       3.150  -3.063  -2.167  0.00  0.00    -0.532 OA
ATOM     23  O   UNL d   1       5.158  -2.903  -3.033  0.00  0.00    -0.532 OA
ENDBRANCH  17  21
ENDBRANCH  13  15
ENDBRANCH   1  13
TORSDOF 7
