REMARK  2 active torsions:
REMARK  status: ('A' for Active; 'I' for Inactive)
REMARK       I    between atoms: C_3  and  N_6 
REMARK    1  A    between atoms: C_10  and  C_3 
REMARK    2  A    between atoms: N_6  and  C_12 
ROOT
ATOM      1  C   UNL d   1      -0.825  -0.679   1.120  0.00  0.00     0.072 A 
ATOM      2  C   UNL d   1       0.252   0.046   0.536  0.00  0.00     0.015 A 
ATOM      3  N   UNL d   1       0.466  -2.118   0.027  0.00  0.00    -0.364 N 
ATOM      4  C   UNL d   1      -0.665  -2.009   0.792  0.00  0.00     0.112 A 
ATOM      5  C   UNL d   1      -1.884  -0.157   1.928  0.00  0.00     0.102 C 
ATOM      6  N   UNL d   1      -2.744   0.245   2.594  0.00  0.00    -0.191 NA
ATOM      7  C   UNL d   1       1.057  -0.882  -0.126  0.00  0.00     0.044 A 
ATOM      8  C   UNL d   1       0.634   1.407   0.520  0.00  0.00     0.044 A 
ATOM      9  C   UNL d   1       1.813   1.801  -0.127  0.00  0.00     0.035 A 
ATOM     10  C   UNL d   1       2.233  -0.518  -0.788  0.00  0.00     0.033 A 
ATOM     11  C   UNL d   1       2.602   0.834  -0.760  0.00  0.00     0.032 A 
ATOM     12  H   UNL d   1       0.831  -2.980  -0.356  0.00  0.00     0.165 HD
ENDROOT
BRANCH   9  13
ATOM     13  N   UNL d   1       2.270   3.139  -0.153  0.00  0.00    -0.323 N 
ATOM     14  C   UNL d   1       1.543   4.263   0.203  0.00  0.00     0.256 C 
ATOM     15  O   UNL d   1       0.355   4.294   0.503  0.00  0.00    -0.267 OA
ATOM     16  H   UNL d   1       3.179   3.292  -0.570  0.00  0.00     0.169 HD
BRANCH  14  17
ATOM     17  C   UNL d   1       2.282   5.556   0.139  0.00  0.00     0.032 A 
ATOM     18  C   UNL d   1       1.571   6.703  -0.235  0.00  0.00     0.017 A 
ATOM     19  C   UNL d   1       2.215   7.940  -0.301  0.00  0.00     0.007 A 
ATOM     20  C   UNL d   1       3.573   8.049   0.020  0.00  0.00    -0.062 A 
ATOM     21  C   UNL d   1       4.277   6.903   0.413  0.00  0.00     0.007 A 
ATOM     22  C   UNL d   1       4.251   9.386  -0.068  0.00  0.00     0.048 C 
ATOM     23  C   UNL d   1       3.636   5.660   0.477  0.00  0.00     0.017 A 
ENDBRANCH  14  17
ENDBRANCH   9  13
TORSDOF 2
