REMARK  5 active torsions:
REMARK  status: ('A' for Active; 'I' for Inactive)
REMARK    1  A    between atoms: O_6  and  C_1 
REMARK    2  A    between atoms: C_2  and  C_3 
REMARK       I    between atoms: N_5  and  C_2 
REMARK    3  A    between atoms: C_4  and  C_11 
REMARK    4  A    between atoms: C_12  and  N_5 
REMARK    5  A    between atoms: C_13  and  O_6 
ROOT
ATOM      1  C   UNL d   1       2.815   6.653   2.326  0.00  0.00     0.075 C 
ATOM      2  C   UNL d   1       1.928   6.306   1.378  0.00  0.00     0.017 C 
ENDROOT
BRANCH   1   3
ATOM      3  C   UNL d   1       2.943   8.089   2.713  0.00  0.00     0.245 C 
ATOM      4  N   UNL d   1       3.899   8.287   3.685  0.00  0.00    -0.324 N 
ATOM      5  H   UNL d   1       4.425   7.482   3.998  0.00  0.00     0.169 HD
ATOM      6  O   UNL d   1       2.246   8.943   2.178  0.00  0.00    -0.268 OA
BRANCH   4   7
ATOM      7  C   UNL d   1       4.268   9.521   4.266  0.00  0.00     0.035 A 
ATOM      8  C   UNL d   1       3.631  10.734   3.987  0.00  0.00     0.031 A 
ATOM      9  C   UNL d   1       4.075  11.926   4.571  0.00  0.00     0.026 A 
ATOM     10  C   UNL d   1       5.161  11.908   5.440  0.00  0.00     0.034 A 
ATOM     11  C   UNL d   1       5.791  10.708   5.749  0.00  0.00     0.026 A 
ATOM     12 CL   UNL d   1       5.726  13.378   6.132  0.00  0.00    -0.084 Cl
ATOM     13  C   UNL d   1       5.342   9.516   5.166  0.00  0.00     0.031 A 
ENDBRANCH   4   7
ENDBRANCH   1   3
BRANCH   2  14
ATOM     14  C   UNL d   1       1.696   4.929   0.930  0.00  0.00    -0.036 A 
ATOM     15  C   UNL d   1       1.684   3.847   1.818  0.00  0.00     0.014 A 
ATOM     16  C   UNL d   1       1.426   2.548   1.364  0.00  0.00     0.038 A 
ATOM     17  C   UNL d   1       1.198   2.313   0.010  0.00  0.00     0.078 A 
ATOM     18  C   UNL d   1       1.149   3.396  -0.869  0.00  0.00     0.038 A 
ATOM     19  C   UNL d   1       1.395   4.694  -0.416  0.00  0.00     0.014 A 
BRANCH  17  20
ATOM     20  O   UNL d   1       0.958   1.101  -0.561  0.00  0.00    -0.255 OA
BRANCH  20  21
ATOM     21  C   UNL d   1       1.580  -0.052  -0.011  0.00  0.00     0.530 C 
ATOM     22  F   UNL d   1       2.571   0.219   0.864  0.00  0.00    -0.144 F 
ATOM     23  F   UNL d   1       2.114  -0.771  -1.024  0.00  0.00    -0.144 F 
ATOM     24  F   UNL d   1       0.650  -0.815   0.603  0.00  0.00    -0.144 F 
ENDBRANCH  20  21
ENDBRANCH  17  20
ENDBRANCH   2  14
TORSDOF 5
