REMARK  3 active torsions:
REMARK  status: ('A' for Active; 'I' for Inactive)
REMARK    1  A    between atoms: C_9  and  N_8 
REMARK    2  A    between atoms: C_11  and  C_9 
REMARK    3  A    between atoms: C_10  and  C_11 
ROOT
ATOM      1  N   UNL d   1      -0.112  -1.155  -0.003  0.00  0.00    -0.267 N 
ATOM      2  HN  UNL d   1      -0.304  -2.156   0.027  1.00  0.00     0.190 HD
ATOM      3  C   UNL d   1       1.104  -0.637  -0.034  0.00  0.00     0.174 A 
ATOM      4  N   UNL d   1      -1.097  -0.177  -0.015  0.00  0.00    -0.233 N 
ATOM      5  HN  UNL d   1      -2.092  -0.401   0.006  1.00  0.00     0.204 HD
ATOM      6  N   UNL d   1      -0.648   1.069  -0.055  0.00  0.00    -0.043 NA
ATOM      7  S   UNL d   1       1.025   1.098  -0.080  0.00  0.00     0.039 SA
ATOM      8  N   UNL d   1       2.282  -1.298  -0.036  0.00  0.00    -0.368 N 
ATOM      9  H   UNL d   1       3.154  -0.785  -0.052  0.00  0.00     0.161 HD
ENDROOT
BRANCH   8  10
ATOM     10  C   UNL d   1       2.329  -2.751   0.005  0.00  0.00     0.126 C 
BRANCH  10  11
ATOM     11  C   UNL d   1       3.789  -3.216  -0.004  0.00  0.00     0.058 C 
BRANCH  11  12
ATOM     12  C   UNL d   1       3.933  -4.715   0.031  0.00  0.00    -0.057 A 
ATOM     13  C   UNL d   1       3.955  -5.454  -1.159  0.00  0.00     0.007 A 
ATOM     14  C   UNL d   1       4.131  -6.838  -1.128  0.00  0.00     0.001 A 
ATOM     15  C   UNL d   1       4.286  -7.495   0.091  0.00  0.00     0.000 A 
ATOM     16  C   UNL d   1       4.246  -6.771   1.282  0.00  0.00     0.001 A 
ATOM     17  C   UNL d   1       4.058  -5.389   1.254  0.00  0.00     0.007 A 
ENDBRANCH  11  12
ENDBRANCH  10  11
ENDBRANCH   8  10
TORSDOF 3
