REMARK  7 active torsions:
REMARK  status: ('A' for Active; 'I' for Inactive)
REMARK    1  A    between atoms: C_7  and  C_1 
REMARK    2  A    between atoms: C_3  and  C_2 
REMARK    3  A    between atoms: N_13  and  C_6 
REMARK    4  A    between atoms: O_22  and  C_7 
REMARK       I    between atoms: C_10  and  N_12 
REMARK    5  A    between atoms: C_14  and  C_10 
REMARK    6  A    between atoms: N_12  and  N_13 
REMARK    7  A    between atoms: C_27  and  O_22 
ROOT
ATOM      1  C   UNL d   1      -0.033  -1.445   0.023  0.00  0.00     0.086 A 
ATOM      2  C   UNL d   1       1.167  -0.760   0.058  0.00  0.00     0.136 A 
ATOM      3  N   UNL d   1       1.187   0.610   0.182  0.00  0.00    -0.327 N 
ATOM      4  HN  UNL d   1       2.076   1.107   0.228  1.00  0.00     0.168 HD
ATOM      5  C   UNL d   1       0.034   1.288   0.242  0.00  0.00     0.176 A 
ATOM      6  N   UNL d   1      -1.166   0.691   0.158  0.00  0.00    -0.340 N 
ATOM      7  HN  UNL d   1      -2.033   1.228   0.177  1.00  0.00     0.167 HD
ATOM      8  C   UNL d   1      -1.168  -0.655   0.049  0.00  0.00     0.110 A 
ENDROOT
BRANCH   5   9
ATOM      9  N   UNL d   1       0.118   2.671   0.443  0.00  0.00    -0.172 NA
ATOM     10  H   UNL d   1       1.049   2.990   0.162  0.00  0.00     0.156 HD
BRANCH   9  11
ATOM     11  N   UNL d   1      -0.922   3.411  -0.148  0.00  0.00    -0.280 N 
ATOM     12  C   UNL d   1      -0.610   4.690  -0.574  0.00  0.00     0.266 C 
ATOM     13  O   UNL d   1       0.535   5.137  -0.571  0.00  0.00    -0.266 OA
ATOM     14  H   UNL d   1      -1.863   3.103   0.081  0.00  0.00     0.184 HD
BRANCH  12  15
ATOM     15  C   UNL d   1      -1.743   5.533  -1.039  0.00  0.00     0.033 A 
ATOM     16  C   UNL d   1      -1.643   6.927  -0.899  0.00  0.00     0.020 A 
ATOM     17  C   UNL d   1      -2.663   7.755  -1.373  0.00  0.00     0.043 A 
ATOM     18  C   UNL d   1      -3.771   7.189  -1.992  0.00  0.00     0.116 A 
ATOM     19  C   UNL d   1      -3.882   5.810  -2.142  0.00  0.00     0.043 A 
ATOM     20  F   UNL d   1      -4.741   7.983  -2.465  0.00  0.00    -0.206 F 
ATOM     21  C   UNL d   1      -2.867   4.976  -1.664  0.00  0.00     0.020 A 
ENDBRANCH  12  15
ENDBRANCH   9  11
ENDBRANCH   5   9
BRANCH   2  22
ATOM     22  C   UNL d   1       2.528  -1.412  -0.079  0.00  0.00     0.433 C 
ATOM     23  F   UNL d   1       2.539  -2.739  -0.373  0.00  0.00    -0.165 F 
ATOM     24  F   UNL d   1       3.262  -0.843  -1.083  0.00  0.00    -0.165 F 
ATOM     25  F   UNL d   1       3.285  -1.275   1.048  0.00  0.00    -0.165 F 
ENDBRANCH   2  22
BRANCH   1  26
ATOM     26  C   UNL d   1      -0.248  -2.895  -0.076  0.00  0.00     0.296 C 
ATOM     27  O   UNL d   1      -1.154  -3.371  -0.735  0.00  0.00    -0.259 OA
BRANCH  26  28
ATOM     28  O   UNL d   1       0.595  -3.562   0.739  0.00  0.00    -0.318 OA
BRANCH  28  29
ATOM     29  C   UNL d   1       0.455  -5.001   0.740  0.00  0.00     0.174 C 
ATOM     30  C   UNL d   1       0.995  -5.626  -0.537  0.00  0.00     0.034 C 
ENDBRANCH  28  29
ENDBRANCH  26  28
ENDBRANCH   1  26
TORSDOF 7
