REMARK  7 active torsions:
REMARK  status: ('A' for Active; 'I' for Inactive)
REMARK    1  A    between atoms: C_11  and  C_1 
REMARK    2  A    between atoms: C_8  and  N_2 
REMARK    3  A    between atoms: C_9  and  C_12 
REMARK    4  A    between atoms: C_10  and  C_13 
REMARK    5  A    between atoms: O_20  and  N_14 
REMARK    6  A    between atoms: C_16  and  O_20 
REMARK    7  A    between atoms: C_21  and  C_16 
ROOT
ATOM      1  C   UNL d   1       0.831  -4.022   0.029  0.00  0.00     0.097 A 
ATOM      2  N   UNL d   1       2.239  -5.705   0.099  0.00  0.00    -0.244 N 
ATOM      3  N   UNL d   1       2.922  -4.559   0.344  0.00  0.00    -0.235 N 
ATOM      4  HN  UNL d   1       3.915  -4.498   0.572  1.00  0.00     0.209 HD
ATOM      5  N   UNL d   1       2.094  -3.539   0.239  0.00  0.00    -0.282 N 
ATOM      6  HN  UNL d   1       2.351  -2.554   0.304  1.00  0.00     0.188 HD
ATOM      7  C   UNL d   1       0.885  -5.412  -0.031  0.00  0.00     0.062 A 
ATOM      8  C   UNL d   1      -0.227  -6.395  -0.076  0.00  0.00     0.073 C 
ENDROOT
BRANCH   1   9
ATOM      9  C   UNL d   1      -0.318  -3.120  -0.030  0.00  0.00     0.059 C 
ATOM     10  N   UNL d   1      -1.502  -3.636  -0.190  0.00  0.00    -0.260 N 
ATOM     11  HN  UNL d   1      -1.686  -4.632  -0.307  1.00  0.00     0.194 HD
ATOM     12  C   UNL d   1      -0.089  -1.630   0.119  0.00  0.00     0.072 C 
BRANCH  10  13
ATOM     13  O   UNL d   1      -2.498  -2.635  -0.182  0.00  0.00    -0.195 OA
BRANCH  13  14
ATOM     14  C   UNL d   1      -3.741  -3.183  -0.316  0.00  0.00     0.315 C 
ATOM     15  O   UNL d   1      -4.022  -4.364  -0.475  0.00  0.00    -0.257 OA
BRANCH  14  16
ATOM     16  C   UNL d   1      -4.776  -2.108  -0.243  0.00  0.00     0.041 A 
ATOM     17  C   UNL d   1      -6.118  -2.466  -0.453  0.00  0.00     0.019 A 
ATOM     18  C   UNL d   1      -7.130  -1.502  -0.388  0.00  0.00     0.025 A 
ATOM     19  C   UNL d   1      -6.807  -0.176  -0.112  0.00  0.00     0.034 A 
ATOM     20  C   UNL d   1      -5.480   0.195   0.104  0.00  0.00     0.025 A 
ATOM     21 CL   UNL d   1      -8.050   1.010  -0.032  0.00  0.00    -0.084 Cl
ATOM     22  C   UNL d   1      -4.465  -0.767   0.038  0.00  0.00     0.019 A 
ENDBRANCH  14  16
ENDBRANCH  13  14
ENDBRANCH  10  13
ENDBRANCH   1   9
BRANCH   2  23
ATOM     23  C   UNL d   1       2.954  -6.934   0.033  0.00  0.00     0.059 A 
ATOM     24  C   UNL d   1       2.499  -8.015  -0.729  0.00  0.00     0.047 A 
ATOM     25  C   UNL d   1       3.227  -9.219  -0.769  0.00  0.00     0.051 A 
ATOM     26  C   UNL d   1       4.417  -9.326  -0.028  0.00  0.00     0.032 A 
ATOM     27  C   UNL d   1       4.904  -8.243   0.721  0.00  0.00     0.051 A 
ATOM     28  C   UNL d   1       4.173  -7.045   0.729  0.00  0.00     0.047 A 
BRANCH  25  29
ATOM     29  C   UNL d   1       2.760 -10.393  -1.601  0.00  0.00     0.417 C 
ATOM     30  F   UNL d   1       1.617 -10.143  -2.297  0.00  0.00    -0.166 F 
ATOM     31  F   UNL d   1       3.686 -10.776  -2.521  0.00  0.00    -0.166 F 
ATOM     32  F   UNL d   1       2.504 -11.494  -0.843  0.00  0.00    -0.166 F 
ENDBRANCH  25  29
BRANCH  27  33
ATOM     33  C   UNL d   1       6.187  -8.388   1.508  0.00  0.00     0.417 C 
ATOM     34  F   UNL d   1       6.561  -7.254   2.161  0.00  0.00    -0.166 F 
ATOM     35  F   UNL d   1       6.098  -9.356   2.461  0.00  0.00    -0.166 F 
ATOM     36  F   UNL d   1       7.242  -8.734   0.721  0.00  0.00    -0.166 F 
ENDBRANCH  27  33
ENDBRANCH   2  23
TORSDOF 7
