REMARK  3 active torsions:
REMARK  status: ('A' for Active; 'I' for Inactive)
REMARK    1  A    between atoms: C_8  and  C_3 
REMARK    2  A    between atoms: C_10  and  C_7 
REMARK    3  A    between atoms: S_12  and  C_11 
ROOT
ATOM      1  N   UNL d   1      -0.795   0.036  -0.012  0.00  0.00    -0.331 N 
ATOM      2  HN  UNL d   1      -1.783  -0.218  -0.023  1.00  0.00     0.168 HD
ATOM      3  C   UNL d   1      -0.265   1.216  -0.005  0.00  0.00     0.162 A 
ATOM      4  C   UNL d   1       0.299  -0.786  -0.001  0.00  0.00     0.111 A 
ATOM      5  O   UNL d   1       1.087   1.299  -0.013  0.00  0.00    -0.256 OA
ATOM      6  C   UNL d   1       1.550   0.017  -0.009  0.00  0.00     0.316 A 
ATOM      7  C   UNL d   1       0.304  -2.124   0.026  0.00  0.00     0.047 C 
ATOM      8  O   UNL d   1       2.706  -0.351  -0.012  0.00  0.00    -0.257 OA
ENDROOT
BRANCH   7   9
ATOM      9  C   UNL d   1      -0.929  -2.909   0.005  0.00  0.00    -0.034 A 
ATOM     10  C   UNL d   1      -1.497  -3.273  -1.218  0.00  0.00     0.013 A 
ATOM     11  C   UNL d   1      -2.689  -4.004  -1.257  0.00  0.00     0.019 A 
ATOM     12  C   UNL d   1      -3.336  -4.372  -0.073  0.00  0.00    -0.000 A 
ATOM     13  C   UNL d   1      -2.757  -4.011   1.150  0.00  0.00     0.019 A 
ATOM     14  C   UNL d   1      -1.564  -3.281   1.192  0.00  0.00     0.013 A 
BRANCH  12  15
ATOM     15  S   UNL d   1      -4.844  -5.331  -0.032  0.00  0.00    -0.134 SA
ATOM     16  C   UNL d   1      -5.692  -4.777  -1.536  0.00  0.00     0.095 C 
ENDBRANCH  12  15
ENDBRANCH   7   9
BRANCH   3  17
ATOM     17  C   UNL d   1      -0.991   2.495   0.037  0.00  0.00     0.015 A 
ATOM     18  C   UNL d   1      -2.390   2.468   0.097  0.00  0.00     0.016 A 
ATOM     19  C   UNL d   1      -3.109   3.659   0.198  0.00  0.00     0.001 A 
ATOM     20  C   UNL d   1      -2.434   4.878   0.235  0.00  0.00     0.000 A 
ATOM     21  C   UNL d   1      -1.041   4.910   0.160  0.00  0.00     0.001 A 
ATOM     22  C   UNL d   1      -0.316   3.720   0.059  0.00  0.00     0.016 A 
ENDBRANCH   3  17
TORSDOF 3
