REMARK  3 active torsions:
REMARK  status: ('A' for Active; 'I' for Inactive)
REMARK    1  A    between atoms: C_9  and  C_5 
REMARK    2  A    between atoms: C_11  and  N_7 
REMARK    3  A    between atoms: O_18  and  C_12 
ROOT
ATOM      1  C   UNL d   1       0.571   1.422   0.126  0.00  0.00     0.161 C 
ATOM      2  N   UNL d   1       0.827  -1.035   0.438  0.00  0.00    -0.304 N 
ATOM      3  HN  UNL d   1       1.482  -1.784   0.662  1.00  0.00     0.186 HD
ATOM      4  N   UNL d   1       1.277   0.263   0.446  0.00  0.00    -0.276 N 
ATOM      5  C   UNL d   1      -0.400  -1.340   0.155  0.00  0.00     0.021 C 
ATOM      6  S   UNL d   1      -1.187   1.315   0.306  0.00  0.00    -0.087 SA
ATOM      7  N   UNL d   1       0.908   2.628  -0.200  0.00  0.00    -0.336 N 
ATOM      8  HN  UNL d   1       0.153   3.279  -0.414  1.00  0.00     0.168 HD
ATOM      9  C   UNL d   1      -1.478  -0.358  -0.222  0.00  0.00     0.137 C 
ATOM     10  C   UNL d   1       2.694   0.300   0.799  0.00  0.00     0.180 C 
ENDROOT
BRANCH   7  11
ATOM     11  C   UNL d   1       2.210   3.117  -0.283  0.00  0.00     0.034 A 
ATOM     12  C   UNL d   1       3.160   2.653  -1.197  0.00  0.00     0.032 A 
ATOM     13  C   UNL d   1       4.467   3.154  -1.174  0.00  0.00     0.039 A 
ATOM     14  C   UNL d   1       4.809   4.165  -0.274  0.00  0.00     0.068 A 
ATOM     15  C   UNL d   1       3.838   4.721   0.551  0.00  0.00     0.039 A 
ATOM     16  C   UNL d   1       2.548   4.191   0.550  0.00  0.00     0.032 A 
BRANCH  14  17
ATOM     17  O   UNL d   1       6.066   4.699  -0.197  0.00  0.00    -0.356 OA
ATOM     18  C   UNL d   1       7.059   3.708   0.063  0.00  0.00     0.210 C 
ENDBRANCH  14  17
ENDBRANCH   7  11
BRANCH   5  19
ATOM     19  C   UNL d   1      -0.733  -2.861   0.061  0.00  0.00    -0.010 C 
ATOM     20  C   UNL d   1      -0.730  -3.258  -1.422  0.00  0.00     0.021 C 
ATOM     21  C   UNL d   1       0.333  -3.698   0.800  0.00  0.00     0.021 C 
ATOM     22  C   UNL d   1      -2.097  -3.189   0.684  0.00  0.00     0.021 C 
ENDBRANCH   5  19
TORSDOF 3
