REMARK  4 active torsions:
REMARK  status: ('A' for Active; 'I' for Inactive)
REMARK    1  A    between atoms: S_10  and  C_1 
REMARK    2  A    between atoms: C_6  and  N_2 
REMARK    3  A    between atoms: C_16  and  S_10 
REMARK    4  A    between atoms: C_12  and  C_16 
ROOT
ATOM      1  C   UNL d   1       0.889   0.897  -0.279  0.00  0.00     0.148 C 
ATOM      2  N   UNL d   1       1.387  -0.411  -0.086  0.00  0.00    -0.294 N 
ATOM      3  C   UNL d   1       0.437  -1.457  -0.033  0.00  0.00     0.014 C 
ATOM      4  N   UNL d   1      -0.350   1.260  -0.209  0.00  0.00    -0.358 N 
ATOM      5  HN  UNL d   1      -0.614   2.230  -0.382  1.00  0.00     0.162 HD
ATOM      6  C   UNL d   1      -0.872  -1.150   0.033  0.00  0.00     0.028 C 
ATOM      7  C   UNL d   1      -1.367   0.267   0.120  0.00  0.00     0.044 C 
ATOM      8  C   UNL d   1       0.804  -2.919  -0.032  0.00  0.00     0.068 C 
ATOM      9  C   UNL d   1      -1.867   0.531   1.543  0.00  0.00     0.042 C 
ATOM     10  C   UNL d   1      -2.509   0.478  -0.882  0.00  0.00     0.042 C 
ENDROOT
BRANCH   1  11
ATOM     11  S   UNL d   1       2.005   2.181  -0.841  0.00  0.00    -0.089 SA
BRANCH  11  12
ATOM     12  C   UNL d   1       0.891   3.618  -0.800  0.00  0.00     0.122 C 
BRANCH  12  13
ATOM     13  C   UNL d   1       1.533   4.866  -1.367  0.00  0.00    -0.027 A 
ATOM     14  C   UNL d   1       2.125   5.859  -0.570  0.00  0.00     0.042 A 
ATOM     15  C   UNL d   1       2.662   7.015  -1.149  0.00  0.00     0.048 A 
ATOM     16 CL   UNL d   1       2.212   5.724   1.150  0.00  0.00    -0.084 Cl
ATOM     17  C   UNL d   1       2.622   7.181  -2.530  0.00  0.00     0.035 A 
ATOM     18  C   UNL d   1       2.059   6.202  -3.342  0.00  0.00     0.024 A 
ATOM     19 CL   UNL d   1       3.269   8.609  -3.241  0.00  0.00    -0.084 Cl
ATOM     20  C   UNL d   1       1.520   5.051  -2.764  0.00  0.00     0.011 A 
ENDBRANCH  12  13
ENDBRANCH  11  12
ENDBRANCH   1  11
BRANCH   2  21
ATOM     21  C   UNL d   1       2.742  -0.621   0.346  0.00  0.00     0.080 A 
ATOM     22  C   UNL d   1       3.294   0.127   1.411  0.00  0.00     0.146 A 
ATOM     23  C   UNL d   1       4.597  -0.073   1.858  0.00  0.00     0.086 A 
ATOM     24  F   UNL d   1       2.548   1.041   2.050  0.00  0.00    -0.204 F 
ATOM     25  C   UNL d   1       5.369  -1.059   1.266  0.00  0.00     0.119 A 
ATOM     26  C   UNL d   1       4.864  -1.824   0.220  0.00  0.00     0.045 A 
ATOM     27  F   UNL d   1       6.613  -1.283   1.706  0.00  0.00    -0.206 F 
ATOM     28  C   UNL d   1       3.568  -1.589  -0.254  0.00  0.00     0.036 A 
ENDBRANCH   2  21
TORSDOF 4
