REMARK  6 active torsions:
REMARK  status: ('A' for Active; 'I' for Inactive)
REMARK    1  A    between atoms: C_6  and  C_1 
REMARK    2  A    between atoms: C_16  and  C_3 
REMARK    3  A    between atoms: S_20  and  C_5 
REMARK       I    between atoms: N_12  and  C_6 
REMARK    4  A    between atoms: C_7  and  C_9 
REMARK    5  A    between atoms: C_8  and  C_10 
REMARK    6  A    between atoms: C_13  and  N_12 
ROOT
ATOM      1  C   UNL d   1       1.432  -1.427   0.098  0.00  0.00     0.086 A 
ATOM      2  C   UNL d   1      -0.520  -0.127  -0.069  0.00  0.00     0.081 A 
ATOM      3  C   UNL d   1       0.051  -1.457  -0.095  0.00  0.00     0.019 A 
ATOM      4  S   UNL d   1       1.985   0.201   0.237  0.00  0.00    -0.075 SA
ATOM      5  C   UNL d   1       0.423   0.870   0.104  0.00  0.00     0.063 A 
ATOM      6  C   UNL d   1      -1.925   0.151  -0.221  0.00  0.00     0.102 C 
ATOM      7  N   UNL d   1      -3.070   0.337  -0.316  0.00  0.00    -0.191 NA
ENDROOT
BRANCH   3   8
ATOM      8  C   UNL d   1      -0.693  -2.691  -0.333  0.00  0.00    -0.023 A 
ATOM      9  C   UNL d   1      -0.363  -3.515  -1.416  0.00  0.00     0.014 A 
ATOM     10  C   UNL d   1      -1.080  -4.692  -1.647  0.00  0.00     0.024 A 
ATOM     11  C   UNL d   1      -2.138  -5.038  -0.809  0.00  0.00     0.034 A 
ATOM     12  C   UNL d   1      -2.490  -4.213   0.257  0.00  0.00     0.024 A 
ATOM     13 CL   UNL d   1      -3.011  -6.492  -1.089  0.00  0.00    -0.084 Cl
ATOM     14  C   UNL d   1      -1.767  -3.041   0.498  0.00  0.00     0.014 A 
ENDBRANCH   3   8
BRANCH   5  15
ATOM     15  S   UNL d   1       0.071   2.603   0.198  0.00  0.00    -0.126 SA
ATOM     16  C   UNL d   1       1.678   3.417   0.105  0.00  0.00     0.096 C 
ENDBRANCH   5  15
BRANCH   1  17
ATOM     17  C   UNL d   1       2.464  -2.471   0.217  0.00  0.00     0.264 C 
ATOM     18  N   UNL d   1       2.071  -3.625   0.889  0.00  0.00    -0.322 N 
ATOM     19  H   UNL d   1       1.098  -3.685   1.154  0.00  0.00     0.169 HD
ATOM     20  O   UNL d   1       3.608  -2.288  -0.191  0.00  0.00    -0.267 OA
BRANCH  18  21
ATOM     21  C   UNL d   1       2.922  -4.602   1.473  0.00  0.00     0.036 A 
ATOM     22  C   UNL d   1       4.309  -4.659   1.296  0.00  0.00     0.045 A 
ATOM     23  C   UNL d   1       5.105  -5.549   2.046  0.00  0.00     0.050 A 
ATOM     24  C   UNL d   1       4.489  -6.385   2.988  0.00  0.00     0.032 A 
ATOM     25  C   UNL d   1       3.099  -6.365   3.162  0.00  0.00     0.050 A 
ATOM     26  C   UNL d   1       2.324  -5.503   2.366  0.00  0.00     0.045 A 
BRANCH  23  27
ATOM     27  C   UNL d   1       6.608  -5.568   1.871  0.00  0.00     0.417 C 
ATOM     28  F   UNL d   1       7.224  -6.512   2.639  0.00  0.00    -0.166 F 
ATOM     29  F   UNL d   1       6.986  -5.830   0.591  0.00  0.00    -0.166 F 
ATOM     30  F   UNL d   1       7.188  -4.384   2.207  0.00  0.00    -0.166 F 
ENDBRANCH  23  27
BRANCH  25  31
ATOM     31  C   UNL d   1       2.449  -7.236   4.211  0.00  0.00     0.417 C 
ATOM     32  F   UNL d   1       3.285  -7.536   5.244  0.00  0.00    -0.166 F 
ATOM     33  F   UNL d   1       1.359  -6.647   4.777  0.00  0.00    -0.166 F 
ATOM     34  F   UNL d   1       2.021  -8.426   3.713  0.00  0.00    -0.166 F 
ENDBRANCH  25  31
ENDBRANCH  18  21
ENDBRANCH   1  17
TORSDOF 6
