REMARK  5 active torsions:
REMARK  status: ('A' for Active; 'I' for Inactive)
REMARK    1  A    between atoms: C_2  and  N_1 
REMARK    2  A    between atoms: C_3  and  N_5 
REMARK    3  A    between atoms: N_6  and  C_3 
REMARK    4  A    between atoms: N_5  and  C_4 
REMARK    5  A    between atoms: C_12  and  N_6 
ROOT
ATOM      1  C   UNL d   1      -0.155  -1.401   1.500  0.00  0.00     0.130 A 
ATOM      2  C   UNL d   1      -0.922  -1.863   0.422  0.00  0.00     0.067 A 
ATOM      3  C   UNL d   1       0.304  -2.287   2.499  0.00  0.00     0.045 A 
ATOM      4  C   UNL d   1      -1.283  -3.220   0.414  0.00  0.00     0.032 A 
ATOM      5  C   UNL d   1      -0.002  -3.650   2.429  0.00  0.00    -0.059 A 
ATOM      6  C   UNL d   1      -0.809  -4.106   1.385  0.00  0.00     0.009 A 
ATOM      7  C   UNL d   1       0.520  -4.626   3.443  0.00  0.00     0.048 C 
ENDROOT
BRANCH   2   8
ATOM      8  N   UNL d   1      -1.359  -1.153  -0.717  0.00  0.00    -0.336 N 
ATOM      9  H   UNL d   1      -2.253  -1.454  -1.095  0.00  0.00     0.168 HD
BRANCH   8  10
ATOM     10  C   UNL d   1      -0.882  -0.064  -1.346  0.00  0.00     0.151 C 
ATOM     11  S   UNL d   1      -1.930   0.842  -2.281  0.00  0.00    -0.047 SA
BRANCH  10  12
ATOM     12  N   UNL d   1       0.413   0.315  -1.262  0.00  0.00    -0.261 NA
ATOM     13  H   UNL d   1       0.459   1.263  -1.626  0.00  0.00     0.130 HD
BRANCH  12  14
ATOM     14  C   UNL d   1       1.625  -0.429  -1.722  0.00  0.00     0.006 C 
ATOM     15  C   UNL d   1       1.623  -0.554  -3.257  0.00  0.00     0.032 C 
ATOM     16  C   UNL d   1       2.837   0.414  -1.291  0.00  0.00     0.032 C 
ATOM     17  C   UNL d   1       1.794  -1.839  -1.150  0.00  0.00     0.032 C 
ENDBRANCH  12  14
ENDBRANCH  10  12
ENDBRANCH   8  10
ENDBRANCH   2   8
BRANCH   1  18
ATOM     18  N   UNL d   1       0.140   0.006   1.701  0.00  0.00    -0.113 N 
ATOM     19  O   UNL d   1      -0.808   0.803   1.671  0.00  0.00    -0.532 OA
ATOM     20  O   UNL d   1       1.311   0.301   1.991  0.00  0.00    -0.532 OA
ENDBRANCH   1  18
TORSDOF 5
