REMARK  6 active torsions:
REMARK  status: ('A' for Active; 'I' for Inactive)
REMARK    1  A    between atoms: C_2  and  S_1 
REMARK    2  A    between atoms: C_3  and  S_1 
REMARK    3  A    between atoms: C_6  and  C_4 
REMARK    4  A    between atoms: C_5  and  N_16 
REMARK    5  A    between atoms: O_21  and  C_6 
REMARK    6  A    between atoms: N_16  and  C_11 
ROOT
ATOM      1  C   UNL d   1       0.311   1.453  -0.747  0.00  0.00     0.160 C 
ATOM      2  C   UNL d   1      -0.485   1.306  -1.820  0.00  0.00     0.141 C 
ATOM      3  C   UNL d   1       0.780   0.353   0.003  0.00  0.00     0.113 C 
ATOM      4  N   UNL d   1       1.161  -0.559   0.612  0.00  0.00    -0.191 NA
ENDROOT
BRANCH   1   5
ATOM      5  S   UNL d   1       0.698   3.059  -0.232  0.00  0.00     0.219 S 
ATOM      6  O   UNL d   1      -0.507   3.613   0.378  0.00  0.00    -0.216 OA
ATOM      7  O   UNL d   1       1.339   3.828  -1.283  0.00  0.00    -0.216 OA
BRANCH   5   8
ATOM      8  C   UNL d   1       1.899   2.942   1.089  0.00  0.00     0.081 A 
ATOM      9  C   UNL d   1       3.223   2.524   0.874  0.00  0.00     0.061 A 
ATOM     10  C   UNL d   1       4.097   2.458   1.977  0.00  0.00     0.019 A 
ATOM     11  C   UNL d   1       3.683   2.853   3.250  0.00  0.00     0.001 A 
ATOM     12  C   UNL d   1       2.389   3.323   3.443  0.00  0.00     0.002 A 
ATOM     13  C   UNL d   1       1.499   3.367   2.370  0.00  0.00     0.025 A 
BRANCH   9  14
ATOM     14  C   UNL d   1       3.734   2.091  -0.454  0.00  0.00     0.294 C 
ATOM     15  O   UNL d   1       3.046   1.552  -1.301  0.00  0.00    -0.259 OA
BRANCH  14  16
ATOM     16  O   UNL d   1       5.061   2.347  -0.547  0.00  0.00    -0.322 OA
ATOM     17  C   UNL d   1       5.676   1.892  -1.755  0.00  0.00     0.213 C 
ENDBRANCH  14  16
ENDBRANCH   9  14
ENDBRANCH   5   8
ENDBRANCH   1   5
BRANCH   2  18
ATOM     18  N   UNL d   1      -0.930   0.138  -2.391  0.00  0.00    -0.200 N 
ATOM     19  H   UNL d   1      -0.621  -0.761  -2.044  0.00  0.00     0.183 HD
BRANCH  18  20
ATOM     20  C   UNL d   1      -1.825  -0.016  -3.445  0.00  0.00     0.682 A 
ATOM     21  N   UNL d   1      -2.369   1.057  -4.036  0.00  0.00    -0.196 N 
ATOM     22  C   UNL d   1      -3.240   0.839  -5.041  0.00  0.00     0.024 A 
ATOM     23  HN  UNL d   1      -2.133   2.003  -3.737  1.00  0.00     0.184 HD
ATOM     24  C   UNL d   1      -3.841   2.046  -5.695  0.00  0.00     0.068 C 
ATOM     25  C   UNL d   1      -3.580  -0.429  -5.462  0.00  0.00     0.050 A 
ATOM     26  C   UNL d   1      -2.977  -1.477  -4.798  0.00  0.00     0.024 A 
ATOM     27  N   UNL d   1      -2.101  -1.282  -3.793  0.00  0.00    -0.196 N 
ATOM     28  C   UNL d   1      -3.285  -2.893  -5.179  0.00  0.00     0.068 C 
ATOM     29  HN  UNL d   1      -1.663  -2.069  -3.313  1.00  0.00     0.184 HD
ENDBRANCH  18  20
ENDBRANCH   2  18
TORSDOF 6
