REMARK  5 active torsions:
REMARK  status: ('A' for Active; 'I' for Inactive)
REMARK    1  A    between atoms: N_8  and  C_2 
REMARK    2  A    between atoms: C_7  and  N_8 
REMARK    3  A    between atoms: N_15  and  C_7 
REMARK    4  A    between atoms: N_10  and  N_15 
REMARK    5  A    between atoms: C_21  and  C_20 
ROOT
ATOM      1  C   UNL d   1       4.877   1.969  -1.999  0.00  0.00     0.186 C 
ATOM      2  S   UNL d   1       5.936   1.208  -0.974  0.00  0.00    -0.040 SA
ENDROOT
BRANCH   1   3
ATOM      3  N   UNL d   1       3.597   2.361  -1.727  0.00  0.00    -0.361 N 
ATOM      4  H   UNL d   1       3.190   2.736  -2.580  0.00  0.00     0.162 HD
BRANCH   3   5
ATOM      5  C   UNL d   1       2.690   2.021  -0.638  0.00  0.00     0.089 C 
ATOM      6  C   UNL d   1       1.854   0.760  -0.981  0.00  0.00     0.017 C 
ATOM      7  C   UNL d   1       0.983   0.388   0.247  0.00  0.00     0.018 A 
ATOM      8  C   UNL d   1       0.822   1.347  -1.955  0.00  0.00     0.012 C 
ATOM      9  C   UNL d   1      -0.111   1.489   0.253  0.00  0.00     0.001 A 
ATOM     10  C   UNL d   1       0.195  -0.878   0.114  0.00  0.00    -0.025 A 
ATOM     11  C   UNL d   1      -1.465   0.789   0.065  0.00  0.00     0.032 A 
ATOM     12  C   UNL d   1       0.311   2.373  -0.940  0.00  0.00    -0.007 C 
ATOM     13  C   UNL d   1      -1.119  -0.662   0.027  0.00  0.00    -0.030 A 
ATOM     14  C   UNL d   1       1.604   3.115  -0.535  0.00  0.00     0.030 C 
ENDBRANCH   3   5
ENDBRANCH   1   3
BRANCH   1  15
ATOM     15  N   UNL d   1       5.233   2.293  -3.303  0.00  0.00    -0.277 N 
ATOM     16  H   UNL d   1       6.157   2.044  -3.640  0.00  0.00     0.189 HD
BRANCH  15  17
ATOM     17  N   UNL d   1       4.277   2.802  -4.140  0.00  0.00    -0.309 N 
ATOM     18  C   UNL d   1       4.612   2.966  -5.377  0.00  0.00     0.118 C 
ATOM     19  HN  UNL d   1       3.345   3.041  -3.803  1.00  0.00     0.186 HD
BRANCH  18  20
ATOM     20  C   UNL d   1       3.617   3.468  -6.353  0.00  0.00    -0.018 A 
ATOM     21  C   UNL d   1       2.336   3.846  -5.933  0.00  0.00     0.038 A 
ATOM     22  C   UNL d   1       1.394   4.288  -6.865  0.00  0.00     0.056 A 
ATOM     23 CL   UNL d   1      -0.167   4.734  -6.280  0.00  0.00    -0.083 Cl
ATOM     24  C   UNL d   1       1.732   4.350  -8.220  0.00  0.00     0.055 A 
ATOM     25  C   UNL d   1       3.016   3.974  -8.635  0.00  0.00     0.026 A 
ATOM     26 CL   UNL d   1       0.620   4.876  -9.432  0.00  0.00    -0.083 Cl
ATOM     27  C   UNL d   1       3.962   3.534  -7.702  0.00  0.00     0.014 A 
ENDBRANCH  18  20
ENDBRANCH  15  17
ENDBRANCH   1  15
TORSDOF 5
