REMARK  1 active torsions:
REMARK  status: ('A' for Active; 'I' for Inactive)
REMARK    1  A    between atoms: N_6  and  C_4 
REMARK       I    between atoms: C_7  and  N_6 
REMARK       I    between atoms: N_11  and  C_7 
ROOT
ATOM      1  N   UNL d   1      -0.064   0.861  -0.041  0.00  0.00    -0.276 N 
ATOM      2  N   UNL d   1       0.785  -1.183   0.021  0.00  0.00    -0.313 N 
ATOM      3  C   UNL d   1       1.089   0.150  -0.046  0.00  0.00     0.324 A 
ATOM      4  C   UNL d   1      -0.618  -1.423   0.101  0.00  0.00     0.284 A 
ATOM      5  C   UNL d   1      -1.129   0.030   0.120  0.00  0.00     0.268 A 
ATOM      6  O   UNL d   1       2.213   0.618  -0.083  0.00  0.00    -0.247 OA
ATOM      7  O   UNL d   1      -2.285   0.384   0.309  0.00  0.00    -0.269 OA
ATOM      8  H   UNL d   1      -0.101   1.865  -0.012  0.00  0.00     0.173 HD
ATOM      9  H   UNL d   1       1.484  -1.914   0.040  0.00  0.00     0.166 HD
ENDROOT
BRANCH   4  10
ATOM     10  N   UNL d   1      -0.995  -2.122   1.294  0.00  0.00    -0.314 N 
ATOM     11  C   UNL d   1      -0.666  -3.434   1.424  0.00  0.00     0.315 C 
ATOM     12  O   UNL d   1       0.038  -4.066   0.652  0.00  0.00    -0.248 OA
ATOM     13  N   UNL d   1      -1.193  -3.990   2.542  0.00  0.00    -0.352 N 
ATOM     14  H   UNL d   1      -1.261  -3.399   3.357  0.00  0.00     0.160 HD
ATOM     15  H   UNL d   1      -0.841  -4.923   2.728  0.00  0.00     0.160 HD
ATOM     16  H   UNL d   1      -1.905  -1.883   1.667  0.00  0.00     0.166 HD
ENDBRANCH   4  10
TORSDOF 1
