REMARK  8 active torsions:
REMARK  status: ('A' for Active; 'I' for Inactive)
REMARK    1  A    between atoms: C_18  and  N_1 
REMARK    2  A    between atoms: S_14  and  C_2 
REMARK    3  A    between atoms: C_16  and  C_3 
REMARK    4  A    between atoms: C_17  and  C_4 
REMARK    5  A    between atoms: O_21  and  C_5 
REMARK    6  A    between atoms: C_10  and  C_15 
REMARK    7  A    between atoms: C_19  and  S_14 
REMARK    8  A    between atoms: C_15  and  C_19 
ROOT
ATOM      1  C   UNL d   1       5.139   1.524   0.001  0.00  0.00     0.169 C 
ATOM      2  O   UNL d   1       4.645   0.907   0.944  0.00  0.00    -0.291 OA
ENDROOT
BRANCH   1   3
ATOM      3  C   UNL d   1       5.024   3.018  -0.004  0.00  0.00     0.012 A 
ATOM      4  C   UNL d   1       5.763   3.821  -0.876  0.00  0.00     0.026 A 
ATOM      5  C   UNL d   1       5.627   5.224  -0.887  0.00  0.00    -0.016 A 
ATOM      6  C   UNL d   1       4.648   5.771  -0.022  0.00  0.00     0.079 A 
ATOM      7  C   UNL d   1       3.923   5.008   0.928  0.00  0.00    -0.016 A 
ATOM      8  C   UNL d   1       4.146   3.620   0.908  0.00  0.00     0.026 A 
BRANCH   5   9
ATOM      9  C   UNL d   1       6.497   6.066  -1.859  0.00  0.00    -0.021 C 
ATOM     10  C   UNL d   1       5.760   6.169  -3.207  0.00  0.00     0.019 C 
ATOM     11  C   UNL d   1       6.818   7.493  -1.351  0.00  0.00     0.019 C 
ATOM     12  C   UNL d   1       7.888   5.421  -2.114  0.00  0.00     0.019 C 
ENDBRANCH   5   9
BRANCH   6  13
ATOM     13  O   UNL d   1       4.327   7.089  -0.177  0.00  0.00    -0.360 OA
ATOM     14  H   UNL d   1       4.791   7.567   0.530  0.00  0.00     0.217 HD
ENDBRANCH   6  13
BRANCH   7  15
ATOM     15  C   UNL d   1       2.929   5.627   1.945  0.00  0.00    -0.021 C 
ATOM     16  C   UNL d   1       2.274   4.582   2.889  0.00  0.00     0.019 C 
ATOM     17  C   UNL d   1       3.655   6.624   2.878  0.00  0.00     0.019 C 
ATOM     18  C   UNL d   1       1.763   6.341   1.227  0.00  0.00     0.019 C 
ENDBRANCH   7  15
ENDBRANCH   1   3
BRANCH   1  19
ATOM     19  C   UNL d   1       5.887   0.858  -1.145  0.00  0.00     0.166 C 
BRANCH  19  20
ATOM     20  S   UNL d   1       5.716  -0.950  -1.091  0.00  0.00    -0.084 SA
BRANCH  20  21
ATOM     21  C   UNL d   1       6.904  -1.390  -2.271  0.00  0.00     0.167 A 
ATOM     22  N   UNL d   1       7.946  -2.281  -2.075  0.00  0.00    -0.286 N 
ATOM     23  C   UNL d   1       8.389  -2.533  -3.356  0.00  0.00     0.207 A 
ATOM     24  N   UNL d   1       7.759  -1.778  -4.226  0.00  0.00    -0.294 N 
ATOM     25  N   UNL d   1       6.824  -1.050  -3.539  0.00  0.00    -0.279 N 
ATOM     26  HN  UNL d   1       7.934  -1.740  -5.230  1.00  0.00     0.187 HD
ATOM     27  HN  UNL d   1       6.180  -0.368  -3.939  1.00  0.00     0.189 HD
BRANCH  22  28
ATOM     28  C   UNL d   1       8.528  -2.798  -0.885  0.00  0.00     0.042 A 
ATOM     29  C   UNL d   1       9.224  -4.016  -0.918  0.00  0.00     0.030 A 
ATOM     30  C   UNL d   1       9.833  -4.511   0.239  0.00  0.00     0.002 A 
ATOM     31  C   UNL d   1       9.768  -3.790   1.429  0.00  0.00     0.000 A 
ATOM     32  C   UNL d   1       9.090  -2.575   1.466  0.00  0.00     0.002 A 
ATOM     33  C   UNL d   1       8.474  -2.077   0.319  0.00  0.00     0.030 A 
ENDBRANCH  22  28
ENDBRANCH  20  21
ENDBRANCH  19  20
ENDBRANCH   1  19
TORSDOF 8
