REMARK  4 active torsions:
REMARK  status: ('A' for Active; 'I' for Inactive)
REMARK    1  A    between atoms: C_8  and  N_1 
REMARK    2  A    between atoms: C_7  and  C_9 
REMARK    3  A    between atoms: O_16  and  C_7 
REMARK    4  A    between atoms: C_18  and  O_16 
ROOT
ATOM      1  C   UNL d   1       1.312   2.323   0.139  0.00  0.00     0.059 A 
ATOM      2  C   UNL d   1       2.714   4.779   0.220  0.00  0.00     0.039 A 
ATOM      3  C   UNL d   1       2.328   2.602  -0.786  0.00  0.00     0.032 A 
ATOM      4  C   UNL d   1       1.019   3.294   1.110  0.00  0.00     0.032 A 
ATOM      5  C   UNL d   1       1.714   4.506   1.158  0.00  0.00     0.020 A 
ATOM      6  C   UNL d   1       3.020   3.820  -0.751  0.00  0.00     0.020 A 
ENDROOT
BRANCH   1   7
ATOM      7  N   UNL d   1       0.586   1.110   0.108  0.00  0.00    -0.224 N 
ATOM      8  C   UNL d   1       0.820  -0.017  -0.698  0.00  0.00     0.248 A 
ATOM      9  C   UNL d   1      -0.248  -0.990  -0.301  0.00  0.00     0.158 A 
ATOM     10  O   UNL d   1       1.680  -0.238  -1.534  0.00  0.00    -0.271 OA
ATOM     11  C   UNL d   1      -1.017  -0.188   0.696  0.00  0.00     0.009 A 
ATOM     12  N   UNL d   1      -0.516   0.984   0.935  0.00  0.00    -0.299 N 
ATOM     13  C   UNL d   1      -2.241  -0.717   1.356  0.00  0.00     0.065 C 
ATOM     14  HN  UNL d   1      -0.865   1.674   1.600  1.00  0.00     0.187 HD
ENDBRANCH   1   7
BRANCH   2  15
ATOM     15  C   UNL d   1       3.357   6.118   0.254  0.00  0.00     0.293 C 
ATOM     16  O   UNL d   1       3.071   6.982   1.069  0.00  0.00    -0.259 OA
BRANCH  15  17
ATOM     17  O   UNL d   1       4.204   6.256  -0.795  0.00  0.00    -0.318 OA
BRANCH  17  18
ATOM     18  C   UNL d   1       4.589   7.603  -1.100  0.00  0.00     0.174 C 
ATOM     19  C   UNL d   1       3.564   8.184  -2.058  0.00  0.00     0.034 C 
ENDBRANCH  17  18
ENDBRANCH  15  17
ENDBRANCH   2  15
TORSDOF 4
