REMARK  7 active torsions:
REMARK  status: ('A' for Active; 'I' for Inactive)
REMARK    1  A    between atoms: C_3  and  C_1 
REMARK    2  A    between atoms: C_6  and  C_1 
REMARK    3  A    between atoms: C_4  and  C_2 
REMARK    4  A    between atoms: C_8  and  C_3 
REMARK    5  A    between atoms: C_5  and  C_4 
REMARK    6  A    between atoms: C_15  and  C_12 
REMARK    7  A    between atoms: C_16  and  C_15 
ROOT
ATOM      1  C   UNL d   1       0.605  -0.035  -0.357  0.00  0.00     0.029 C 
ATOM      2  C   UNL d   1      -0.017  -0.939   0.427  0.00  0.00     0.072 C 
ENDROOT
BRANCH   1   3
ATOM      3  C   UNL d   1       1.895  -0.252  -1.099  0.00  0.00     0.193 C 
ATOM      4  O   UNL d   1       2.867  -0.758  -0.546  0.00  0.00    -0.287 OA
BRANCH   3   5
ATOM      5  C   UNL d   1       2.020   0.171  -2.529  0.00  0.00     0.015 A 
ATOM      6  C   UNL d   1       1.618   1.422  -3.015  0.00  0.00     0.015 A 
ATOM      7  C   UNL d   1       1.734   1.737  -4.376  0.00  0.00     0.001 A 
ATOM      8  C   UNL d   1       2.303   0.828  -5.256  0.00  0.00     0.000 A 
ATOM      9  C   UNL d   1       2.777  -0.393  -4.777  0.00  0.00     0.001 A 
ATOM     10  C   UNL d   1       2.637  -0.717  -3.420  0.00  0.00     0.015 A 
ENDBRANCH   3   5
ENDBRANCH   1   3
BRANCH   1  11
ATOM     11  C   UNL d   1       0.008   1.311  -0.256  0.00  0.00    -0.022 A 
ATOM     12  C   UNL d   1       0.432   2.168   0.769  0.00  0.00     0.012 A 
ATOM     13  C   UNL d   1      -0.155   3.423   0.921  0.00  0.00     0.001 A 
ATOM     14  C   UNL d   1      -1.156   3.833   0.042  0.00  0.00     0.000 A 
ATOM     15  C   UNL d   1      -1.588   2.983  -0.976  0.00  0.00     0.001 A 
ATOM     16  C   UNL d   1      -1.025   1.714  -1.113  0.00  0.00     0.012 A 
ENDBRANCH   1  11
BRANCH   2  17
ATOM     17  C   UNL d   1       0.276  -2.372   0.725  0.00  0.00     0.183 C 
ATOM     18  O   UNL d   1       1.181  -3.021   0.234  0.00  0.00    -0.288 OA
BRANCH  17  19
ATOM     19  C   UNL d   1      -0.684  -2.995   1.683  0.00  0.00     0.014 A 
ATOM     20  C   UNL d   1      -2.019  -3.171   1.303  0.00  0.00     0.016 A 
ATOM     21  C   UNL d   1      -2.941  -3.723   2.201  0.00  0.00     0.008 A 
ATOM     22  C   UNL d   1      -2.548  -4.107   3.491  0.00  0.00    -0.058 A 
ATOM     23  C   UNL d   1      -1.208  -3.912   3.868  0.00  0.00     0.008 A 
ATOM     24  C   UNL d   1      -0.276  -3.371   2.967  0.00  0.00     0.016 A 
BRANCH  22  25
ATOM     25  C   UNL d   1      -3.532  -4.807   4.410  0.00  0.00     0.042 C 
BRANCH  25  26
ATOM     26  C   UNL d   1      -4.159  -3.963   5.541  0.00  0.00    -0.019 C 
ATOM     27  C   UNL d   1      -5.125  -2.897   5.017  0.00  0.00     0.010 C 
ATOM     28  C   UNL d   1      -4.923  -4.883   6.506  0.00  0.00     0.010 C 
ENDBRANCH  25  26
ENDBRANCH  22  25
ENDBRANCH  17  19
ENDBRANCH   2  17
TORSDOF 7
