REMARK  5 active torsions:
REMARK  status: ('A' for Active; 'I' for Inactive)
REMARK    1  A    between atoms: C_4  and  N_1 
REMARK    2  A    between atoms: N_8  and  N_6 
REMARK    3  A    between atoms: C_11  and  C_15 
REMARK    4  A    between atoms: O_17  and  C_12 
REMARK    5  A    between atoms: O_16  and  C_14 
ROOT
ATOM      1  N   UNL d   1      -0.322   1.078  -0.147  0.00  0.00    -0.258 N 
ATOM      2  C   UNL d   1       0.988   0.663  -0.186  0.00  0.00     0.169 C 
ATOM      3  C   UNL d   1      -1.297   0.129  -0.378  0.00  0.00     0.240 C 
ATOM      4  S   UNL d   1       1.075  -1.070  -0.402  0.00  0.00    -0.083 SA
ATOM      5  N   UNL d   1       1.994   1.469  -0.045  0.00  0.00    -0.280 N 
ATOM      6  HN  UNL d   1       1.878   2.472   0.104  1.00  0.00     0.189 HD
ATOM      7  C   UNL d   1      -0.715  -1.260  -0.416  0.00  0.00     0.186 C 
ATOM      8  O   UNL d   1      -2.495   0.338  -0.558  0.00  0.00    -0.272 OA
ENDROOT
BRANCH   1   9
ATOM      9  C   UNL d   1      -0.651   2.448  -0.063  0.00  0.00     0.077 A 
ATOM     10  C   UNL d   1      -1.179   3.028   1.101  0.00  0.00     0.095 A 
ATOM     11  C   UNL d   1      -1.501   4.391   1.094  0.00  0.00     0.039 A 
ATOM     12  C   UNL d   1      -1.296   5.173  -0.045  0.00  0.00     0.003 A 
ATOM     13  C   UNL d   1      -0.779   4.594  -1.200  0.00  0.00     0.002 A 
ATOM     14  C   UNL d   1      -0.451   3.239  -1.208  0.00  0.00     0.033 A 
BRANCH  10  15
ATOM     15  O   UNL d   1      -1.482   2.391   2.275  0.00  0.00    -0.354 OA
ATOM     16  C   UNL d   1      -0.511   1.481   2.776  0.00  0.00     0.210 C 
ENDBRANCH  10  15
ENDBRANCH   1   9
BRANCH   5  17
ATOM     17  N   UNL d   1       3.240   0.864  -0.114  0.00  0.00    -0.309 N 
ATOM     18  C   UNL d   1       4.201   1.725  -0.008  0.00  0.00     0.121 C 
ATOM     19  HN  UNL d   1       3.382  -0.139  -0.233  1.00  0.00     0.186 HD
BRANCH  18  20
ATOM     20  C   UNL d   1       5.608   1.295  -0.100  0.00  0.00     0.014 A 
ATOM     21  C   UNL d   1       5.962  -0.041  -0.329  0.00  0.00     0.077 A 
ATOM     22  C   UNL d   1       7.301  -0.403  -0.436  0.00  0.00     0.037 A 
ATOM     23  C   UNL d   1       8.295   0.567  -0.312  0.00  0.00     0.003 A 
ATOM     24  C   UNL d   1       7.949   1.901  -0.079  0.00  0.00     0.001 A 
ATOM     25  C   UNL d   1       6.608   2.265   0.027  0.00  0.00     0.015 A 
BRANCH  21  26
ATOM     26  O   UNL d   1       5.049  -1.052  -0.463  0.00  0.00    -0.360 OA
ATOM     27  H   UNL d   1       4.152  -0.662  -0.371  0.00  0.00     0.217 HD
ENDBRANCH  21  26
ENDBRANCH  18  20
ENDBRANCH   5  17
TORSDOF 5
