REMARK  2 active torsions:
REMARK  status: ('A' for Active; 'I' for Inactive)
REMARK    1  A    between atoms: N_5  and  C_4 
REMARK    2  A    between atoms: C_11  and  N_5 
ROOT
ATOM      1  C   UNL d   1      -1.274  -0.112   0.113  0.00  0.00     0.071 C 
ATOM      2  C   UNL d   1      -0.465  -1.355   0.245  0.00  0.00     0.165 C 
ATOM      3  C   UNL d   1      -0.639   1.234   0.198  0.00  0.00     0.165 C 
ATOM      4  C   UNL d   1      -2.602  -0.159  -0.090  0.00  0.00     0.107 C 
ATOM      5  C   UNL d   1       1.631   0.072  -0.029  0.00  0.00    -0.034 C 
ATOM      6  C   UNL d   1       1.007  -1.200   0.566  0.00  0.00     0.093 C 
ATOM      7  C   UNL d   1       0.850   1.306   0.449  0.00  0.00     0.093 C 
ATOM      8  O   UNL d   1      -0.972  -2.473   0.153  0.00  0.00    -0.292 OA
ATOM      9  O   UNL d   1      -1.300   2.270   0.127  0.00  0.00    -0.292 OA
ATOM     10  C   UNL d   1       3.084   0.195   0.470  0.00  0.00     0.015 C 
ATOM     11  C   UNL d   1       1.661   0.002  -1.569  0.00  0.00     0.015 C 
ENDROOT
BRANCH   4  12
ATOM     12  N   UNL d   1      -3.427  -1.247  -0.239  0.00  0.00    -0.363 N 
ATOM     13  H   UNL d   1      -2.963  -2.162  -0.288  0.00  0.00     0.165 HD
BRANCH  12  14
ATOM     14  C   UNL d   1      -4.827  -1.261  -0.409  0.00  0.00     0.053 A 
ATOM     15  C   UNL d   1      -5.465  -2.346  -1.040  0.00  0.00     0.060 A 
ATOM     16 CL   UNL d   1      -4.563  -3.734  -1.549  0.00  0.00    -0.082 Cl
ATOM     17  C   UNL d   1      -6.843  -2.333  -1.292  0.00  0.00     0.026 A 
ATOM     18  C   UNL d   1      -7.611  -1.234  -0.914  0.00  0.00     0.002 A 
ATOM     19  C   UNL d   1      -7.004  -0.155  -0.279  0.00  0.00     0.002 A 
ATOM     20  C   UNL d   1      -5.627  -0.168  -0.036  0.00  0.00     0.031 A 
ENDBRANCH  12  14
ENDBRANCH   4  12
TORSDOF 2
