REMARK  4 active torsions:
REMARK  status: ('A' for Active; 'I' for Inactive)
REMARK       I    between atoms: N_2  and  C_1 
REMARK    1  A    between atoms: C_4  and  C_1 
REMARK    2  A    between atoms: C_6  and  N_2 
REMARK    3  A    between atoms: C_7  and  N_3 
REMARK    4  A    between atoms: C_18  and  C_7 
ROOT
ATOM      1  N   UNL d   1       0.518  -4.846   0.017  0.00  0.00     0.092 N 
ATOM      2  C   UNL d   1       1.254  -2.215  -1.099  0.00  0.00     0.088 C 
ATOM      3  C   UNL d   1       0.466  -3.249  -1.903  0.00  0.00     0.055 C 
ATOM      4  C   UNL d   1       1.991  -2.867   0.072  0.00  0.00     0.055 C 
ATOM      5  C   UNL d   1      -0.312  -4.237  -1.037  0.00  0.00     0.275 C 
ATOM      6  C   UNL d   1       1.090  -3.800   0.879  0.00  0.00     0.275 C 
ENDROOT
BRANCH   2   7
ATOM      7  N   UNL d   1       0.442  -1.076  -0.653  0.00  0.00    -0.352 N 
ATOM      8  C   UNL d   1       1.044   0.162  -0.491  0.00  0.00     0.252 C 
ATOM      9  O   UNL d   1       2.220   0.368  -0.785  0.00  0.00    -0.268 OA
ATOM     10  H   UNL d   1      -0.520  -1.222  -0.389  0.00  0.00     0.163 HD
BRANCH   8  11
ATOM     11  C   UNL d   1       0.242   1.293   0.046  0.00  0.00     0.032 A 
ATOM     12  C   UNL d   1      -0.853   1.129   0.904  0.00  0.00     0.018 A 
ATOM     13  C   UNL d   1      -1.500   2.255   1.432  0.00  0.00     0.025 A 
ATOM     14  C   UNL d   1      -1.057   3.539   1.107  0.00  0.00     0.034 A 
ATOM     15  C   UNL d   1       0.027   3.714   0.252  0.00  0.00     0.025 A 
ATOM     16 CL   UNL d   1      -1.841   4.915   1.779  0.00  0.00    -0.084 Cl
ATOM     17  C   UNL d   1       0.674   2.594  -0.271  0.00  0.00     0.018 A 
ENDBRANCH   8  11
ENDBRANCH   2   7
BRANCH   1  18
ATOM     18  C   UNL d   1      -0.302  -5.811   0.779  0.00  0.00     0.311 C 
BRANCH  18  19
ATOM     19  C   UNL d   1       0.423  -6.543   1.890  0.00  0.00    -0.030 A 
ATOM     20  C   UNL d   1       0.003  -6.394   3.221  0.00  0.00     0.009 A 
ATOM     21  C   UNL d   1       0.644  -7.082   4.253  0.00  0.00     0.001 A 
ATOM     22  C   UNL d   1       1.712  -7.929   3.966  0.00  0.00     0.000 A 
ATOM     23  C   UNL d   1       2.140  -8.087   2.649  0.00  0.00     0.001 A 
ATOM     24  C   UNL d   1       1.501  -7.398   1.615  0.00  0.00     0.009 A 
ENDBRANCH  18  19
ENDBRANCH   1  18
TORSDOF 4
