REMARK  7 active torsions:
REMARK  status: ('A' for Active; 'I' for Inactive)
REMARK    1  A    between atoms: N_4  and  C_1 
REMARK    2  A    between atoms: C_9  and  C_2 
REMARK       I    between atoms: C_6  and  N_4 
REMARK    3  A    between atoms: C_5  and  C_8 
REMARK    4  A    between atoms: C_10  and  C_6 
REMARK    5  A    between atoms: C_8  and  C_10 
REMARK    6  A    between atoms: O_18  and  C_9 
REMARK    7  A    between atoms: C_20  and  O_18 
ROOT
ATOM      1  C   UNL d   1       0.428  -0.837   1.034  0.00  0.00     0.093 C 
ATOM      2  C   UNL d   1       1.353   0.182   0.867  0.00  0.00     0.079 C 
ATOM      3  S   UNL d   1      -1.175  -0.284   1.196  0.00  0.00    -0.083 SA
ATOM      4  C   UNL d   1       0.637   1.435   0.600  0.00  0.00    -0.036 C 
ATOM      5  C   UNL d   1      -0.731   1.288   0.736  0.00  0.00     0.059 C 
ATOM      6  C   UNL d   1       1.259   2.749   0.237  0.00  0.00     0.050 C 
ENDROOT
BRANCH   1   7
ATOM      7  N   UNL d   1       0.461  -2.219   1.104  0.00  0.00    -0.320 N 
ATOM      8  C   UNL d   1       1.048  -2.926   0.062  0.00  0.00     0.229 C 
ATOM      9  O   UNL d   1       1.803  -2.465  -0.782  0.00  0.00    -0.273 OA
ATOM     10  H   UNL d   1      -0.393  -2.616   1.479  0.00  0.00     0.169 HD
BRANCH   8  11
ATOM     11  C   UNL d   1       0.598  -4.361  -0.008  0.00  0.00     0.191 C 
BRANCH  11  12
ATOM     12  C   UNL d   1       1.506  -5.307   0.715  0.00  0.00     0.241 C 
ATOM     13  O   UNL d   1       1.081  -5.918   1.704  0.00  0.00    -0.288 OA
BRANCH  12  14
ATOM     14  C   UNL d   1       2.904  -5.504   0.155  0.00  0.00     0.451 C 
ATOM     15  F   UNL d   1       3.167  -4.749  -0.941  0.00  0.00    -0.163 F 
ATOM     16  F   UNL d   1       3.868  -5.211   1.069  0.00  0.00    -0.163 F 
ATOM     17  F   UNL d   1       3.113  -6.794  -0.229  0.00  0.00    -0.163 F 
ENDBRANCH  12  14
ENDBRANCH  11  12
ENDBRANCH   8  11
ENDBRANCH   1   7
BRANCH   2  18
ATOM     18  C   UNL d   1       2.817   0.082   0.973  0.00  0.00     0.296 C 
ATOM     19  O   UNL d   1       3.546   1.072   0.991  0.00  0.00    -0.259 OA
BRANCH  18  20
ATOM     20  O   UNL d   1       3.300  -1.184   1.127  0.00  0.00    -0.318 OA
BRANCH  20  21
ATOM     21  C   UNL d   1       4.729  -1.307   1.204  0.00  0.00     0.174 C 
ATOM     22  C   UNL d   1       5.399  -1.074  -0.142  0.00  0.00     0.034 C 
ENDBRANCH  20  21
ENDBRANCH  18  20
ENDBRANCH   2  18
TORSDOF 7
