REMARK  5 active torsions:
REMARK  status: ('A' for Active; 'I' for Inactive)
REMARK    1  A    between atoms: N_8  and  C_2 
REMARK    2  A    between atoms: C_14  and  N_8 
REMARK    3  A    between atoms: O_17  and  C_9 
REMARK    4  A    between atoms: O_18  and  C_10 
REMARK    5  A    between atoms: O_19  and  C_16 
ROOT
ATOM      1  C   UNL d   1       0.176   0.683   0.227  0.00  0.00     0.038 A 
ATOM      2  C   UNL d   1      -1.090   1.302   0.260  0.00  0.00     0.119 A 
ATOM      3  C   UNL d   1       0.199  -0.682  -0.049  0.00  0.00     0.050 A 
ATOM      4  C   UNL d   1       1.405   1.364   0.426  0.00  0.00     0.057 A 
ATOM      5  N   UNL d   1      -2.222   0.590   0.098  0.00  0.00    -0.338 N 
ATOM      6  HN  UNL d   1      -3.141   1.029   0.146  1.00  0.00     0.168 HD
ATOM      7  C   UNL d   1       1.439  -1.308  -0.194  0.00  0.00     0.070 A 
ATOM      8  C   UNL d   1       2.648   0.741   0.253  0.00  0.00     0.102 A 
ATOM      9  C   UNL d   1       2.660  -0.615  -0.070  0.00  0.00     0.103 A 
ATOM     10  N   UNL d   1      -0.921  -1.386  -0.216  0.00  0.00    -0.351 N 
ATOM     11  HN  UNL d   1      -0.897  -2.388  -0.403  1.00  0.00     0.166 HD
ATOM     12  C   UNL d   1      -2.081  -0.718  -0.128  0.00  0.00     0.182 A 
ENDROOT
BRANCH   2  13
ATOM     13  N   UNL d   1      -1.153   2.713   0.436  0.00  0.00    -0.342 N 
ATOM     14  H   UNL d   1      -0.513   3.154  -0.217  0.00  0.00     0.167 HD
BRANCH  13  15
ATOM     15  C   UNL d   1      -2.292   3.532   0.633  0.00  0.00     0.036 A 
ATOM     16  C   UNL d   1      -3.462   3.058   1.235  0.00  0.00     0.066 A 
ATOM     17  C   UNL d   1      -4.566   3.890   1.438  0.00  0.00     0.070 A 
ATOM     18  C   UNL d   1      -4.474   5.240   1.097  0.00  0.00     0.037 A 
ATOM     19  C   UNL d   1      -3.296   5.750   0.557  0.00  0.00     0.005 A 
ATOM     20  C   UNL d   1      -2.208   4.902   0.336  0.00  0.00     0.029 A 
BRANCH  17  21
ATOM     21  O   UNL d   1      -5.768   3.502   1.964  0.00  0.00    -0.356 OA
ATOM     22  C   UNL d   1      -5.940   2.104   2.166  0.00  0.00     0.210 C 
ENDBRANCH  17  21
ENDBRANCH  13  15
ENDBRANCH   2  13
BRANCH   8  23
ATOM     23  O   UNL d   1       3.662   1.636   0.403  0.00  0.00    -0.353 OA
ATOM     24  C   UNL d   1       5.003   1.262   0.168  0.00  0.00     0.210 C 
ENDBRANCH   8  23
BRANCH   9  25
ATOM     25  O   UNL d   1       3.773  -1.295  -0.484  0.00  0.00    -0.353 OA
ATOM     26  C   UNL d   1       4.591  -1.782   0.576  0.00  0.00     0.210 C 
ENDBRANCH   9  25
TORSDOF 5
