REMARK  3 active torsions:
REMARK  status: ('A' for Active; 'I' for Inactive)
REMARK    1  A    between atoms: C_5  and  C_1 
REMARK    2  A    between atoms: O_16  and  C_1 
REMARK    3  A    between atoms: C_8  and  C_2 
ROOT
ATOM      1  C   UNL d   1      -0.671   0.828  -0.596  0.00  0.00     0.233 C 
ATOM      2  C   UNL d   1       0.990  -0.697  -0.040  0.00  0.00     0.037 C 
ATOM      3  N   UNL d   1       0.482  -0.323   1.100  0.00  0.00    -0.322 N 
ATOM      4  HN  UNL d   1       0.849  -0.528   2.029  1.00  0.00     0.180 HD
ATOM      5  N   UNL d   1      -0.627   0.392   0.806  0.00  0.00    -0.198 NA
ATOM      6  C   UNL d   1       0.178  -0.268  -1.236  0.00  0.00     0.125 C 
ATOM      7  H   UNL d   1      -0.765   1.167   1.459  0.00  0.00     0.150 HD
ENDROOT
BRANCH   2   8
ATOM      8  C   UNL d   1       2.232  -1.494  -0.187  0.00  0.00     0.008 A 
ATOM      9  C   UNL d   1       3.308  -1.417   0.713  0.00  0.00     0.026 A 
ATOM     10  C   UNL d   1       4.440  -2.225   0.524  0.00  0.00     0.059 A 
ATOM     11 BR   UNL d   1       3.397  -0.210   2.179  0.00  0.00    -0.050 Br
ATOM     12  C   UNL d   1       4.504  -3.104  -0.554  0.00  0.00     0.103 A 
ATOM     13  C   UNL d   1       3.459  -3.154  -1.474  0.00  0.00     0.103 A 
ATOM     14  O   UNL d   1       5.634  -3.872  -0.655  0.00  0.00    -0.346 OA
ATOM     15  C   UNL d   1       2.320  -2.368  -1.285  0.00  0.00     0.054 A 
ATOM     16  O   UNL d   1       3.471  -3.961  -2.581  0.00  0.00    -0.346 OA
ATOM     17  C   UNL d   1       4.788  -4.461  -2.852  0.00  0.00     0.202 C 
ATOM     18  C   UNL d   1       5.449  -4.954  -1.575  0.00  0.00     0.202 C 
ENDBRANCH   2   8
BRANCH   1  19
ATOM     19  C   UNL d   1      -2.104   0.902  -1.215  0.00  0.00     0.434 C 
ATOM     20  F   UNL d   1      -3.043   0.306  -0.446  0.00  0.00    -0.166 F 
ATOM     21  F   UNL d   1      -2.481   2.203  -1.347  0.00  0.00    -0.166 F 
ATOM     22  F   UNL d   1      -2.168   0.342  -2.446  0.00  0.00    -0.166 F 
ENDBRANCH   1  19
BRANCH   1  23
ATOM     23  O   UNL d   1       0.039   2.070  -0.727  0.00  0.00    -0.366 OA
ATOM     24  H   UNL d   1      -0.575   2.769  -0.441  0.00  0.00     0.212 HD
ENDBRANCH   1  23
TORSDOF 3
