REMARK  4 active torsions:
REMARK  status: ('A' for Active; 'I' for Inactive)
REMARK    1  A    between atoms: C_11  and  C_3 
REMARK    2  A    between atoms: C_8  and  C_4 
REMARK    3  A    between atoms: O_15  and  C_10 
REMARK    4  A    between atoms: O_16  and  C_12 
ROOT
ATOM      1  N   UNL d   1       0.789   0.058   0.700  0.00  0.00    -0.319 N 
ATOM      2  HN  UNL d   1       1.422   0.133   1.497  1.00  0.00     0.169 HD
ATOM      3  C   UNL d   1      -0.035   1.023   0.164  0.00  0.00     0.138 A 
ATOM      4  C   UNL d   1       0.558  -0.981  -0.070  0.00  0.00     0.182 A 
ATOM      5  N   UNL d   1      -0.745   0.603  -0.898  0.00  0.00    -0.242 N 
ATOM      6  HN  UNL d   1      -1.414   1.132  -1.457  1.00  0.00     0.196 HD
ATOM      7  O   UNL d   1      -0.350  -0.725  -1.055  0.00  0.00    -0.217 OA
ENDROOT
BRANCH   4   8
ATOM      8  C   UNL d   1       1.097  -2.331   0.019  0.00  0.00     0.020 A 
ATOM      9  C   UNL d   1       1.927  -2.660   1.107  0.00  0.00     0.055 A 
ATOM     10  C   UNL d   1       2.448  -3.952   1.279  0.00  0.00     0.102 A 
ATOM     11  C   UNL d   1       2.151  -4.933   0.318  0.00  0.00     0.101 A 
ATOM     12  C   UNL d   1       1.334  -4.601  -0.774  0.00  0.00     0.040 A 
ATOM     13  C   UNL d   1       0.808  -3.317  -0.924  0.00  0.00     0.019 A 
BRANCH  10  14
ATOM     14  O   UNL d   1       3.225  -4.299   2.352  0.00  0.00    -0.353 OA
ATOM     15  C   UNL d   1       3.515  -3.308   3.330  0.00  0.00     0.210 C 
ENDBRANCH  10  14
BRANCH  11  16
ATOM     16  O   UNL d   1       2.557  -6.240   0.271  0.00  0.00    -0.353 OA
ATOM     17  C   UNL d   1       3.397  -6.738   1.301  0.00  0.00     0.210 C 
ENDBRANCH  11  16
ENDBRANCH   4   8
BRANCH   3  18
ATOM     18  C   UNL d   1      -0.108   2.368   0.720  0.00  0.00     0.010 A 
ATOM     19  C   UNL d   1       0.723   2.735   1.790  0.00  0.00     0.015 A 
ATOM     20  C   UNL d   1       0.673   4.026   2.323  0.00  0.00     0.001 A 
ATOM     21  C   UNL d   1      -0.212   4.962   1.792  0.00  0.00     0.000 A 
ATOM     22  C   UNL d   1      -1.049   4.608   0.735  0.00  0.00     0.001 A 
ATOM     23  C   UNL d   1      -0.999   3.319   0.202  0.00  0.00     0.015 A 
ENDBRANCH   3  18
TORSDOF 4
