REMARK  8 active torsions:
REMARK  status: ('A' for Active; 'I' for Inactive)
REMARK    1  A    between atoms: O_4  and  C_1 
REMARK    2  A    between atoms: C_17  and  O_4 
REMARK    3  A    between atoms: N_15  and  C_24 
REMARK    4  A    between atoms: C_25  and  N_15 
REMARK    5  A    between atoms: C_19  and  C_17 
REMARK    6  A    between atoms: C_18  and  C_25 
REMARK    7  A    between atoms: O_22  and  C_19 
REMARK    8  A    between atoms: C_24  and  C_19 
ROOT
ATOM      1  C   UNL d   1      -2.950   3.963  -0.040  0.00  0.00     0.170 C 
ENDROOT
BRANCH   1   2
ATOM      2  C   UNL d   1      -2.480   4.636   1.261  0.00  0.00     0.209 C 
BRANCH   2   3
ATOM      3  O   UNL d   1      -1.064   4.581   1.341  0.00  0.00    -0.347 OA
BRANCH   3   4
ATOM      4  C   UNL d   1      -0.376   5.191   2.353  0.00  0.00     0.092 A 
ATOM      5  C   UNL d   1      -0.859   5.868   3.494  0.00  0.00     0.046 A 
ATOM      6  C   UNL d   1       0.042   6.418   4.422  0.00  0.00     0.046 A 
ATOM      7 BR   UNL d   1      -2.681   6.138   3.986  0.00  0.00    -0.048 Br
ATOM      8  C   UNL d   1       1.412   6.300   4.238  0.00  0.00     0.036 A 
ATOM      9  C   UNL d   1       1.908   5.638   3.126  0.00  0.00     0.033 A 
ATOM     10 CL   UNL d   1       2.493   6.972   5.394  0.00  0.00    -0.084 Cl
ATOM     11  C   UNL d   1       1.029   5.084   2.179  0.00  0.00    -0.026 A 
ATOM     12  C   UNL d   1       1.653   4.379   0.998  0.00  0.00     0.051 C 
ENDBRANCH   3   4
ENDBRANCH   2   3
ENDBRANCH   1   2
BRANCH   1  13
ATOM     13  O   UNL d   1      -2.516   2.594  -0.100  0.00  0.00    -0.392 OA
ATOM     14  H   UNL d   1      -2.617   2.208   0.787  0.00  0.00     0.210 HD
ENDBRANCH   1  13
BRANCH   1  15
ATOM     15  C   UNL d   1      -4.485   3.972  -0.135  0.00  0.00     0.303 C 
BRANCH  15  16
ATOM     16  N   UNL d   1      -5.086   5.313  -0.081  0.00  0.00     0.090 N 
ATOM     17  H   UNL d   1      -4.910   5.792  -0.965  0.00  0.00     0.316 HD
BRANCH  16  18
ATOM     18  C   UNL d   1      -6.533   5.171   0.095  0.00  0.00     0.308 C 
BRANCH  18  19
ATOM     19  C   UNL d   1      -7.330   6.457   0.144  0.00  0.00    -0.028 A 
ATOM     20  C   UNL d   1      -8.732   6.316   0.201  0.00  0.00     0.048 A 
ATOM     21  C   UNL d   1      -9.507   7.451   0.269  0.00  0.00     0.105 A 
ATOM     22  O   UNL d   1     -10.865   7.473   0.334  0.00  0.00    -0.323 OA
ATOM     23  C   UNL d   1      -8.953   8.704   0.282  0.00  0.00     0.105 A 
ATOM     24  C   UNL d   1     -11.104   8.892   0.394  0.00  0.00     0.352 A 
ATOM     25  O   UNL d   1      -9.896   9.681   0.353  0.00  0.00    -0.323 OA
ATOM     26  C   UNL d   1      -7.587   8.890   0.234  0.00  0.00     0.040 A 
ATOM     27  C   UNL d   1      -6.770   7.750   0.171  0.00  0.00     0.012 A 
ENDBRANCH  18  19
ENDBRANCH  16  18
ENDBRANCH  15  16
ENDBRANCH   1  15
TORSDOF 8
