REMARK  2 active torsions:
REMARK  status: ('A' for Active; 'I' for Inactive)
REMARK    1  A    between atoms: C_2  and  C_1 
REMARK    2  A    between atoms: N_12  and  C_6 
ROOT
ATOM      1  C   UNL d   1       0.994  -1.687   0.001  0.00  0.00     0.009 A 
ATOM      2  C   UNL d   1       2.111  -0.879  -0.002  0.00  0.00     0.065 A 
ATOM      3  S   UNL d   1       1.716   0.777  -0.032  0.00  0.00    -0.100 SA
ATOM      4  C   UNL d   1      -0.235  -0.927  -0.029  0.00  0.00    -0.006 A 
ATOM      5  C   UNL d   1       0.026   0.449  -0.031  0.00  0.00     0.016 A 
ATOM      6  C   UNL d   1      -1.599  -1.327  -0.027  0.00  0.00     0.014 A 
ATOM      7  C   UNL d   1      -1.012   1.405  -0.029  0.00  0.00     0.019 A 
ATOM      8  C   UNL d   1      -2.631  -0.384  -0.027  0.00  0.00     0.001 A 
ATOM      9  C   UNL d   1      -2.338   0.970  -0.025  0.00  0.00     0.001 A 
ENDROOT
BRANCH   1  10
ATOM     10  C   UNL d   1       1.048  -3.159   0.056  0.00  0.00     0.052 A 
ATOM     11  N   UNL d   1       0.047  -3.898  -0.548  0.00  0.00    -0.336 N 
ATOM     12  C   UNL d   1       0.256  -5.176  -0.364  0.00  0.00     0.142 A 
ATOM     13  HN  UNL d   1      -0.740  -3.504  -1.064  1.00  0.00     0.168 HD
ATOM     14  S   UNL d   1       1.682  -5.575   0.505  0.00  0.00    -0.064 SA
ATOM     15  C   UNL d   1       2.032  -3.906   0.671  0.00  0.00     0.083 A 
BRANCH  12  16
ATOM     16  N   UNL d   1      -0.570  -6.129  -0.825  0.00  0.00    -0.380 N 
ATOM     17  H   UNL d   1      -1.217  -5.839  -1.549  0.00  0.00     0.158 HD
ATOM     18  H   UNL d   1      -0.207  -7.067  -0.932  0.00  0.00     0.158 HD
ENDBRANCH  12  16
ENDBRANCH   1  10
TORSDOF 2
