REMARK  5 active torsions:
REMARK  status: ('A' for Active; 'I' for Inactive)
REMARK    1  A    between atoms: C_3  and  C_1 
REMARK    2  A    between atoms: N_7  and  C_2 
REMARK    3  A    between atoms: O_17  and  C_3 
REMARK       I    between atoms: C_5  and  N_7 
REMARK    4  A    between atoms: C_6  and  C_5 
REMARK    5  A    between atoms: C_9  and  C_6 
ROOT
ATOM      1  C   UNL d   1       2.880   2.387  -0.020  0.00  0.00     0.224 C 
ATOM      2  N   UNL d   1       2.578   1.771  -1.224  0.00  0.00    -0.326 N 
ATOM      3  O   UNL d   1       3.953   2.254   0.571  0.00  0.00    -0.273 OA
ATOM      4  H   UNL d   1       1.932   2.236  -1.868  0.00  0.00     0.169 HD
ENDROOT
BRANCH   1   5
ATOM      5  C   UNL d   1       1.780   3.233   0.591  0.00  0.00     0.148 C 
BRANCH   5   6
ATOM      6  C   UNL d   1       1.617   4.666   0.085  0.00  0.00     0.320 C 
ATOM      7  C   UNL d   1       1.302   4.737  -1.421  0.00  0.00     0.251 C 
ATOM      8  N   UNL d   1       1.398   5.972  -2.015  0.00  0.00    -0.358 N 
ATOM      9  O   UNL d   1       0.887   3.775  -2.066  0.00  0.00    -0.271 OA
ATOM     10  C   UNL d   1       2.271   7.005  -1.489  0.00  0.00     0.152 C 
ATOM     11  H   UNL d   1       1.181   5.980  -3.005  0.00  0.00     0.162 HD
ATOM     12  C   UNL d   1       2.432   6.934   0.033  0.00  0.00     0.290 C 
ATOM     13  N   UNL d   1       2.735   5.562   0.472  0.00  0.00     0.099 N 
ATOM     14  H   UNL d   1       3.599   5.238   0.032  0.00  0.00     0.317 HD
ENDBRANCH   5   6
ENDBRANCH   1   5
BRANCH   2  15
ATOM     15  C   UNL d   1       3.316   0.680  -1.699  0.00  0.00     0.058 A 
ATOM     16  C   UNL d   1       3.554   0.382  -3.035  0.00  0.00     0.106 A 
ATOM     17  S   UNL d   1       4.555  -1.015  -3.202  0.00  0.00    -0.094 SA
ATOM     18  C   UNL d   1       4.581  -1.292  -1.526  0.00  0.00     0.053 A 
ATOM     19  C   UNL d   1       3.905  -0.312  -0.841  0.00  0.00     0.038 A 
BRANCH  16  20
ATOM     20  C   UNL d   1       3.167   1.042  -4.263  0.00  0.00     0.302 C 
ATOM     21  O   UNL d   1       3.748   0.955  -5.345  0.00  0.00    -0.259 OA
BRANCH  20  22
ATOM     22  O   UNL d   1       2.018   1.752  -4.084  0.00  0.00    -0.322 OA
ATOM     23  C   UNL d   1       1.477   2.283  -5.295  0.00  0.00     0.213 C 
ENDBRANCH  20  22
ENDBRANCH  16  20
ENDBRANCH   2  15
TORSDOF 5
