REMARK  1 active torsions:
REMARK  status: ('A' for Active; 'I' for Inactive)
REMARK    1  A    between atoms: C_2  and  N_1 
ROOT
ATOM      1  C   UNL d   1      -0.003   2.321  -0.034  0.00  0.00     0.049 A 
ATOM      2  C   UNL d   1       0.680   3.031  -1.033  0.00  0.00     0.054 A 
ATOM      3  C   UNL d   1      -0.689   3.062   0.942  0.00  0.00     0.054 A 
ATOM      4  C   UNL d   1       0.661   4.429  -1.060  0.00  0.00     0.037 A 
ATOM      5  C   UNL d   1      -0.673   4.460   0.924  0.00  0.00     0.037 A 
ATOM      6  C   UNL d   1      -0.006   5.150  -0.079  0.00  0.00     0.048 A 
ATOM      7 CL   UNL d   1      -1.474   5.336   2.171  0.00  0.00    -0.084 Cl
ATOM      8 CL   UNL d   1       1.462   5.267  -2.333  0.00  0.00    -0.084 Cl
ENDROOT
BRANCH   1   9
ATOM      9  N   UNL d   1      -0.001   0.898  -0.009  0.00  0.00    -0.245 N 
ATOM     10  C   UNL d   1      -0.912   0.113   0.644  0.00  0.00     0.255 A 
ATOM     11  C   UNL d   1      -0.538  -1.286   0.414  0.00  0.00     0.080 A 
ATOM     12  O   UNL d   1      -1.909   0.407   1.283  0.00  0.00    -0.268 OA
ATOM     13  C   UNL d   1       0.553  -1.297  -0.346  0.00  0.00     0.080 A 
ATOM     14  C   UNL d   1       0.917   0.096  -0.634  0.00  0.00     0.255 A 
ATOM     15  O   UNL d   1       1.908   0.370  -1.286  0.00  0.00    -0.268 OA
ENDBRANCH   1   9
TORSDOF 1
