REMARK  3 active torsions:
REMARK  status: ('A' for Active; 'I' for Inactive)
REMARK    1  A    between atoms: C_2  and  C_1 
REMARK       I    between atoms: N_9  and  C_2 
REMARK    2  A    between atoms: C_5  and  C_10 
REMARK    3  A    between atoms: C_15  and  N_9 
ROOT
ATOM      1  C   UNL d   1      -0.052   2.317   0.153  0.00  0.00     0.260 C 
ATOM      2  N   UNL d   1      -1.163   3.104  -0.092  0.00  0.00    -0.323 N 
ATOM      3  O   UNL d   1      -0.100   1.184   0.627  0.00  0.00    -0.267 OA
ATOM      4  H   UNL d   1      -1.043   3.913  -0.681  0.00  0.00     0.169 HD
ENDROOT
BRANCH   2   5
ATOM      5  C   UNL d   1      -2.475   2.872   0.387  0.00  0.00     0.035 A 
ATOM      6  C   UNL d   1      -2.804   1.843   1.273  0.00  0.00     0.030 A 
ATOM      7  C   UNL d   1      -4.101   1.715   1.780  0.00  0.00     0.018 A 
ATOM      8  C   UNL d   1      -5.102   2.619   1.414  0.00  0.00     0.048 A 
ATOM      9  C   UNL d   1      -4.785   3.633   0.499  0.00  0.00     0.018 A 
ATOM     10  C   UNL d   1      -3.484   3.759  -0.008  0.00  0.00     0.030 A 
BRANCH   8  11
ATOM     11  C   UNL d   1      -6.489   2.518   2.002  0.00  0.00     0.417 C 
ATOM     12  F   UNL d   1      -6.610   1.550   2.953  0.00  0.00    -0.166 F 
ATOM     13  F   UNL d   1      -6.880   3.677   2.602  0.00  0.00    -0.166 F 
ATOM     14  F   UNL d   1      -7.436   2.244   1.065  0.00  0.00    -0.166 F 
ENDBRANCH   8  11
ENDBRANCH   2   5
BRANCH   1  15
ATOM     15  C   UNL d   1       1.237   2.894  -0.208  0.00  0.00     0.087 A 
ATOM     16  C   UNL d   1       2.409   2.158  -0.251  0.00  0.00     0.090 A 
ATOM     17  O   UNL d   1       3.447   2.958  -0.596  0.00  0.00    -0.242 OA
ATOM     18  C   UNL d   1       2.738   0.739   0.007  0.00  0.00     0.080 C 
ATOM     19  N   UNL d   1       2.995   4.246  -0.767  0.00  0.00    -0.265 N 
ATOM     20  C   UNL d   1       1.681   4.217  -0.506  0.00  0.00     0.047 A 
ATOM     21  HN  UNL d   1       3.549   5.059  -1.037  1.00  0.00     0.194 HD
ATOM     22  C   UNL d   1       0.944   5.503  -0.537  0.00  0.00     0.071 C 
ENDBRANCH   1  15
TORSDOF 3
