REMARK  4 active torsions:
REMARK  status: ('A' for Active; 'I' for Inactive)
REMARK    1  A    between atoms: C_3  and  C_1 
REMARK    2  A    between atoms: C_8  and  C_2 
REMARK    3  A    between atoms: C_4  and  C_6 
REMARK    4  A    between atoms: O_18  and  C_5 
REMARK       I    between atoms: N_17  and  C_8 
ROOT
ATOM      1  C   UNL d   1       1.472  -0.263   0.247  0.00  0.00     0.067 A 
ATOM      2  C   UNL d   1       0.613  -1.364   0.032  0.00  0.00     0.080 A 
ATOM      3  C   UNL d   1      -0.783  -1.155  -0.081  0.00  0.00     0.085 A 
ATOM      4  C   UNL d   1      -0.464   1.248   0.206  0.00  0.00     0.051 A 
ATOM      5  C   UNL d   1       0.914   1.034   0.303  0.00  0.00     0.033 A 
ATOM      6  C   UNL d   1      -1.302   0.142   0.034  0.00  0.00     0.053 A 
ENDROOT
BRANCH   2   7
ATOM      7  C   UNL d   1       1.185  -2.723  -0.157  0.00  0.00     0.253 C 
ATOM      8  O   UNL d   1       2.202  -2.887  -0.826  0.00  0.00    -0.268 OA
ATOM      9  N   UNL d   1       0.531  -3.776   0.414  0.00  0.00    -0.366 N 
ATOM     10  H   UNL d   1      -0.448  -3.682   0.659  0.00  0.00     0.159 HD
ATOM     11  H   UNL d   1       0.862  -4.699   0.165  0.00  0.00     0.159 HD
ENDBRANCH   2   7
BRANCH   1  12
ATOM     12  C   UNL d   1       2.973  -0.355   0.433  0.00  0.00     0.418 C 
ATOM     13  F   UNL d   1       3.483  -1.553   0.806  0.00  0.00    -0.166 F 
ATOM     14  F   UNL d   1       3.655   0.053  -0.673  0.00  0.00    -0.166 F 
ATOM     15  F   UNL d   1       3.377   0.501   1.426  0.00  0.00    -0.166 F 
ENDBRANCH   1  12
BRANCH   3  16
ATOM     16  O   UNL d   1      -1.590  -2.248  -0.280  0.00  0.00    -0.355 OA
ATOM     17  C   UNL d   1      -2.864  -2.001  -0.878  0.00  0.00     0.210 C 
ENDBRANCH   3  16
BRANCH   4  18
ATOM     18  C   UNL d   1      -1.060   2.633   0.289  0.00  0.00     0.417 C 
ATOM     19  F   UNL d   1      -0.133   3.619   0.423  0.00  0.00    -0.166 F 
ATOM     20  F   UNL d   1      -1.789   2.946  -0.818  0.00  0.00    -0.166 F 
ATOM     21  F   UNL d   1      -1.909   2.764   1.345  0.00  0.00    -0.166 F 
ENDBRANCH   4  18
TORSDOF 4
