REMARK  1 active torsions:
REMARK  status: ('A' for Active; 'I' for Inactive)
REMARK    1  A    between atoms: N_6  and  C_1 
REMARK       I    between atoms: C_7  and  N_6 
REMARK       I    between atoms: N_10  and  C_7 
ROOT
ATOM      1  C   UNL d   1       0.669  -1.335  -0.034  0.00  0.00     0.127 A 
ATOM      2  N   UNL d   1       1.071  -0.017   0.069  0.00  0.00    -0.281 N 
ATOM      3  N   UNL d   1       0.034   0.849   0.055  0.00  0.00    -0.302 N 
ATOM      4  HN  UNL d   1       0.069   1.867   0.114  1.00  0.00     0.186 HD
ATOM      5  C   UNL d   1      -0.703  -1.291  -0.169  0.00  0.00     0.076 A 
ATOM      6  C   UNL d   1      -1.049   0.072  -0.054  0.00  0.00     0.025 A 
ATOM      7  C   UNL d   1       2.404   0.531   0.009  0.00  0.00     0.179 C 
ATOM      8  C   UNL d   1      -2.404   0.674  -0.045  0.00  0.00     0.070 C 
ENDROOT
BRANCH   1   9
ATOM      9  N   UNL d   1       1.471  -2.462  -0.023  0.00  0.00    -0.293 N 
ATOM     10  C   UNL d   1       2.449  -2.610   0.953  0.00  0.00     0.321 C 
ATOM     11  O   UNL d   1       2.720  -1.788   1.818  0.00  0.00    -0.247 OA
ATOM     12  N   UNL d   1       3.057  -3.837   0.855  0.00  0.00    -0.347 N 
ATOM     13  C   UNL d   1       4.079  -4.247   1.785  0.00  0.00     0.151 C 
ATOM     14  H   UNL d   1       3.000  -4.319  -0.029  0.00  0.00     0.163 HD
ATOM     15  H   UNL d   1       1.017  -3.330  -0.269  0.00  0.00     0.172 HD
ENDBRANCH   1   9
TORSDOF 1
