REMARK  5 active torsions:
REMARK  status: ('A' for Active; 'I' for Inactive)
REMARK    1  A    between atoms: N_5  and  C_1 
REMARK       I    between atoms: C_4  and  N_5 
REMARK       I    between atoms: N_9  and  C_4 
REMARK    2  A    between atoms: O_20  and  C_8 
REMARK    3  A    between atoms: C_10  and  N_9 
REMARK    4  A    between atoms: C_24  and  C_16 
REMARK    5  A    between atoms: O_23  and  C_24 
ROOT
ATOM      1  C   UNL d   1       3.586  -2.444   0.247  0.00  0.00     0.691 C 
ATOM      2  N   UNL d   1       2.304  -2.379  -0.215  0.00  0.00    -0.022 N 
ATOM      3  N   UNL d   1       3.966  -3.726   0.564  0.00  0.00    -0.190 N 
ATOM      4  N   UNL d   1       4.388  -1.434   0.382  0.00  0.00    -0.234 N 
ATOM      5  HN  UNL d   1       5.348  -1.466   0.725  1.00  0.00     0.174 HD
ATOM      6  H   UNL d   1       1.697  -3.163  -0.032  0.00  0.00     0.203 HD
ATOM      7  H   UNL d   1       3.909  -4.369  -0.221  0.00  0.00     0.184 HD
ATOM      8  H   UNL d   1       3.875  -0.592   0.078  0.00  0.00     0.174 HD
ENDROOT
BRANCH   2   9
ATOM      9  C   UNL d   1       1.556  -1.204  -0.289  0.00  0.00     0.699 A 
ATOM     10  N   UNL d   1       0.223  -1.315  -0.343  0.00  0.00    -0.170 N 
ATOM     11  C   UNL d   1      -0.449  -0.156  -0.334  0.00  0.00     0.157 A 
ATOM     12  HN  UNL d   1      -0.248  -2.219  -0.387  1.00  0.00     0.186 HD
ATOM     13  C   UNL d   1       0.102   1.095  -0.271  0.00  0.00     0.084 A 
ATOM     14  C   UNL d   1       1.473   1.115  -0.225  0.00  0.00     0.054 A 
ATOM     15  N   UNL d   1       2.199  -0.022  -0.253  0.00  0.00    -0.193 N 
ATOM     16  HN  UNL d   1       3.218   0.014  -0.247  1.00  0.00     0.184 HD
BRANCH  11  17
ATOM     17  O   UNL d   1      -1.801  -0.289  -0.359  0.00  0.00    -0.346 OA
ATOM     18  H   UNL d   1      -1.899  -1.257  -0.373  0.00  0.00     0.219 HD
ENDBRANCH  11  17
BRANCH  14  19
ATOM     19  C   UNL d   1       2.238   2.404  -0.057  0.00  0.00     0.224 C 
BRANCH  19  20
ATOM     20  O   UNL d   1       1.852   3.087   1.139  0.00  0.00    -0.390 OA
ATOM     21  C   UNL d   1       2.457   2.525   2.301  0.00  0.00     0.201 C 
ENDBRANCH  19  20
ENDBRANCH  14  19
ENDBRANCH   2   9
BRANCH   3  22
ATOM     22  C   UNL d   1       5.087  -4.019   1.387  0.00  0.00     0.071 A 
ATOM     23  C   UNL d   1       5.915  -5.126   1.131  0.00  0.00     0.062 A 
ATOM     24  C   UNL d   1       7.007  -5.420   1.953  0.00  0.00     0.050 A 
ATOM     25 CL   UNL d   1       5.615  -6.149  -0.233  0.00  0.00    -0.082 Cl
ATOM     26  C   UNL d   1       7.272  -4.613   3.057  0.00  0.00     0.035 A 
ATOM     27  C   UNL d   1       6.457  -3.525   3.347  0.00  0.00     0.026 A 
ATOM     28 CL   UNL d   1       8.614  -4.966   4.074  0.00  0.00    -0.084 Cl
ATOM     29  C   UNL d   1       5.369  -3.237   2.521  0.00  0.00     0.033 A 
ENDBRANCH   3  22
TORSDOF 5
