REMARK  6 active torsions:
REMARK  status: ('A' for Active; 'I' for Inactive)
REMARK    1  A    between atoms: O_5  and  S_1 
REMARK    2  A    between atoms: C_6  and  S_1 
REMARK    3  A    between atoms: N_3  and  C_2 
REMARK    4  A    between atoms: C_4  and  O_5 
REMARK    5  A    between atoms: O_20  and  C_10 
REMARK    6  A    between atoms: O_21  and  C_14 
ROOT
ATOM      1  S   UNL d   1       0.993  -0.017   0.109  0.00  0.00     0.303 S 
ATOM      2  O   UNL d   1       0.339  -0.865   1.090  0.00  0.00    -0.193 OA
ATOM      3  O   UNL d   1       2.426  -0.099  -0.112  0.00  0.00    -0.193 OA
ENDROOT
BRANCH   1   4
ATOM      4  O   UNL d   1       0.602   1.539   0.423  0.00  0.00    -0.227 OA
BRANCH   4   5
ATOM      5  C   UNL d   1       0.928   2.114   1.633  0.00  0.00     0.122 A 
ATOM      6  C   UNL d   1       0.052   3.007   2.275  0.00  0.00     0.138 A 
ATOM      7  C   UNL d   1       0.430   3.635   3.482  0.00  0.00     0.045 A 
ATOM      8  C   UNL d   1       1.684   3.385   4.056  0.00  0.00    -0.059 A 
ATOM      9  C   UNL d   1       2.550   2.501   3.416  0.00  0.00     0.010 A 
ATOM     10  C   UNL d   1       2.092   4.069   5.328  0.00  0.00     0.048 C 
ATOM     11  C   UNL d   1       2.181   1.883   2.218  0.00  0.00     0.041 A 
BRANCH   6  12
ATOM     12  N   UNL d   1      -1.278   3.322   1.727  0.00  0.00    -0.113 N 
ATOM     13  O   UNL d   1      -1.653   2.738   0.700  0.00  0.00    -0.532 OA
ATOM     14  O   UNL d   1      -1.961   4.165   2.327  0.00  0.00    -0.532 OA
ENDBRANCH   6  12
ENDBRANCH   4   5
ENDBRANCH   1   4
BRANCH   1  15
ATOM     15  C   UNL d   1       0.275  -0.428  -1.463  0.00  0.00     0.089 A 
ATOM     16  C   UNL d   1       0.587  -1.694  -1.983  0.00  0.00     0.065 A 
ATOM     17  C   UNL d   1       0.133  -2.086  -3.249  0.00  0.00     0.102 A 
ATOM     18  C   UNL d   1      -0.640  -1.178  -3.996  0.00  0.00     0.101 A 
ATOM     19  C   UNL d   1      -0.950   0.084  -3.450  0.00  0.00     0.041 A 
ATOM     20  C   UNL d   1      -0.498   0.469  -2.185  0.00  0.00     0.029 A 
BRANCH  17  21
ATOM     21  O   UNL d   1       0.415  -3.312  -3.787  0.00  0.00    -0.353 OA
ATOM     22  C   UNL d   1       1.212  -4.219  -3.034  0.00  0.00     0.210 C 
ENDBRANCH  17  21
BRANCH  18  23
ATOM     23  O   UNL d   1      -1.168  -1.339  -5.252  0.00  0.00    -0.353 OA
ATOM     24  C   UNL d   1      -0.923  -2.548  -5.955  0.00  0.00     0.210 C 
ENDBRANCH  18  23
ENDBRANCH   1  15
TORSDOF 6
