REMARK  9 active torsions:
REMARK  status: ('A' for Active; 'I' for Inactive)
REMARK    1  A    between atoms: C_5  and  C_1 
REMARK    2  A    between atoms: C_7  and  C_2 
REMARK    3  A    between atoms: O_13  and  C_7 
REMARK    4  A    between atoms: N_9  and  O_13 
REMARK    5  A    between atoms: C_22  and  C_11 
REMARK    6  A    between atoms: C_12  and  C_15 
REMARK    7  A    between atoms: C_16  and  S_21 
REMARK    8  A    between atoms: O_27  and  C_18 
REMARK    9  A    between atoms: S_21  and  C_22 
ROOT
ATOM      1  N   UNL d   1      -2.291  -3.353   0.621  0.00  0.00    -0.261 N 
ATOM      2  HN  UNL d   1      -1.374  -3.645   0.959  1.00  0.00     0.194 HD
ATOM      3  C   UNL d   1      -3.298  -4.155   0.424  0.00  0.00     0.039 C 
ATOM      4  C   UNL d   1      -4.662  -3.625   0.006  0.00  0.00     0.071 C 
ENDROOT
BRANCH   1   5
ATOM      5  O   UNL d   1      -2.647  -2.012   0.299  0.00  0.00    -0.195 OA
BRANCH   5   6
ATOM      6  C   UNL d   1      -1.980  -1.108   1.092  0.00  0.00     0.320 C 
ATOM      7  O   UNL d   1      -1.227  -1.405   2.018  0.00  0.00    -0.257 OA
BRANCH   6   8
ATOM      8  C   UNL d   1      -2.292   0.274   0.771  0.00  0.00     0.102 A 
ATOM      9  C   UNL d   1      -2.659   0.936  -0.455  0.00  0.00     0.085 A 
ATOM     10  N   UNL d   1      -2.743   2.261  -0.246  0.00  0.00    -0.259 N 
ATOM     11  O   UNL d   1      -2.553   2.474   1.089  0.00  0.00    -0.241 OA
ATOM     12  HN  UNL d   1      -2.916   2.975  -0.954  1.00  0.00     0.195 HD
ATOM     13  C   UNL d   1      -2.301   1.297   1.706  0.00  0.00     0.091 A 
ATOM     14  C   UNL d   1      -2.143   1.391   3.171  0.00  0.00     0.080 C 
BRANCH   9  15
ATOM     15  C   UNL d   1      -2.873   0.420  -1.815  0.00  0.00     0.015 A 
ATOM     16  C   UNL d   1      -3.878   0.923  -2.672  0.00  0.00     0.046 A 
ATOM     17 CL   UNL d   1      -5.042   2.120  -2.200  0.00  0.00    -0.083 Cl
ATOM     18  C   UNL d   1      -4.012   0.440  -3.982  0.00  0.00     0.025 A 
ATOM     19  C   UNL d   1      -3.170  -0.564  -4.451  0.00  0.00     0.002 A 
ATOM     20  C   UNL d   1      -2.180  -1.076  -3.620  0.00  0.00     0.001 A 
ATOM     21  C   UNL d   1      -2.022  -0.578  -2.321  0.00  0.00     0.015 A 
ENDBRANCH   9  15
ENDBRANCH   6   8
ENDBRANCH   5   6
ENDBRANCH   1   5
BRANCH   3  22
ATOM     22  C   UNL d   1      -3.175  -5.634   0.660  0.00  0.00    -0.011 A 
ATOM     23  C   UNL d   1      -4.012  -6.530  -0.026  0.00  0.00     0.024 A 
ATOM     24  C   UNL d   1      -4.101  -7.917   0.277  0.00  0.00    -0.014 A 
ATOM     25  C   UNL d   1      -3.272  -8.389   1.312  0.00  0.00     0.075 A 
ATOM     26  C   UNL d   1      -2.368  -7.500   1.939  0.00  0.00     0.038 A 
ATOM     27  C   UNL d   1      -2.308  -6.138   1.617  0.00  0.00     0.016 A 
BRANCH  24  28
ATOM     28  C   UNL d   1      -5.184  -8.754  -0.399  0.00  0.00     0.122 C 
BRANCH  28  29
ATOM     29  S   UNL d   1      -5.806  -8.122  -2.004  0.00  0.00    -0.108 SA
BRANCH  29  30
ATOM     30  C   UNL d   1      -6.999  -9.368  -2.447  0.00  0.00     0.069 A 
ATOM     31  N   UNL d   1      -7.342 -10.307  -1.538  0.00  0.00    -0.361 N 
ATOM     32  C   UNL d   1      -8.261 -11.224  -1.923  0.00  0.00     0.089 A 
ATOM     33  HN  UNL d   1      -6.928 -10.325  -0.606  1.00  0.00     0.165 HD
ATOM     34  C   UNL d   1      -8.851 -11.254  -3.177  0.00  0.00     0.017 A 
ATOM     35  C   UNL d   1      -8.485 -10.280  -4.095  0.00  0.00     0.004 A 
ATOM     36  C   UNL d   1      -7.548  -9.319  -3.725  0.00  0.00     0.037 A 
ENDBRANCH  29  30
ENDBRANCH  28  29
ENDBRANCH  24  28
BRANCH  25  37
ATOM     37  O   UNL d   1      -3.248  -9.611   1.926  0.00  0.00    -0.355 OA
ATOM     38  C   UNL d   1      -3.654 -10.785   1.248  0.00  0.00     0.210 C 
ENDBRANCH  25  37
ENDBRANCH   3  22
TORSDOF 9
