REMARK  10 active torsions:
REMARK  status: ('A' for Active; 'I' for Inactive)
REMARK    1  A    between atoms: S_9  and  C_3 
REMARK    2  A    between atoms: S_10  and  C_4 
REMARK    3  A    between atoms: C_15  and  S_9 
REMARK    4  A    between atoms: C_16  and  S_10 
REMARK    5  A    between atoms: C_11  and  C_15 
REMARK    6  A    between atoms: C_13  and  C_11 
REMARK    7  A    between atoms: C_12  and  C_16 
REMARK    8  A    between atoms: C_14  and  C_12 
REMARK    9  A    between atoms: O_30  and  C_23 
REMARK   10  A    between atoms: O_31  and  C_24 
ROOT
ATOM      1  N   UNL d   1      -2.244   0.675   0.047  0.00  0.00    -0.331 N 
ATOM      2  HN  UNL d   1      -3.127   1.183   0.021  1.00  0.00     0.168 HD
ATOM      3  C   UNL d   1      -1.061   1.309  -0.086  0.00  0.00     0.084 A 
ATOM      4  C   UNL d   1      -2.205  -0.649   0.213  0.00  0.00     0.146 A 
ATOM      5  N   UNL d   1      -1.092  -1.388   0.199  0.00  0.00    -0.336 N 
ATOM      6  HN  UNL d   1      -1.132  -2.403   0.281  1.00  0.00     0.168 HD
ATOM      7  C   UNL d   1       0.178   0.642  -0.047  0.00  0.00     0.024 A 
ATOM      8  C   UNL d   1       0.076  -0.751   0.073  0.00  0.00     0.047 A 
ATOM      9  C   UNL d   1       1.471   1.234  -0.102  0.00  0.00     0.016 A 
ATOM     10  C   UNL d   1       1.240  -1.511   0.084  0.00  0.00     0.030 A 
ATOM     11  C   UNL d   1       2.625   0.451  -0.051  0.00  0.00     0.001 A 
ATOM     12  C   UNL d   1       2.509  -0.928   0.026  0.00  0.00     0.002 A 
ENDROOT
BRANCH   3  13
ATOM     13  S   UNL d   1      -1.186   3.082  -0.367  0.00  0.00    -0.103 SA
BRANCH  13  14
ATOM     14  C   UNL d   1      -2.843   3.407   0.328  0.00  0.00     0.164 C 
BRANCH  14  15
ATOM     15  C   UNL d   1      -3.323   4.836   0.117  0.00  0.00     0.169 C 
ATOM     16  O   UNL d   1      -2.689   5.690  -0.499  0.00  0.00    -0.291 OA
BRANCH  15  17
ATOM     17  C   UNL d   1      -4.670   5.202   0.672  0.00  0.00     0.011 A 
ATOM     18  C   UNL d   1      -5.466   4.290   1.380  0.00  0.00     0.018 A 
ATOM     19  C   UNL d   1      -6.732   4.664   1.855  0.00  0.00     0.037 A 
ATOM     20  C   UNL d   1      -7.221   5.951   1.630  0.00  0.00     0.068 A 
ATOM     21  C   UNL d   1      -6.424   6.867   0.943  0.00  0.00     0.037 A 
ATOM     22  C   UNL d   1      -5.158   6.498   0.467  0.00  0.00     0.018 A 
BRANCH  20  23
ATOM     23  O   UNL d   1      -8.442   6.425   2.024  0.00  0.00    -0.356 OA
ATOM     24  C   UNL d   1      -9.313   5.506   2.673  0.00  0.00     0.210 C 
ENDBRANCH  20  23
ENDBRANCH  15  17
ENDBRANCH  14  15
ENDBRANCH  13  14
ENDBRANCH   3  13
BRANCH   4  25
ATOM     25  S   UNL d   1      -3.720  -1.494   0.589  0.00  0.00    -0.086 SA
BRANCH  25  26
ATOM     26  C   UNL d   1      -4.901  -0.396  -0.239  0.00  0.00     0.166 C 
BRANCH  26  27
ATOM     27  C   UNL d   1      -6.330  -0.823   0.045  0.00  0.00     0.169 C 
ATOM     28  O   UNL d   1      -6.950  -0.395   1.017  0.00  0.00    -0.291 OA
BRANCH  27  29
ATOM     29  C   UNL d   1      -7.012  -1.727  -0.922  0.00  0.00     0.011 A 
ATOM     30  C   UNL d   1      -6.308  -2.673  -1.672  0.00  0.00     0.018 A 
ATOM     31  C   UNL d   1      -6.974  -3.467  -2.613  0.00  0.00     0.037 A 
ATOM     32  C   UNL d   1      -8.345  -3.319  -2.817  0.00  0.00     0.068 A 
ATOM     33  C   UNL d   1      -9.053  -2.394  -2.045  0.00  0.00     0.037 A 
ATOM     34  C   UNL d   1      -8.395  -1.605  -1.095  0.00  0.00     0.018 A 
BRANCH  32  35
ATOM     35  O   UNL d   1      -9.095  -4.008  -3.730  0.00  0.00    -0.356 OA
ATOM     36  C   UNL d   1      -8.400  -4.926  -4.566  0.00  0.00     0.210 C 
ENDBRANCH  32  35
ENDBRANCH  27  29
ENDBRANCH  26  27
ENDBRANCH  25  26
ENDBRANCH   4  25
TORSDOF 10
