REMARK  5 active torsions:
REMARK  status: ('A' for Active; 'I' for Inactive)
REMARK    1  A    between atoms: C_2  and  C_1 
REMARK    2  A    between atoms: N_4  and  C_1 
REMARK       I    between atoms: N_7  and  C_2 
REMARK    3  A    between atoms: C_6  and  C_3 
REMARK       I    between atoms: C_5  and  N_4 
REMARK    4  A    between atoms: C_12  and  C_5 
REMARK    5  A    between atoms: C_15  and  N_7 
ROOT
ATOM      1  C   UNL d   1       0.949   0.128  -0.255  0.00  0.00     0.105 C 
ATOM      2  C   UNL d   1       0.140   0.712   0.665  0.00  0.00     0.054 C 
ENDROOT
BRANCH   1   3
ATOM      3  C   UNL d   1       2.445   0.288   0.083  0.00  0.00     0.272 C 
ATOM      4  N   UNL d   1       3.345  -0.072  -0.882  0.00  0.00    -0.322 N 
ATOM      5  H   UNL d   1       2.951  -0.467  -1.728  0.00  0.00     0.169 HD
ATOM      6  O   UNL d   1       2.774   0.738   1.185  0.00  0.00    -0.266 OA
BRANCH   4   7
ATOM      7  C   UNL d   1       4.752  -0.090  -0.847  0.00  0.00     0.035 A 
ATOM      8  C   UNL d   1       5.523   0.296   0.250  0.00  0.00     0.032 A 
ATOM      9  C   UNL d   1       6.920   0.294   0.161  0.00  0.00     0.044 A 
ATOM     10  C   UNL d   1       7.540  -0.100  -1.019  0.00  0.00     0.116 A 
ATOM     11  C   UNL d   1       6.793  -0.525  -2.106  0.00  0.00     0.044 A 
ATOM     12  F   UNL d   1       8.876  -0.067  -1.109  0.00  0.00    -0.206 F 
ATOM     13  C   UNL d   1       5.400  -0.527  -2.016  0.00  0.00     0.032 A 
ENDBRANCH   4   7
ENDBRANCH   1   3
BRANCH   1  14
ATOM     14  N   UNL d   1       0.396  -0.523  -1.361  0.00  0.00    -0.318 N 
ATOM     15  C   UNL d   1       0.974  -1.311  -2.335  0.00  0.00     0.256 C 
ATOM     16  O   UNL d   1       2.163  -1.581  -2.410  0.00  0.00    -0.267 OA
ATOM     17  H   UNL d   1      -0.610  -0.442  -1.419  0.00  0.00     0.169 HD
BRANCH  15  18
ATOM     18  C   UNL d   1       0.083  -1.886  -3.376  0.00  0.00     0.032 A 
ATOM     19  C   UNL d   1      -1.115  -1.291  -3.783  0.00  0.00     0.017 A 
ATOM     20  C   UNL d   1      -1.861  -1.877  -4.810  0.00  0.00     0.001 A 
ATOM     21  C   UNL d   1      -1.413  -3.044  -5.433  0.00  0.00     0.000 A 
ATOM     22  C   UNL d   1      -0.218  -3.634  -5.037  0.00  0.00     0.001 A 
ATOM     23  C   UNL d   1       0.527  -3.057  -4.012  0.00  0.00     0.017 A 
ENDBRANCH  15  18
ENDBRANCH   1  14
BRANCH   2  24
ATOM     24  C   UNL d   1      -1.281   0.568   0.723  0.00  0.00     0.007 A 
ATOM     25  S   UNL d   1      -2.271   1.934   1.073  0.00  0.00    -0.102 SA
ATOM     26  C   UNL d   1      -3.703   1.000   1.067  0.00  0.00     0.050 A 
ATOM     27  C   UNL d   1      -3.451  -0.326   0.807  0.00  0.00     0.008 A 
ATOM     28  C   UNL d   1      -2.061  -0.575   0.625  0.00  0.00     0.019 A 
ENDBRANCH   2  24
TORSDOF 5
