REMARK  3 active torsions:
REMARK  status: ('A' for Active; 'I' for Inactive)
REMARK    1  A    between atoms: C_8  and  C_1 
REMARK    2  A    between atoms: C_10  and  N_6 
REMARK    3  A    between atoms: C_9  and  C_10 
ROOT
ATOM      1  C   UNL d   1      -0.060  -1.324   0.038  0.00  0.00     0.148 A 
ATOM      2  N   UNL d   1       1.178  -0.829  -0.136  0.00  0.00    -0.268 N 
ATOM      3  HN  UNL d   1       2.056  -1.315  -0.318  1.00  0.00     0.190 HD
ATOM      4  N   UNL d   1      -1.003  -0.339   0.203  0.00  0.00    -0.266 N 
ATOM      5  HN  UNL d   1      -2.005  -0.472   0.337  1.00  0.00     0.186 HD
ATOM      6  N   UNL d   1       0.933   0.489  -0.003  0.00  0.00    -0.212 N 
ATOM      7  N   UNL d   1      -0.359   0.819   0.154  0.00  0.00    -0.002 NA
ENDROOT
BRANCH   6   8
ATOM      8  C   UNL d   1       1.989   1.485  -0.062  0.00  0.00     0.209 C 
BRANCH   8   9
ATOM      9  C   UNL d   1       2.363   1.981   1.316  0.00  0.00     0.006 A 
ATOM     10  C   UNL d   1       3.325   1.314   2.099  0.00  0.00     0.043 A 
ATOM     11 CL   UNL d   1       4.200  -0.058   1.513  0.00  0.00    -0.084 Cl
ATOM     12  C   UNL d   1       3.636   1.747   3.394  0.00  0.00     0.024 A 
ATOM     13  C   UNL d   1       2.990   2.853   3.938  0.00  0.00     0.003 A 
ATOM     14  C   UNL d   1       2.039   3.530   3.184  0.00  0.00     0.024 A 
ATOM     15  C   UNL d   1       1.727   3.101   1.887  0.00  0.00     0.043 A 
ATOM     16 CL   UNL d   1       0.549   4.032   1.029  0.00  0.00    -0.084 Cl
ENDBRANCH   8   9
ENDBRANCH   6   8
BRANCH   1  17
ATOM     17  C   UNL d   1      -0.377  -2.741   0.035  0.00  0.00     0.054 A 
ATOM     18  C   UNL d   1       0.318  -3.642   0.864  0.00  0.00     0.049 A 
ATOM     19 CL   UNL d   1       1.498  -3.138   2.032  0.00  0.00    -0.083 Cl
ATOM     20  C   UNL d   1       0.051  -5.017   0.812  0.00  0.00     0.025 A 
ATOM     21  C   UNL d   1      -0.924  -5.514  -0.048  0.00  0.00     0.003 A 
ATOM     22  C   UNL d   1      -1.642  -4.633  -0.851  0.00  0.00     0.025 A 
ATOM     23  C   UNL d   1      -1.373  -3.258  -0.814  0.00  0.00     0.049 A 
ATOM     24 CL   UNL d   1      -2.301  -2.268  -1.893  0.00  0.00    -0.083 Cl
ENDBRANCH   1  17
TORSDOF 3
