REMARK  5 active torsions:
REMARK  status: ('A' for Active; 'I' for Inactive)
REMARK    1  A    between atoms: C_5  and  C_2 
REMARK    2  A    between atoms: S_17  and  C_6 
REMARK    3  A    between atoms: C_9  and  C_18 
REMARK    4  A    between atoms: C_20  and  C_15 
REMARK    5  A    between atoms: C_18  and  S_17 
ROOT
ATOM      1  C   UNL d   1      11.642   2.899  -0.066  0.00  0.00     0.091 C 
ATOM      2  C   UNL d   1      12.299   3.497  -1.088  0.00  0.00     0.045 C 
ATOM      3  C   UNL d   1      12.373   2.396   1.053  0.00  0.00     0.103 C 
ATOM      4  N   UNL d   1      12.924   1.984   1.992  0.00  0.00    -0.191 NA
ENDROOT
BRANCH   1   5
ATOM      5  C   UNL d   1      10.228   2.674  -0.200  0.00  0.00     0.145 C 
ATOM      6  N   UNL d   1       9.386   2.322   0.850  0.00  0.00    -0.315 N 
ATOM      7  C   UNL d   1       8.216   1.896   0.267  0.00  0.00     0.162 C 
ATOM      8  C   UNL d   1       9.635   2.417   2.270  0.00  0.00     0.160 C 
ATOM      9  N   UNL d   1       8.250   2.162  -1.016  0.00  0.00    -0.278 N 
ATOM     10  N   UNL d   1       9.495   2.672  -1.304  0.00  0.00    -0.282 N 
ATOM     11  HN  UNL d   1       7.490   2.017  -1.681  1.00  0.00     0.189 HD
ATOM     12  HN  UNL d   1       9.803   2.998  -2.220  1.00  0.00     0.188 HD
BRANCH   7  13
ATOM     13  S   UNL d   1       6.939   1.093   1.135  0.00  0.00    -0.088 SA
BRANCH  13  14
ATOM     14  C   UNL d   1       5.868   0.519  -0.220  0.00  0.00     0.122 C 
BRANCH  14  15
ATOM     15  C   UNL d   1       4.543  -0.116   0.227  0.00  0.00    -0.035 C 
ATOM     16  C   UNL d   1       3.463   0.709   0.662  0.00  0.00    -0.048 C 
ATOM     17  C   UNL d   1       2.179   0.144   0.906  0.00  0.00    -0.049 C 
ATOM     18  C   UNL d   1       3.689   2.188   0.906  0.00  0.00     0.049 C 
ATOM     19  C   UNL d   1       1.048   1.006   1.429  0.00  0.00     0.049 C 
ATOM     20  C   UNL d   1       1.931  -1.213   0.580  0.00  0.00    -0.049 C 
ATOM     21  C   UNL d   1       3.013  -2.054   0.214  0.00  0.00    -0.049 C 
ATOM     22  C   UNL d   1       0.502  -1.722   0.520  0.00  0.00     0.049 C 
ATOM     23  C   UNL d   1       4.330  -1.520   0.111  0.00  0.00    -0.048 C 
ATOM     24  C   UNL d   1       2.730  -3.508  -0.109  0.00  0.00     0.049 C 
ATOM     25  C   UNL d   1       5.479  -2.466  -0.162  0.00  0.00     0.049 C 
ENDBRANCH  14  15
ENDBRANCH  13  14
ENDBRANCH   7  13
ENDBRANCH   1   5
BRANCH   2  26
ATOM     26  C   UNL d   1      13.723   3.615  -1.105  0.00  0.00     0.006 A 
ATOM     27  S   UNL d   1      14.498   5.041  -0.537  0.00  0.00    -0.102 SA
ATOM     28  C   UNL d   1      16.058   4.385  -0.796  0.00  0.00     0.050 A 
ATOM     29  C   UNL d   1      16.002   3.123  -1.342  0.00  0.00     0.008 A 
ATOM     30  C   UNL d   1      14.657   2.687  -1.533  0.00  0.00     0.019 A 
ENDBRANCH   2  26
TORSDOF 5
