REMARK  4 active torsions:
REMARK  status: ('A' for Active; 'I' for Inactive)
REMARK       I    between atoms: C_2  and  N_1 
REMARK    1  A    between atoms: C_3  and  C_2 
REMARK    2  A    between atoms: C_4  and  C_7 
REMARK       I    between atoms: N_15  and  C_4 
REMARK    3  A    between atoms: C_6  and  C_5 
REMARK    4  A    between atoms: O_16  and  C_6 
ROOT
ATOM      1  N   UNL d   1       1.377   0.067   0.146  0.00  0.00    -0.349 N 
ATOM      2  C   UNL d   1       2.415   0.113   1.062  0.00  0.00     0.243 C 
ATOM      3  C   UNL d   1      -1.491   0.004  -0.278  0.00  0.00     0.081 C 
ATOM      4  C   UNL d   1       0.707   1.202  -0.484  0.00  0.00     0.127 C 
ATOM      5  C   UNL d   1       0.761  -1.224  -0.173  0.00  0.00     0.127 C 
ATOM      6  O   UNL d   1       2.920  -0.894   1.560  0.00  0.00    -0.268 OA
ATOM      7  C   UNL d   1      -0.718   1.291   0.054  0.00  0.00     0.034 C 
ATOM      8  C   UNL d   1      -0.721  -1.233   0.227  0.00  0.00     0.034 C 
ENDROOT
BRANCH   2   9
ATOM      9  C   UNL d   1       2.924   1.447   1.468  0.00  0.00     0.081 C 
ATOM     10  C   UNL d   1       4.005   1.547   2.258  0.00  0.00     0.086 C 
BRANCH  10  11
ATOM     11  C   UNL d   1       4.461   2.893   2.638  0.00  0.00     0.165 C 
ATOM     12  O   UNL d   1       3.942   3.928   2.257  0.00  0.00    -0.647 OA
BRANCH  11  13
ATOM     13  O   UNL d   1       5.525   2.859   3.461  0.00  0.00    -0.773 OA
ATOM     14  H   UNL d   1       5.845   1.969   3.697  0.00  0.00     0.167 HD
ENDBRANCH  11  13
ENDBRANCH  10  11
ENDBRANCH   2   9
BRANCH   3  15
ATOM     15  C   UNL d   1      -1.788  -0.085  -1.772  0.00  0.00     0.219 C 
ATOM     16  O   UNL d   1      -1.447  -1.016  -2.491  0.00  0.00    -0.273 OA
ATOM     17  N   UNL d   1      -2.485   0.966  -2.294  0.00  0.00    -0.370 N 
ATOM     18  H   UNL d   1      -2.945   1.661  -1.722  0.00  0.00     0.159 HD
ATOM     19  H   UNL d   1      -2.736   0.914  -3.273  0.00  0.00     0.159 HD
ENDBRANCH   3  15
TORSDOF 4
