REMARK  3 active torsions:
REMARK  status: ('A' for Active; 'I' for Inactive)
REMARK    1  A    between atoms: C_10  and  N_1 
REMARK    2  A    between atoms: C_9  and  C_2 
REMARK    3  A    between atoms: C_14  and  C_10 
ROOT
ATOM      1  N   UNL d   1      -0.087  -1.269  -0.033  0.00  0.00    -0.255 N 
ATOM      2  C   UNL d   1       1.100  -0.574  -0.101  0.00  0.00     0.149 A 
ATOM      3  N   UNL d   1      -0.585   0.793  -0.155  0.00  0.00    -0.226 N 
ATOM      4  HN  UNL d   1      -1.113   1.665  -0.185  1.00  0.00     0.210 HD
ATOM      5  N   UNL d   1      -1.125  -0.407  -0.080  0.00  0.00    -0.224 N 
ATOM      6  HN  UNL d   1      -2.119  -0.636  -0.061  1.00  0.00     0.210 HD
ATOM      7  N   UNL d   1       0.780   0.711  -0.187  0.00  0.00    -0.268 N 
ATOM      8  HN  UNL d   1       1.431   1.492  -0.264  1.00  0.00     0.190 HD
ENDROOT
BRANCH   1   9
ATOM      9  C   UNL d   1      -0.365  -2.692  -0.030  0.00  0.00     0.191 C 
BRANCH   9  10
ATOM     10  C   UNL d   1      -0.393  -3.307   1.354  0.00  0.00    -0.038 A 
ATOM     11  C   UNL d   1      -0.782  -2.588   2.496  0.00  0.00     0.009 A 
ATOM     12  C   UNL d   1      -0.771  -3.190   3.755  0.00  0.00     0.001 A 
ATOM     13  C   UNL d   1      -0.395  -4.523   3.891  0.00  0.00     0.000 A 
ATOM     14  C   UNL d   1      -0.047  -5.263   2.764  0.00  0.00     0.001 A 
ATOM     15  C   UNL d   1      -0.054  -4.663   1.503  0.00  0.00     0.009 A 
ENDBRANCH   9  10
ENDBRANCH   1   9
BRANCH   2  16
ATOM     16  C   UNL d   1       2.479  -1.075  -0.110  0.00  0.00     0.011 A 
ATOM     17  C   UNL d   1       3.456  -0.329  -0.791  0.00  0.00     0.017 A 
ATOM     18  C   UNL d   1       4.805  -0.700  -0.767  0.00  0.00     0.025 A 
ATOM     19  C   UNL d   1       5.193  -1.831  -0.059  0.00  0.00     0.034 A 
ATOM     20  C   UNL d   1       4.242  -2.593   0.614  0.00  0.00     0.025 A 
ATOM     21 CL   UNL d   1       6.853  -2.274   0.013  0.00  0.00    -0.084 Cl
ATOM     22  C   UNL d   1       2.894  -2.212   0.595  0.00  0.00     0.017 A 
ENDBRANCH   2  16
TORSDOF 3
