REMARK  3 active torsions:
REMARK  status: ('A' for Active; 'I' for Inactive)
REMARK    1  A    between atoms: C_2  and  S_1 
REMARK    2  A    between atoms: C_4  and  S_1 
REMARK    3  A    between atoms: C_3  and  C_2 
REMARK       I    between atoms: N_7  and  C_3 
ROOT
ATOM      1  S   UNL d   1       0.936   0.048   0.124  0.00  0.00     0.183 S 
ATOM      2  O   UNL d   1       0.144   1.136   0.671  0.00  0.00    -0.222 OA
ATOM      3  O   UNL d   1       2.381   0.057   0.209  0.00  0.00    -0.222 OA
ENDROOT
BRANCH   1   4
ATOM      4  C   UNL d   1       0.438  -0.201  -1.552  0.00  0.00     0.248 C 
BRANCH   4   5
ATOM      5  C   UNL d   1       1.152   0.763  -2.455  0.00  0.00     0.233 C 
ATOM      6  N   UNL d   1       0.550   1.959  -2.820  0.00  0.00    -0.360 N 
ATOM      7  C   UNL d   1       1.251   2.833  -3.754  0.00  0.00     0.152 C 
ATOM      8  C   UNL d   1      -0.725   2.471  -2.336  0.00  0.00     0.152 C 
ATOM      9  O   UNL d   1       2.245   0.427  -2.922  0.00  0.00    -0.272 OA
ENDBRANCH   4   5
ENDBRANCH   1   4
BRANCH   1  10
ATOM     10  C   UNL d   1       0.428  -1.407   1.034  0.00  0.00     0.059 A 
ATOM     11  C   UNL d   1      -0.410  -2.383   0.485  0.00  0.00     0.025 A 
ATOM     12  C   UNL d   1      -0.705  -3.533   1.226  0.00  0.00     0.025 A 
ATOM     13  C   UNL d   1      -0.171  -3.699   2.505  0.00  0.00     0.034 A 
ATOM     14  C   UNL d   1       0.649  -2.720   3.060  0.00  0.00     0.025 A 
ATOM     15 CL   UNL d   1      -0.522  -5.129   3.396  0.00  0.00    -0.084 Cl
ATOM     16  C   UNL d   1       0.953  -1.573   2.325  0.00  0.00     0.025 A 
ENDBRANCH   1  10
TORSDOF 3
