REMARK  5 active torsions:
REMARK  status: ('A' for Active; 'I' for Inactive)
REMARK    1  A    between atoms: N_14  and  C_5 
REMARK    2  A    between atoms: N_11  and  C_15 
REMARK    3  A    between atoms: C_20  and  N_14 
REMARK    4  A    between atoms: C_15  and  C_17 
REMARK    5  A    between atoms: C_17  and  C_20 
ROOT
ATOM      1  C   UNL d   1       2.287  -0.312  -0.107  0.00  0.00     0.070 A 
ATOM      2  S   UNL d   1       4.005  -0.349  -0.178  0.00  0.00    -0.096 SA
ATOM      3  C   UNL d   1       1.826   0.993   0.058  0.00  0.00     0.060 A 
ATOM      4  C   UNL d   1       2.891   1.959   0.114  0.00  0.00    -0.027 A 
ATOM      5  C   UNL d   1       1.361  -1.367  -0.199  0.00  0.00     0.100 A 
ATOM      6  C   UNL d   1       4.120   1.348  -0.019  0.00  0.00     0.059 A 
ATOM      7  N   UNL d   1       0.049  -1.037  -0.130  0.00  0.00    -0.342 N 
ATOM      8  HN  UNL d   1      -0.668  -1.759  -0.207  1.00  0.00     0.167 HD
ATOM      9  N   UNL d   1       0.511   1.297   0.147  0.00  0.00    -0.351 N 
ATOM     10  HN  UNL d   1       0.169   2.249   0.285  1.00  0.00     0.166 HD
ATOM     11  C   UNL d   1      -0.301   0.243   0.040  0.00  0.00     0.182 A 
ATOM     12  C   UNL d   1       2.697   3.429   0.286  0.00  0.00     0.051 C 
ENDROOT
BRANCH   5  13
ATOM     13  N   UNL d   1       1.743  -2.707  -0.364  0.00  0.00    -0.278 NA
ATOM     14  H   UNL d   1       2.621  -2.910   0.100  0.00  0.00     0.129 HD
BRANCH  13  15
ATOM     15  C   UNL d   1       0.660  -3.666  -0.185  0.00  0.00     0.095 C 
BRANCH  15  16
ATOM     16  C   UNL d   1       1.142  -5.122  -0.274  0.00  0.00     0.045 C 
BRANCH  16  17
ATOM     17  C   UNL d   1      -0.097  -6.029  -0.217  0.00  0.00     0.273 C 
BRANCH  17  18
ATOM     18  N   UNL d   1       0.061  -7.476  -0.235  0.00  0.00     0.092 N 
ATOM     19  C   UNL d   1       0.851  -8.043   0.864  0.00  0.00     0.298 C 
ATOM     20  C   UNL d   1       0.647  -9.568   0.882  0.00  0.00     0.198 C 
ATOM     21  O   UNL d   1       1.069 -10.159  -0.357  0.00  0.00    -0.388 OA
ATOM     22  C   UNL d   1       0.344  -9.586  -1.457  0.00  0.00     0.198 C 
ATOM     23  C   UNL d   1       0.506  -8.054  -1.510  0.00  0.00     0.298 C 
ENDBRANCH  17  18
ENDBRANCH  16  17
ENDBRANCH  15  16
ENDBRANCH  13  15
ENDBRANCH   5  13
TORSDOF 5
