REMARK  6 active torsions:
REMARK  status: ('A' for Active; 'I' for Inactive)
REMARK    1  A    between atoms: S_3  and  C_1 
REMARK    2  A    between atoms: C_7  and  C_2 
REMARK    3  A    between atoms: N_8  and  S_3 
REMARK    4  A    between atoms: O_18  and  C_7 
REMARK    5  A    between atoms: C_13  and  N_8 
REMARK    6  A    between atoms: C_9  and  C_13 
ROOT
ATOM      1  C   UNL d   1       0.702   1.331   0.043  0.00  0.00     0.122 A 
ATOM      2  C   UNL d   1      -0.734   1.366   0.094  0.00  0.00     0.094 A 
ATOM      3  C   UNL d   1       1.059  -0.003  -0.042  0.00  0.00     0.073 A 
ATOM      4  C   UNL d   1      -1.132   0.038   0.043  0.00  0.00     0.067 A 
ATOM      5  O   UNL d   1      -0.054  -0.782  -0.016  0.00  0.00    -0.318 OA
ATOM      6  C   UNL d   1       2.316  -0.765  -0.181  0.00  0.00     0.078 C 
ATOM      7  C   UNL d   1      -2.436  -0.664   0.056  0.00  0.00     0.078 C 
ENDROOT
BRANCH   1   8
ATOM      8  S   UNL d   1       1.787   2.675  -0.044  0.00  0.00     0.245 S 
ATOM      9  O   UNL d   1       2.609   2.377  -1.194  0.00  0.00    -0.206 OA
ATOM     10  O   UNL d   1       0.941   3.845  -0.011  0.00  0.00    -0.206 OA
BRANCH   8  11
ATOM     11  N   UNL d   1       2.769   2.711   1.330  0.00  0.00    -0.211 NA
ATOM     12  H   UNL d   1       2.262   2.512   2.191  0.00  0.00     0.140 HD
BRANCH  11  13
ATOM     13  C   UNL d   1       4.071   2.052   1.192  0.00  0.00     0.150 C 
BRANCH  13  14
ATOM     14  C   UNL d   1       4.850   2.139   2.469  0.00  0.00    -0.004 A 
ATOM     15  S   UNL d   1       5.254   0.700   3.317  0.00  0.00    -0.105 SA
ATOM     16  C   UNL d   1       6.218   1.552   4.440  0.00  0.00     0.050 A 
ATOM     17  C   UNL d   1       6.203   2.908   4.207  0.00  0.00     0.008 A 
ATOM     18  C   UNL d   1       5.404   3.249   3.076  0.00  0.00     0.016 A 
ENDBRANCH  13  14
ENDBRANCH  11  13
ENDBRANCH   8  11
ENDBRANCH   1   8
BRANCH   2  19
ATOM     19  C   UNL d   1      -1.657   2.481   0.189  0.00  0.00     0.297 C 
ATOM     20  O   UNL d   1      -1.553   3.374   1.021  0.00  0.00    -0.259 OA
BRANCH  19  21
ATOM     21  O   UNL d   1      -2.701   2.351  -0.680  0.00  0.00    -0.322 OA
ATOM     22  C   UNL d   1      -3.719   3.345  -0.557  0.00  0.00     0.213 C 
ENDBRANCH  19  21
ENDBRANCH   2  19
TORSDOF 6
