REMARK  5 active torsions:
REMARK  status: ('A' for Active; 'I' for Inactive)
REMARK    1  A    between atoms: C_2  and  C_1 
REMARK    2  A    between atoms: O_14  and  C_2 
REMARK    3  A    between atoms: N_8  and  C_3 
REMARK    4  A    between atoms: C_11  and  N_8 
REMARK    5  A    between atoms: C_17  and  O_14 
ROOT
ATOM      1  C   UNL d   1       0.898  -0.107  -0.012  0.00  0.00     0.135 C 
ATOM      2  C   UNL d   1       0.227   0.584   0.928  0.00  0.00     0.117 C 
ATOM      3  C   UNL d   1       0.234  -0.942  -0.947  0.00  0.00     0.107 C 
ATOM      4  N   UNL d   1      -0.360  -1.606  -1.692  0.00  0.00    -0.191 NA
ENDROOT
BRANCH   1   5
ATOM      5  C   UNL d   1       2.366   0.080  -0.079  0.00  0.00     0.305 C 
ATOM      6  O   UNL d   1       3.000   0.818   0.662  0.00  0.00    -0.258 OA
BRANCH   5   7
ATOM      7  O   UNL d   1       2.884  -0.628  -1.113  0.00  0.00    -0.317 OA
BRANCH   7   8
ATOM      8  C   UNL d   1       4.244  -0.326  -1.460  0.00  0.00     0.174 C 
ATOM      9  C   UNL d   1       4.243   0.819  -2.456  0.00  0.00     0.034 C 
ENDBRANCH   7   8
ENDBRANCH   5   7
ENDBRANCH   1   5
BRANCH   2  10
ATOM     10  N   UNL d   1      -1.125   0.604   1.190  0.00  0.00    -0.364 N 
ATOM     11  H   UNL d   1      -1.715  -0.015   0.635  0.00  0.00     0.165 HD
BRANCH  10  12
ATOM     12  C   UNL d   1      -1.812   1.403   2.123  0.00  0.00     0.033 A 
ATOM     13  C   UNL d   1      -3.066   0.968   2.578  0.00  0.00     0.056 A 
ATOM     14  C   UNL d   1      -3.754   1.681   3.563  0.00  0.00     0.074 A 
ATOM     15 CL   UNL d   1      -5.279   1.100   4.115  0.00  0.00    -0.081 Cl
ATOM     16  C   UNL d   1      -3.196   2.835   4.100  0.00  0.00     0.138 A 
ATOM     17  C   UNL d   1      -1.957   3.287   3.663  0.00  0.00     0.046 A 
ATOM     18  F   UNL d   1      -3.838   3.529   5.053  0.00  0.00    -0.204 F 
ATOM     19  C   UNL d   1      -1.265   2.566   2.686  0.00  0.00     0.032 A 
ENDBRANCH  10  12
ENDBRANCH   2  10
TORSDOF 5
