REMARK  6 active torsions:
REMARK  status: ('A' for Active; 'I' for Inactive)
REMARK    1  A    between atoms: O_4  and  C_1 
REMARK    2  A    between atoms: C_5  and  O_4 
REMARK    3  A    between atoms: N_15  and  C_5 
REMARK    4  A    between atoms: S_13  and  C_6 
REMARK    5  A    between atoms: C_10  and  C_12 
REMARK    6  A    between atoms: C_12  and  S_13 
ROOT
ATOM      1  C   UNL d   1      -0.767   1.031   0.059  0.00  0.00     0.160 A 
ATOM      2  N   UNL d   1      -1.376  -0.162   0.148  0.00  0.00    -0.317 N 
ATOM      3  HN  UNL d   1      -2.389  -0.249   0.229  1.00  0.00     0.170 HD
ATOM      4  C   UNL d   1      -0.572  -1.228   0.123  0.00  0.00     0.146 A 
ATOM      5  C   UNL d   1       0.603   1.226   0.015  0.00  0.00     0.012 A 
ATOM      6  N   UNL d   1       0.769  -1.168   0.066  0.00  0.00    -0.340 N 
ATOM      7  HN  UNL d   1       1.335  -2.016   0.060  1.00  0.00     0.167 HD
ATOM      8  C   UNL d   1       1.343   0.055   0.017  0.00  0.00     0.017 A 
ATOM      9  C   UNL d   1       1.241   2.578  -0.018  0.00  0.00     0.055 C 
ATOM     10  C   UNL d   1       2.845   0.067  -0.017  0.00  0.00     0.069 C 
ENDROOT
BRANCH   4  11
ATOM     11  S   UNL d   1      -1.358  -2.821   0.186  0.00  0.00    -0.089 SA
BRANCH  11  12
ATOM     12  C   UNL d   1       0.107  -3.900   0.133  0.00  0.00     0.124 C 
BRANCH  12  13
ATOM     13  C   UNL d   1      -0.272  -5.365   0.097  0.00  0.00    -0.005 A 
ATOM     14  C   UNL d   1      -0.492  -6.034  -1.124  0.00  0.00     0.042 A 
ATOM     15 CL   UNL d   1      -0.347  -5.235  -2.653  0.00  0.00    -0.084 Cl
ATOM     16  C   UNL d   1      -0.836  -7.391  -1.158  0.00  0.00     0.024 A 
ATOM     17  C   UNL d   1      -0.976  -8.111   0.024  0.00  0.00     0.003 A 
ATOM     18  C   UNL d   1      -0.778  -7.470   1.242  0.00  0.00     0.024 A 
ATOM     19  C   UNL d   1      -0.435  -6.111   1.281  0.00  0.00     0.042 A 
ATOM     20 CL   UNL d   1      -0.220  -5.413   2.850  0.00  0.00    -0.084 Cl
ENDBRANCH  12  13
ENDBRANCH  11  12
ENDBRANCH   4  11
BRANCH   1  21
ATOM     21  O   UNL d   1      -1.593   2.194   0.151  0.00  0.00    -0.266 OA
BRANCH  21  22
ATOM     22  C   UNL d   1      -2.819   2.405  -0.496  0.00  0.00     0.218 C 
ATOM     23  S   UNL d   1      -3.159   1.631  -1.943  0.00  0.00    -0.033 SA
BRANCH  22  24
ATOM     24  N   UNL d   1      -3.605   3.378   0.130  0.00  0.00    -0.361 N 
ATOM     25  C   UNL d   1      -3.140   4.103   1.306  0.00  0.00     0.152 C 
ATOM     26  C   UNL d   1      -4.964   3.711  -0.292  0.00  0.00     0.152 C 
ENDBRANCH  22  24
ENDBRANCH  21  22
ENDBRANCH   1  21
TORSDOF 6
