REMARK  4 active torsions:
REMARK  status: ('A' for Active; 'I' for Inactive)
REMARK    1  A    between atoms: N_5  and  C_1 
REMARK    2  A    between atoms: C_12  and  N_5 
REMARK    3  A    between atoms: O_19  and  C_13 
REMARK    4  A    between atoms: C_21  and  O_19 
ROOT
ATOM      1  C   UNL d   1      -1.024   1.769  -0.101  0.00  0.00     0.118 C 
ATOM      2  C   UNL d   1      -2.154   1.101  -0.914  0.00  0.00     0.100 C 
ATOM      3  S   UNL d   1      -0.491   3.170  -1.159  0.00  0.00    -0.125 SA
ATOM      4  C   UNL d   1       0.177   0.811   0.086  0.00  0.00    -0.013 A 
ATOM      5  C   UNL d   1      -1.732   1.184  -2.371  0.00  0.00     0.143 C 
ATOM      6  C   UNL d   1      -2.430  -0.330  -0.456  0.00  0.00     0.020 C 
ATOM      7  C   UNL d   1      -0.687   2.227  -2.682  0.00  0.00     0.155 C 
ATOM      8  C   UNL d   1       0.080  -0.568  -0.198  0.00  0.00    -0.049 A 
ATOM      9  C   UNL d   1      -1.210  -1.226  -0.614  0.00  0.00     0.040 C 
ATOM     10  O   UNL d   1      -2.222   0.469  -3.246  0.00  0.00    -0.297 OA
ATOM     11  C   UNL d   1       1.433   1.317   0.492  0.00  0.00     0.011 A 
ATOM     12  C   UNL d   1       1.234  -1.371  -0.166  0.00  0.00     0.008 A 
ATOM     13  C   UNL d   1       2.571   0.510   0.513  0.00  0.00     0.001 A 
ATOM     14  C   UNL d   1       2.474  -0.832   0.169  0.00  0.00     0.001 A 
ENDROOT
BRANCH   1  15
ATOM     15  N   UNL d   1      -1.493   2.195   1.219  0.00  0.00    -0.367 N 
ATOM     16  H   UNL d   1      -0.799   2.067   1.951  0.00  0.00     0.161 HD
BRANCH  15  17
ATOM     17  C   UNL d   1      -2.479   3.110   1.560  0.00  0.00     0.029 A 
ATOM     18  C   UNL d   1      -3.239   3.848   0.650  0.00  0.00     0.032 A 
ATOM     19  C   UNL d   1      -4.239   4.733   1.066  0.00  0.00     0.039 A 
ATOM     20  C   UNL d   1      -4.549   4.876   2.413  0.00  0.00     0.068 A 
ATOM     21  C   UNL d   1      -3.845   4.123   3.345  0.00  0.00     0.039 A 
ATOM     22  C   UNL d   1      -2.826   3.251   2.916  0.00  0.00     0.032 A 
BRANCH  20  23
ATOM     23  O   UNL d   1      -5.508   5.810   2.678  0.00  0.00    -0.352 OA
BRANCH  23  24
ATOM     24  C   UNL d   1      -6.259   5.649   3.877  0.00  0.00     0.171 C 
ATOM     25  C   UNL d   1      -7.284   6.770   3.914  0.00  0.00     0.034 C 
ENDBRANCH  23  24
ENDBRANCH  20  23
ENDBRANCH  15  17
ENDBRANCH   1  15
TORSDOF 4
