REMARK  3 active torsions:
REMARK  status: ('A' for Active; 'I' for Inactive)
REMARK    1  A    between atoms: S_9  and  C_1 
REMARK    2  A    between atoms: C_5  and  C_8 
REMARK    3  A    between atoms: C_8  and  S_9 
ROOT
ATOM      1  C   UNL d   1       2.779  -1.135   0.113  0.00  0.00     0.113 A 
ATOM      2  N   UNL d   1       1.619  -1.748   0.051  0.00  0.00    -0.344 N 
ATOM      3  HN  UNL d   1       1.491  -2.758  -0.016  1.00  0.00     0.167 HD
ATOM      4  S   UNL d   1       2.716   0.577   0.217  0.00  0.00    -0.063 SA
ATOM      5  C   UNL d   1       0.587  -0.807   0.090  0.00  0.00     0.052 A 
ATOM      6  C   UNL d   1       1.000   0.523   0.190  0.00  0.00     0.034 A 
ATOM      7  C   UNL d   1      -0.801  -1.074   0.054  0.00  0.00     0.054 A 
ATOM      8  C   UNL d   1       0.093   1.595   0.251  0.00  0.00     0.023 A 
ATOM      9  C   UNL d   1      -1.708  -0.010   0.117  0.00  0.00     0.036 A 
ATOM     10  C   UNL d   1      -1.272   1.306   0.215  0.00  0.00     0.025 A 
ATOM     11 CL   UNL d   1      -3.401  -0.333   0.075  0.00  0.00    -0.084 Cl
ENDROOT
BRANCH   1  12
ATOM     12  S   UNL d   1       4.336  -1.938   0.095  0.00  0.00    -0.100 SA
BRANCH  12  13
ATOM     13  C   UNL d   1       3.917  -3.696  -0.020  0.00  0.00     0.125 C 
BRANCH  13  14
ATOM     14  C   UNL d   1       5.170  -4.537  -0.140  0.00  0.00     0.012 A 
ATOM     15  C   UNL d   1       5.878  -5.043   0.963  0.00  0.00     0.044 A 
ATOM     16 CL   UNL d   1       5.356  -4.771   2.587  0.00  0.00    -0.084 Cl
ATOM     17  C   UNL d   1       7.053  -5.791   0.785  0.00  0.00     0.024 A 
ATOM     18  C   UNL d   1       7.548  -6.039  -0.495  0.00  0.00     0.005 A 
ATOM     19  C   UNL d   1       6.868  -5.534  -1.597  0.00  0.00     0.043 A 
ATOM     20  C   UNL d   1       5.699  -4.795  -1.413  0.00  0.00     0.125 A 
ATOM     21  F   UNL d   1       5.077  -4.317  -2.500  0.00  0.00    -0.205 F 
ENDBRANCH  13  14
ENDBRANCH  12  13
ENDBRANCH   1  12
TORSDOF 3
