REMARK  7 active torsions:
REMARK  status: ('A' for Active; 'I' for Inactive)
REMARK    1  A    between atoms: C_2  and  C_1 
REMARK       I    between atoms: N_5  and  C_1 
REMARK    2  A    between atoms: C_4  and  C_3 
REMARK    3  A    between atoms: O_9  and  C_4 
REMARK    4  A    between atoms: C_8  and  N_5 
REMARK    5  A    between atoms: O_17  and  C_10 
REMARK    6  A    between atoms: C_18  and  O_17 
REMARK    7  A    between atoms: C_19  and  C_18 
ROOT
ATOM      1  C   UNL d   1       1.016  -0.497  -0.060  0.00  0.00     0.257 C 
ATOM      2  N   UNL d   1       0.148  -0.921   0.928  0.00  0.00    -0.323 N 
ATOM      3  O   UNL d   1       0.705  -0.181  -1.205  0.00  0.00    -0.267 OA
ATOM      4  H   UNL d   1       0.509  -1.102   1.857  0.00  0.00     0.169 HD
ENDROOT
BRANCH   1   5
ATOM      5  C   UNL d   1       2.456  -0.391   0.292  0.00  0.00     0.049 A 
ATOM      6  C   UNL d   1       2.982   0.011   1.529  0.00  0.00     0.053 A 
ATOM      7  C   UNL d   1       4.381  -0.000   1.713  0.00  0.00     0.019 A 
ATOM      8  C   UNL d   1       5.244  -0.371   0.680  0.00  0.00     0.001 A 
ATOM      9  C   UNL d   1       4.726  -0.723  -0.557  0.00  0.00     0.001 A 
ATOM     10  C   UNL d   1       3.345  -0.727  -0.752  0.00  0.00     0.018 A 
BRANCH   6  11
ATOM     11  C   UNL d   1       2.204   0.427   2.726  0.00  0.00     0.177 C 
ATOM     12  O   UNL d   1       2.568   0.144   3.853  0.00  0.00    -0.646 OA
BRANCH  11  13
ATOM     13  O   UNL d   1       1.084   1.133   2.489  0.00  0.00    -0.773 OA
ATOM     14  H   UNL d   1       0.867   1.381   1.567  0.00  0.00     0.167 HD
ENDBRANCH  11  13
ENDBRANCH   6  11
ENDBRANCH   1   5
BRANCH   2  15
ATOM     15  C   UNL d   1      -1.253  -1.065   0.806  0.00  0.00     0.035 A 
ATOM     16  C   UNL d   1      -1.943  -0.959  -0.400  0.00  0.00     0.032 A 
ATOM     17  C   UNL d   1      -3.336  -1.072  -0.443  0.00  0.00     0.039 A 
ATOM     18  C   UNL d   1      -4.059  -1.294   0.728  0.00  0.00     0.068 A 
ATOM     19  C   UNL d   1      -3.376  -1.413   1.935  0.00  0.00     0.039 A 
ATOM     20  C   UNL d   1      -1.980  -1.311   1.978  0.00  0.00     0.032 A 
BRANCH  18  21
ATOM     21  O   UNL d   1      -5.423  -1.366   0.809  0.00  0.00    -0.351 OA
BRANCH  21  22
ATOM     22  C   UNL d   1      -6.097  -1.759  -0.387  0.00  0.00     0.175 C 
BRANCH  22  23
ATOM     23  C   UNL d   1      -7.597  -1.748  -0.122  0.00  0.00     0.022 C 
ATOM     24  C   UNL d   1      -8.372  -2.219  -1.339  0.00  0.00     0.007 C 
ENDBRANCH  22  23
ENDBRANCH  21  22
ENDBRANCH  18  21
ENDBRANCH   2  15
TORSDOF 7
