REMARK  2 active torsions:
REMARK  status: ('A' for Active; 'I' for Inactive)
REMARK       I    between atoms: C_9  and  N_2 
REMARK    1  A    between atoms: C_20  and  C_9 
REMARK    2  A    between atoms: C_15  and  C_12 
ROOT
ATOM      1  C   UNL d   1      -0.269  -1.124  -0.131  0.00  0.00     0.058 A 
ATOM      2  N   UNL d   1      -1.379  -3.311   0.535  0.00  0.00    -0.223 N 
ATOM      3  C   UNL d   1      -0.404  -2.562  -0.130  0.00  0.00     0.080 A 
ATOM      4  S   UNL d   1       1.308  -0.405  -0.141  0.00  0.00    -0.067 SA
ATOM      5  C   UNL d   1       0.607   1.155  -0.136  0.00  0.00     0.092 A 
ATOM      6  N   UNL d   1      -0.705   1.175  -0.181  0.00  0.00    -0.352 N 
ATOM      7  HN  UNL d   1      -1.270   2.024  -0.210  1.00  0.00     0.166 HD
ATOM      8  C   UNL d   1      -1.220  -0.111  -0.183  0.00  0.00     0.025 A 
ATOM      9  C   UNL d   1      -2.307  -2.890   1.512  0.00  0.00     0.250 C 
ATOM     10  C   UNL d   1       1.372   2.372  -0.075  0.00  0.00     0.039 A 
ATOM     11  S   UNL d   1       0.722   3.741   0.723  0.00  0.00    -0.086 SA
ATOM     12  C   UNL d   1       2.091   4.712   0.381  0.00  0.00     0.022 A 
ATOM     13  N   UNL d   1      -1.267  -4.638   0.236  0.00  0.00    -0.302 N 
ATOM     14  HN  UNL d   1      -1.880  -5.395   0.538  1.00  0.00     0.186 HD
ATOM     15  C   UNL d   1       2.622   2.648  -0.595  0.00  0.00     0.023 A 
ATOM     16  C   UNL d   1       3.033   3.993  -0.332  0.00  0.00     0.021 A 
ATOM     17  C   UNL d   1       0.384  -3.484  -0.798  0.00  0.00     0.052 A 
ATOM     18  C   UNL d   1      -0.188  -4.732  -0.531  0.00  0.00     0.110 A 
ATOM     19  O   UNL d   1      -1.994  -1.939   2.227  0.00  0.00    -0.270 OA
ATOM     20  C   UNL d   1      -2.702  -0.197  -0.260  0.00  0.00     0.070 C 
ENDROOT
BRANCH   9  21
ATOM     21  C   UNL d   1      -3.637  -3.655   1.635  0.00  0.00     0.032 C 
ATOM     22  C   UNL d   1      -3.523  -4.628   2.813  0.00  0.00     0.025 C 
ATOM     23  C   UNL d   1      -4.722  -2.601   1.973  0.00  0.00     0.025 C 
ATOM     24  C   UNL d   1      -4.141  -4.383   0.379  0.00  0.00     0.025 C 
ENDBRANCH   9  21
BRANCH  12  25
ATOM     25  C   UNL d   1       2.149   6.086   0.827  0.00  0.00     0.021 A 
ATOM     26  S   UNL d   1       3.645   6.869   1.147  0.00  0.00    -0.101 SA
ATOM     27  C   UNL d   1       2.870   8.316   1.620  0.00  0.00     0.050 A 
ATOM     28  C   UNL d   1       1.501   8.223   1.529  0.00  0.00     0.008 A 
ATOM     29  C   UNL d   1       1.088   6.937   1.074  0.00  0.00     0.021 A 
ENDBRANCH  12  25
TORSDOF 2
