REMARK  5 active torsions:
REMARK  status: ('A' for Active; 'I' for Inactive)
REMARK    1  A    between atoms: S_7  and  C_1 
REMARK    2  A    between atoms: C_9  and  N_2 
REMARK    3  A    between atoms: C_10  and  C_4 
REMARK    4  A    between atoms: O_11  and  C_6 
REMARK    5  A    between atoms: C_13  and  S_7 
ROOT
ATOM      1  C   UNL d   1      -0.708   1.252   0.002  0.00  0.00     0.107 A 
ATOM      2  N   UNL d   1      -0.670  -1.215  -0.044  0.00  0.00    -0.277 N 
ATOM      3  C   UNL d   1      -1.454  -0.048  -0.092  0.00  0.00     0.273 A 
ATOM      4  C   UNL d   1       0.730  -1.177  -0.034  0.00  0.00     0.062 A 
ATOM      5  C   UNL d   1       1.403   0.000  -0.020  0.00  0.00     0.001 A 
ATOM      6  C   UNL d   1       0.637   1.248   0.030  0.00  0.00     0.096 A 
ATOM      7  O   UNL d   1      -2.683  -0.061  -0.194  0.00  0.00    -0.266 OA
ATOM      8  C   UNL d   1       2.913   0.095  -0.055  0.00  0.00     0.054 C 
ENDROOT
BRANCH   1   9
ATOM      9  S   UNL d   1      -1.652   2.716  -0.010  0.00  0.00    -0.082 SA
BRANCH   9  10
ATOM     10  C   UNL d   1      -1.932   2.925   1.741  0.00  0.00     0.005 A 
ATOM     11  C   UNL d   1      -1.379   4.029   2.400  0.00  0.00     0.019 A 
ATOM     12  C   UNL d   1      -1.638   4.248   3.756  0.00  0.00     0.001 A 
ATOM     13  C   UNL d   1      -2.453   3.365   4.462  0.00  0.00     0.000 A 
ATOM     14  C   UNL d   1      -3.014   2.268   3.812  0.00  0.00     0.001 A 
ATOM     15  C   UNL d   1      -2.762   2.054   2.455  0.00  0.00     0.019 A 
ENDBRANCH   9  10
ENDBRANCH   1   9
BRANCH   6  16
ATOM     16  O   UNL d   1       1.335   2.446   0.111  0.00  0.00    -0.358 OA
ATOM     17  H   UNL d   1       2.290   2.308   0.065  0.00  0.00     0.217 HD
ENDBRANCH   6  16
BRANCH   2  18
ATOM     18  C   UNL d   1      -1.397  -2.442  -0.004  0.00  0.00     0.043 A 
ATOM     19  C   UNL d   1      -1.657  -3.152  -1.181  0.00  0.00     0.030 A 
ATOM     20  C   UNL d   1      -2.389  -4.340  -1.127  0.00  0.00     0.002 A 
ATOM     21  C   UNL d   1      -2.861  -4.816   0.098  0.00  0.00     0.000 A 
ATOM     22  C   UNL d   1      -2.609  -4.104   1.270  0.00  0.00     0.002 A 
ATOM     23  C   UNL d   1      -1.881  -2.914   1.222  0.00  0.00     0.030 A 
ENDBRANCH   2  18
BRANCH   4  24
ATOM     24  C   UNL d   1       1.481  -2.456  -0.035  0.00  0.00    -0.008 A 
ATOM     25  C   UNL d   1       1.883  -3.041   1.175  0.00  0.00     0.014 A 
ATOM     26  C   UNL d   1       2.656  -4.205   1.171  0.00  0.00     0.001 A 
ATOM     27  C   UNL d   1       3.028  -4.792  -0.037  0.00  0.00     0.000 A 
ATOM     28  C   UNL d   1       2.625  -4.222  -1.244  0.00  0.00     0.001 A 
ATOM     29  C   UNL d   1       1.855  -3.058  -1.246  0.00  0.00     0.014 A 
ENDBRANCH   4  24
TORSDOF 5
