REMARK  5 active torsions:
REMARK  status: ('A' for Active; 'I' for Inactive)
REMARK    1  A    between atoms: C_2  and  S_1 
REMARK    2  A    between atoms: C_4  and  S_1 
REMARK    3  A    between atoms: C_5  and  C_2 
REMARK    4  A    between atoms: S_9  and  C_3 
REMARK    5  A    between atoms: S_10  and  C_3 
ROOT
ATOM      1  S   UNL d   1       0.855   0.162  -0.316  0.00  0.00     0.212 S 
ATOM      2  O   UNL d   1       2.266   0.274  -0.674  0.00  0.00    -0.217 OA
ATOM      3  O   UNL d   1      -0.074  -0.105  -1.401  0.00  0.00    -0.217 OA
ENDROOT
BRANCH   1   4
ATOM      4  C   UNL d   1       0.396   1.510   0.694  0.00  0.00     0.132 C 
ATOM      5  C   UNL d   1      -0.481   2.461   0.271  0.00  0.00     0.061 C 
BRANCH   5   6
ATOM      6  S   UNL d   1      -0.447   4.082   0.990  0.00  0.00    -0.126 SA
ATOM      7  C   UNL d   1      -1.289   5.164  -0.188  0.00  0.00     0.096 C 
ENDBRANCH   5   6
BRANCH   5   8
ATOM      8  S   UNL d   1      -1.849   2.101  -0.778  0.00  0.00    -0.126 SA
ATOM      9  C   UNL d   1      -1.164   2.409  -2.427  0.00  0.00     0.096 C 
ENDBRANCH   5   8
BRANCH   4  10
ATOM     10  C   UNL d   1       1.223   1.644   1.941  0.00  0.00     0.169 C 
ATOM     11  O   UNL d   1       2.407   1.313   1.950  0.00  0.00    -0.292 OA
ATOM     12  C   UNL d   1       0.565   2.040   3.245  0.00  0.00     0.097 C 
ENDBRANCH   4  10
ENDBRANCH   1   4
BRANCH   1  13
ATOM     13  C   UNL d   1       0.691  -1.296   0.712  0.00  0.00     0.064 A 
ATOM     14  C   UNL d   1      -0.600  -1.731   1.040  0.00  0.00     0.025 A 
ATOM     15  C   UNL d   1      -0.773  -2.987   1.625  0.00  0.00     0.025 A 
ATOM     16  C   UNL d   1       0.336  -3.800   1.865  0.00  0.00     0.034 A 
ATOM     17  C   UNL d   1       1.623  -3.358   1.551  0.00  0.00     0.025 A 
ATOM     18 CL   UNL d   1       0.108  -5.378   2.510  0.00  0.00    -0.084 Cl
ATOM     19  C   UNL d   1       1.806  -2.099   0.974  0.00  0.00     0.025 A 
ENDBRANCH   1  13
TORSDOF 5
