REMARK  5 active torsions:
REMARK  status: ('A' for Active; 'I' for Inactive)
REMARK    1  A    between atoms: O_4  and  C_1 
REMARK    2  A    between atoms: C_6  and  O_4 
REMARK    3  A    between atoms: C_11  and  C_5 
REMARK       I    between atoms: N_14  and  C_6 
REMARK    4  A    between atoms: C_21  and  C_9 
REMARK    5  A    between atoms: C_19  and  C_21 
ROOT
ATOM      1  C   UNL d   1       0.830  -1.181  -0.551  0.00  0.00     0.163 C 
ATOM      2  N   UNL d   1       1.578  -0.097  -0.279  0.00  0.00    -0.321 N 
ATOM      3  HN  UNL d   1       2.585  -0.157  -0.128  1.00  0.00     0.169 HD
ATOM      4  C   UNL d   1       0.917   1.064  -0.218  0.00  0.00     0.117 C 
ATOM      5  N   UNL d   1      -0.424   1.169  -0.260  0.00  0.00    -0.345 N 
ATOM      6  HN  UNL d   1      -0.884   2.069  -0.117  1.00  0.00     0.167 HD
ATOM      7  C   UNL d   1      -0.545  -1.173  -0.735  0.00  0.00     0.019 C 
ATOM      8  C   UNL d   1      -1.145   0.052  -0.497  0.00  0.00     0.017 C 
ATOM      9  C   UNL d   1      -2.633   0.230  -0.457  0.00  0.00     0.069 C 
ENDROOT
BRANCH   4  10
ATOM     10  C   UNL d   1       1.688   2.324  -0.185  0.00  0.00     0.010 A 
ATOM     11  C   UNL d   1       1.041   3.563   0.007  0.00  0.00     0.042 A 
ATOM     12  C   UNL d   1       1.747   4.768  -0.038  0.00  0.00     0.073 A 
ATOM     13 CL   UNL d   1       0.902   6.253   0.176  0.00  0.00    -0.081 Cl
ATOM     14  C   UNL d   1       3.118   4.757  -0.270  0.00  0.00     0.138 A 
ATOM     15  C   UNL d   1       3.790   3.554  -0.451  0.00  0.00     0.045 A 
ATOM     16  F   UNL d   1       3.813   5.903  -0.334  0.00  0.00    -0.204 F 
ATOM     17  C   UNL d   1       3.081   2.348  -0.406  0.00  0.00     0.018 A 
ENDBRANCH   4  10
BRANCH   1  18
ATOM     18  O   UNL d   1       1.439  -2.455  -0.441  0.00  0.00    -0.243 OA
BRANCH  18  19
ATOM     19  C   UNL d   1       2.747  -2.629  -0.866  0.00  0.00     0.368 C 
ATOM     20  N   UNL d   1       3.304  -3.804  -0.364  0.00  0.00    -0.336 N 
ATOM     21  C   UNL d   1       4.590  -4.223  -0.885  0.00  0.00     0.154 C 
ATOM     22  C   UNL d   1       2.547  -4.769   0.416  0.00  0.00     0.154 C 
ATOM     23  O   UNL d   1       3.337  -1.881  -1.638  0.00  0.00    -0.238 OA
ENDBRANCH  18  19
ENDBRANCH   1  18
BRANCH   7  24
ATOM     24  C   UNL d   1      -1.296  -2.389  -1.201  0.00  0.00     0.071 C 
BRANCH  24  25
ATOM     25  C   UNL d   1      -1.877  -3.316  -0.176  0.00  0.00    -0.032 C 
ATOM     26  C   UNL d   1      -1.773  -3.246   1.158  0.00  0.00     0.007 C 
ENDBRANCH  24  25
ENDBRANCH   7  24
TORSDOF 5
