REMARK  3 active torsions:
REMARK  status: ('A' for Active; 'I' for Inactive)
REMARK    1  A    between atoms: N_3  and  S_1 
REMARK    2  A    between atoms: C_8  and  S_1 
REMARK    3  A    between atoms: C_2  and  N_3 
ROOT
ATOM      1  S   UNL d   1       1.066  -0.017   0.093  0.00  0.00     0.247 S 
ATOM      2  O   UNL d   1       0.342   1.181  -0.284  0.00  0.00    -0.205 OA
ATOM      3  O   UNL d   1       2.502  -0.053   0.244  0.00  0.00    -0.205 OA
ENDROOT
BRANCH   1   4
ATOM      4  N   UNL d   1       0.551  -1.242  -1.005  0.00  0.00    -0.165 NA
ATOM      5  H   UNL d   1      -0.370  -0.916  -1.315  0.00  0.00     0.147 HD
BRANCH   4   6
ATOM      6  C   UNL d   1       1.429  -1.346  -2.144  0.00  0.00     0.111 A 
ATOM      7  N   UNL d   1       2.572  -2.091  -2.285  0.00  0.00    -0.285 N 
ATOM      8  N   UNL d   1       3.133  -1.961  -3.508  0.00  0.00    -0.309 N 
ATOM      9  C   UNL d   1       3.136  -3.041  -1.359  0.00  0.00     0.179 C 
ATOM     10  C   UNL d   1       2.321  -1.111  -4.141  0.00  0.00     0.110 A 
ATOM     11  HN  UNL d   1       3.978  -2.408  -3.864  1.00  0.00     0.186 HD
ATOM     12  C   UNL d   1       1.231  -0.711  -3.346  0.00  0.00     0.063 A 
ENDBRANCH   4   6
ENDBRANCH   1   4
BRANCH   1  13
ATOM     13  C   UNL d   1       0.370  -0.625   1.608  0.00  0.00     0.076 A 
ATOM     14  C   UNL d   1       0.853  -1.829   2.126  0.00  0.00     0.048 A 
ATOM     15  C   UNL d   1       0.302  -2.329   3.302  0.00  0.00     0.035 A 
ATOM     16 CL   UNL d   1       0.869  -3.824   3.937  0.00  0.00    -0.084 Cl
ATOM     17  C   UNL d   1      -0.709  -1.632   3.965  0.00  0.00     0.024 A 
ATOM     18  C   UNL d   1      -1.172  -0.418   3.452  0.00  0.00     0.003 A 
ATOM     19  C   UNL d   1      -0.633   0.092   2.269  0.00  0.00     0.025 A 
ENDBRANCH   1  13
TORSDOF 3
