REMARK  5 active torsions:
REMARK  status: ('A' for Active; 'I' for Inactive)
REMARK    1  A    between atoms: C_4  and  N_1 
REMARK    2  A    between atoms: C_2  and  S_3 
REMARK    3  A    between atoms: S_3  and  C_12 
REMARK    4  A    between atoms: O_17  and  C_8 
REMARK    5  A    between atoms: O_18  and  C_13 
ROOT
ATOM      1  C   UNL d   1      -1.335   6.107  -1.482  0.00  0.00     0.041 A 
ATOM      2  C   UNL d   1      -1.299   5.780  -2.853  0.00  0.00     0.058 A 
ATOM      3  C   UNL d   1      -0.735   7.309  -1.062  0.00  0.00     0.085 A 
ATOM      4  C   UNL d   1      -0.103   8.126  -2.013  0.00  0.00     0.041 A 
ATOM      5  C   UNL d   1      -0.660   6.592  -3.791  0.00  0.00     0.069 A 
ATOM      6  C   UNL d   1      -0.055   7.767  -3.360  0.00  0.00     0.039 A 
ENDROOT
BRANCH   1   7
ATOM      7  S   UNL d   1      -2.287   5.002  -0.432  0.00  0.00    -0.088 SA
BRANCH   7   8
ATOM      8  C   UNL d   1      -1.395   3.463  -0.610  0.00  0.00     0.005 A 
ATOM      9  C   UNL d   1      -0.329   3.161   0.246  0.00  0.00     0.021 A 
ATOM     10  C   UNL d   1       0.346   1.940   0.141  0.00  0.00     0.037 A 
ATOM     11  C   UNL d   1      -0.052   1.012  -0.828  0.00  0.00     0.102 A 
ATOM     12  C   UNL d   1      -1.119   1.299  -1.690  0.00  0.00     0.037 A 
ATOM     13  C   UNL d   1      -1.791   2.520  -1.569  0.00  0.00     0.021 A 
BRANCH  11  14
ATOM     14  N   UNL d   1       0.642  -0.279  -0.931  0.00  0.00    -0.116 N 
ATOM     15  O   UNL d   1       0.260  -1.070  -1.804  0.00  0.00    -0.532 OA
ATOM     16  O   UNL d   1       1.570  -0.500  -0.137  0.00  0.00    -0.532 OA
ENDBRANCH  11  14
ENDBRANCH   7   8
ENDBRANCH   1   7
BRANCH   3  17
ATOM     17  O   UNL d   1      -0.770   7.887   0.179  0.00  0.00    -0.355 OA
ATOM     18  C   UNL d   1      -0.555   7.048   1.304  0.00  0.00     0.210 C 
ENDBRANCH   3  17
BRANCH   5  19
ATOM     19  O   UNL d   1      -0.583   6.354  -5.135  0.00  0.00    -0.356 OA
ATOM     20  C   UNL d   1      -1.193   5.160  -5.612  0.00  0.00     0.210 C 
ENDBRANCH   5  19
TORSDOF 5
