REMARK  6 active torsions:
REMARK  status: ('A' for Active; 'I' for Inactive)
REMARK    1  A    between atoms: C_9  and  C_1 
REMARK    2  A    between atoms: C_10  and  C_1 
REMARK    3  A    between atoms: N_12  and  C_6 
REMARK    4  A    between atoms: C_11  and  C_8 
REMARK    5  A    between atoms: C_24  and  N_12 
REMARK    6  A    between atoms: C_25  and  N_12 
ROOT
ATOM      1  C   UNL d   1       1.431  -0.227   0.203  0.00  0.00     0.308 A 
ATOM      2  N   UNL d   1       0.807   1.111   0.068  0.00  0.00    -0.314 N 
ATOM      3  HN  UNL d   1       1.376   1.946   0.203  1.00  0.00     0.166 HD
ATOM      4  N   UNL d   1       0.444  -1.323   0.059  0.00  0.00    -0.328 N 
ATOM      5  HN  UNL d   1       0.728  -2.297   0.163  1.00  0.00     0.164 HD
ATOM      6  C   UNL d   1      -0.425   1.233  -0.212  0.00  0.00     0.226 A 
ATOM      7  O   UNL d   1      -1.272   0.203  -0.385  0.00  0.00    -0.262 OA
ATOM      8  C   UNL d   1      -0.769  -1.023  -0.198  0.00  0.00     0.160 A 
ENDROOT
BRANCH   1   9
ATOM      9  C   UNL d   1       2.541  -0.401  -0.894  0.00  0.00     0.441 C 
ATOM     10  F   UNL d   1       2.770   0.752  -1.577  0.00  0.00    -0.166 F 
ATOM     11  F   UNL d   1       3.741  -0.834  -0.462  0.00  0.00    -0.166 F 
ATOM     12  F   UNL d   1       2.147  -1.302  -1.841  0.00  0.00    -0.166 F 
ENDBRANCH   1   9
BRANCH   1  13
ATOM     13  C   UNL d   1       2.084  -0.304   1.624  0.00  0.00     0.441 C 
ATOM     14  F   UNL d   1       1.946   0.868   2.304  0.00  0.00    -0.166 F 
ATOM     15  F   UNL d   1       1.456  -1.235   2.397  0.00  0.00    -0.166 F 
ATOM     16  F   UNL d   1       3.394  -0.607   1.666  0.00  0.00    -0.166 F 
ENDBRANCH   1  13
BRANCH   6  17
ATOM     17  N   UNL d   1      -1.065   2.440  -0.360  0.00  0.00    -0.348 N 
BRANCH  17  18
ATOM     18  C   UNL d   1      -0.884   3.524   0.603  0.00  0.00     0.122 C 
ATOM     19  C   UNL d   1       0.313   4.406   0.300  0.00  0.00     0.026 C 
ENDBRANCH  17  18
BRANCH  17  20
ATOM     20  C   UNL d   1      -1.720   2.765  -1.627  0.00  0.00     0.122 C 
ATOM     21  C   UNL d   1      -3.209   2.474  -1.564  0.00  0.00     0.026 C 
ENDBRANCH  17  20
ENDBRANCH   6  17
BRANCH   8  22
ATOM     22  C   UNL d   1      -1.824  -2.037  -0.390  0.00  0.00     0.017 A 
ATOM     23  C   UNL d   1      -3.126  -1.834   0.082  0.00  0.00     0.039 A 
ATOM     24  C   UNL d   1      -4.090  -2.820  -0.131  0.00  0.00     0.035 A 
ATOM     25 CL   UNL d   1      -5.694  -2.587   0.448  0.00  0.00    -0.084 Cl
ATOM     26  C   UNL d   1      -3.768  -3.997  -0.809  0.00  0.00     0.024 A 
ATOM     27  C   UNL d   1      -2.466  -4.200  -1.268  0.00  0.00     0.003 A 
ATOM     28  C   UNL d   1      -1.492  -3.225  -1.051  0.00  0.00     0.016 A 
ENDBRANCH   8  22
TORSDOF 6
