REMARK  3 active torsions:
REMARK  status: ('A' for Active; 'I' for Inactive)
REMARK    1  A    between atoms: C_6  and  N_1 
REMARK    2  A    between atoms: O_18  and  C_15 
REMARK    3  A    between atoms: O_19  and  C_16 
ROOT
ATOM      1  N   UNL d   1      -2.284  -0.037  -0.176  0.00  0.00    -0.252 N 
ATOM      2  C   UNL d   1      -1.548  -1.141   0.200  0.00  0.00     0.236 C 
ATOM      3  C   UNL d   1      -1.497   1.092  -0.198  0.00  0.00     0.236 C 
ATOM      4  C   UNL d   1      -0.211  -0.698   0.748  0.00  0.00     0.096 C 
ATOM      5  C   UNL d   1      -0.251   0.815   0.611  0.00  0.00     0.095 C 
ATOM      6  C   UNL d   1       0.986   1.540   0.104  0.00  0.00     0.042 C 
ATOM      7  C   UNL d   1       0.938  -1.475   0.104  0.00  0.00     0.048 C 
ATOM      8  O   UNL d   1      -1.857  -2.323   0.122  0.00  0.00    -0.272 OA
ATOM      9  O   UNL d   1      -1.748   2.199  -0.657  0.00  0.00    -0.272 OA
ATOM     10  C   UNL d   1       2.052   0.681  -0.488  0.00  0.00    -0.023 C 
ATOM     11  C   UNL d   1       2.047  -0.659  -0.488  0.00  0.00    -0.087 C 
ATOM     12  C   UNL d   1       3.203  -1.424  -1.075  0.00  0.00     0.043 C 
ENDROOT
BRANCH   1  13
ATOM     13  C   UNL d   1      -3.691  -0.059  -0.445  0.00  0.00     0.050 A 
ATOM     14  C   UNL d   1      -4.485  -1.105   0.060  0.00  0.00     0.067 A 
ATOM     15  C   UNL d   1      -5.880  -1.072  -0.018  0.00  0.00     0.073 A 
ATOM     16  C   UNL d   1      -6.509  -0.007  -0.659  0.00  0.00     0.073 A 
ATOM     17  C   UNL d   1      -5.752   1.028  -1.202  0.00  0.00     0.073 A 
ATOM     18  C   UNL d   1      -4.354   0.996  -1.090  0.00  0.00     0.067 A 
BRANCH  15  19
ATOM     19  O   UNL d   1      -6.729  -2.005   0.518  0.00  0.00    -0.356 OA
ATOM     20  C   UNL d   1      -6.142  -3.014   1.333  0.00  0.00     0.210 C 
ENDBRANCH  15  19
BRANCH  17  21
ATOM     21  O   UNL d   1      -6.253   2.129  -1.844  0.00  0.00    -0.356 OA
ATOM     22  C   UNL d   1      -7.671   2.253  -1.898  0.00  0.00     0.210 C 
ENDBRANCH  17  21
ENDBRANCH   1  13
TORSDOF 3
