REMARK  7 active torsions:
REMARK  status: ('A' for Active; 'I' for Inactive)
REMARK    1  A    between atoms: C_10  and  C_1 
REMARK    2  A    between atoms: C_4  and  C_2 
REMARK    3  A    between atoms: C_3  and  C_8 
REMARK    4  A    between atoms: N_17  and  C_7 
REMARK       I    between atoms: C_8  and  N_14 
REMARK    5  A    between atoms: O_26  and  C_10 
REMARK    6  A    between atoms: N_14  and  N_17 
REMARK    7  A    between atoms: C_28  and  O_26 
ROOT
ATOM      1  C   UNL d   1      -0.047  -1.442   0.032  0.00  0.00     0.086 A 
ATOM      2  C   UNL d   1       1.155  -0.763   0.073  0.00  0.00     0.136 A 
ATOM      3  N   UNL d   1       1.183   0.604   0.204  0.00  0.00    -0.327 N 
ATOM      4  HN  UNL d   1       2.075   1.096   0.248  1.00  0.00     0.168 HD
ATOM      5  C   UNL d   1       0.033   1.289   0.275  0.00  0.00     0.176 A 
ATOM      6  N   UNL d   1      -1.168   0.698   0.191  0.00  0.00    -0.340 N 
ATOM      7  HN  UNL d   1      -2.032   1.239   0.216  1.00  0.00     0.167 HD
ATOM      8  C   UNL d   1      -1.180  -0.647   0.070  0.00  0.00     0.110 A 
ENDROOT
BRANCH   5   9
ATOM      9  N   UNL d   1       0.127   2.670   0.474  0.00  0.00    -0.172 NA
ATOM     10  H   UNL d   1       1.047   2.990   0.164  0.00  0.00     0.156 HD
BRANCH   9  11
ATOM     11  N   UNL d   1      -0.934   3.408  -0.077  0.00  0.00    -0.280 N 
ATOM     12  C   UNL d   1      -0.648   4.665  -0.569  0.00  0.00     0.267 C 
ATOM     13  O   UNL d   1       0.504   5.085  -0.655  0.00  0.00    -0.266 OA
ATOM     14  H   UNL d   1      -1.870   3.042   0.091  0.00  0.00     0.184 HD
BRANCH  12  15
ATOM     15  C   UNL d   1      -1.784   5.497  -1.075  0.00  0.00     0.055 A 
ATOM     16  C   UNL d   1      -3.131   5.364  -0.703  0.00  0.00     0.051 A 
ATOM     17  C   UNL d   1      -4.111   6.173  -1.298  0.00  0.00     0.048 A 
ATOM     18 CL   UNL d   1      -3.694   4.264   0.507  0.00  0.00    -0.083 Cl
ATOM     19  C   UNL d   1      -3.753   7.126  -2.249  0.00  0.00     0.035 A 
ATOM     20  C   UNL d   1      -2.420   7.296  -2.603  0.00  0.00     0.025 A 
ATOM     21 CL   UNL d   1      -4.965   8.096  -2.988  0.00  0.00    -0.084 Cl
ATOM     22  C   UNL d   1      -1.442   6.489  -2.015  0.00  0.00     0.020 A 
ENDBRANCH  12  15
ENDBRANCH   9  11
ENDBRANCH   5   9
BRANCH   2  23
ATOM     23  C   UNL d   1       2.511  -1.416  -0.074  0.00  0.00     0.433 C 
ATOM     24  F   UNL d   1       2.522  -2.741  -0.368  0.00  0.00    -0.165 F 
ATOM     25  F   UNL d   1       3.242  -0.848  -1.082  0.00  0.00    -0.165 F 
ATOM     26  F   UNL d   1       3.278  -1.279   1.049  0.00  0.00    -0.165 F 
ENDBRANCH   2  23
BRANCH   1  27
ATOM     27  C   UNL d   1      -0.269  -2.890  -0.079  0.00  0.00     0.296 C 
ATOM     28  O   UNL d   1      -1.181  -3.357  -0.740  0.00  0.00    -0.259 OA
BRANCH  27  29
ATOM     29  O   UNL d   1       0.578  -3.572   0.721  0.00  0.00    -0.318 OA
BRANCH  29  30
ATOM     30  C   UNL d   1       0.429  -5.006   0.708  0.00  0.00     0.174 C 
ATOM     31  C   UNL d   1       0.976  -5.621  -0.572  0.00  0.00     0.034 C 
ENDBRANCH  29  30
ENDBRANCH  27  29
ENDBRANCH   1  27
TORSDOF 7
