REMARK  7 active torsions:
REMARK  status: ('A' for Active; 'I' for Inactive)
REMARK    1  A    between atoms: C_2  and  S_1 
REMARK    2  A    between atoms: N_6  and  S_1 
REMARK    3  A    between atoms: C_11  and  C_3 
REMARK    4  A    between atoms: N_9  and  N_6 
REMARK    5  A    between atoms: N_7  and  C_10 
REMARK    6  A    between atoms: C_12  and  N_9 
REMARK    7  A    between atoms: O_23  and  C_11 
ROOT
ATOM      1  S   UNL d   1       0.864   0.052   0.353  0.00  0.00     0.262 S 
ATOM      2  O   UNL d   1       0.056  -1.125   0.122  0.00  0.00    -0.204 OA
ATOM      3  O   UNL d   1       2.240  -0.034   0.795  0.00  0.00    -0.204 OA
ENDROOT
BRANCH   1   4
ATOM      4  C   UNL d   1      -0.008   0.894   1.583  0.00  0.00     0.124 A 
ATOM      5  C   UNL d   1       0.343   1.183   2.950  0.00  0.00     0.094 A 
ATOM      6  C   UNL d   1      -0.800   1.765   3.488  0.00  0.00     0.067 A 
ATOM      7  C   UNL d   1      -1.182   2.206   4.850  0.00  0.00     0.078 C 
ATOM      8  O   UNL d   1      -1.757   1.929   2.546  0.00  0.00    -0.318 OA
ATOM      9  C   UNL d   1      -1.284   1.403   1.389  0.00  0.00     0.073 A 
ATOM     10  C   UNL d   1      -2.233   1.497   0.257  0.00  0.00     0.078 C 
BRANCH   5  11
ATOM     11  C   UNL d   1       1.541   0.993   3.759  0.00  0.00     0.297 C 
ATOM     12  O   UNL d   1       1.752   1.657   4.769  0.00  0.00    -0.259 OA
BRANCH  11  13
ATOM     13  O   UNL d   1       2.379   0.022   3.324  0.00  0.00    -0.322 OA
ATOM     14  C   UNL d   1       3.610  -0.083   4.045  0.00  0.00     0.213 C 
ENDBRANCH  11  13
ENDBRANCH   5  11
ENDBRANCH   1   4
BRANCH   1  15
ATOM     15  N   UNL d   1       0.835   0.988  -1.086  0.00  0.00    -0.122 NA
ATOM     16  H   UNL d   1      -0.078   1.442  -1.179  0.00  0.00     0.166 HD
BRANCH  15  17
ATOM     17  N   UNL d   1       1.927   2.004  -1.282  0.00  0.00    -0.289 N 
ATOM     18  C   UNL d   1       3.213   1.472  -1.715  0.00  0.00     0.174 C 
BRANCH  17  19
ATOM     19  C   UNL d   1       1.557   3.328  -1.510  0.00  0.00     0.118 A 
ATOM     20  N   UNL d   1       0.281   3.652  -1.159  0.00  0.00    -0.349 N 
ATOM     21  C   UNL d   1      -0.114   4.947  -1.258  0.00  0.00     0.125 A 
ATOM     22  HN  UNL d   1      -0.366   2.936  -0.829  1.00  0.00     0.167 HD
ATOM     23  C   UNL d   1       0.710   5.951  -1.730  0.00  0.00     0.118 A 
ATOM     24  C   UNL d   1       2.000   5.620  -2.136  0.00  0.00     0.041 A 
ATOM     25  C   UNL d   1       2.426   4.294  -2.017  0.00  0.00     0.052 A 
BRANCH  23  26
ATOM     26  N   UNL d   1       0.231   7.323  -1.783  0.00  0.00    -0.114 N 
ATOM     27  O   UNL d   1      -0.910   7.552  -1.359  0.00  0.00    -0.532 OA
ATOM     28  O   UNL d   1       0.997   8.180  -2.247  0.00  0.00    -0.532 OA
ENDBRANCH  23  26
ENDBRANCH  17  19
ENDBRANCH  15  17
ENDBRANCH   1  15
TORSDOF 7
