REMARK  9 active torsions:
REMARK  status: ('A' for Active; 'I' for Inactive)
REMARK    1  A    between atoms: C_5  and  N_1 
REMARK    2  A    between atoms: C_2  and  S_6 
REMARK    3  A    between atoms: C_14  and  N_3 
REMARK    4  A    between atoms: C_12  and  C_5 
REMARK    5  A    between atoms: C_13  and  C_5 
REMARK    6  A    between atoms: S_6  and  C_18 
REMARK    7  A    between atoms: C_17  and  C_14 
REMARK    8  A    between atoms: C_18  and  C_17 
REMARK    9  A    between atoms: O_19  and  C_17 
ROOT
ATOM      1  N   UNL d   1      -1.597   0.216   0.257  0.00  0.00     0.105 N 
ATOM      2  N   UNL d   1       1.414   0.007  -0.308  0.00  0.00     0.094 N 
ATOM      3  C   UNL d   1      -0.925  -1.010  -0.240  0.00  0.00     0.304 C 
ATOM      4  C   UNL d   1      -0.777   1.367  -0.210  0.00  0.00     0.304 C 
ATOM      5  C   UNL d   1       0.570  -1.126   0.148  0.00  0.00     0.302 C 
ATOM      6  C   UNL d   1       0.749   1.273   0.080  0.00  0.00     0.302 C 
ENDROOT
BRANCH   1   7
ATOM      7  C   UNL d   1      -1.774   0.210   1.741  0.00  0.00     0.289 C 
BRANCH   7   8
ATOM      8  C   UNL d   1      -2.504   1.454   2.266  0.00  0.00    -0.021 A 
ATOM      9  C   UNL d   1      -3.798   1.786   1.831  0.00  0.00     0.010 A 
ATOM     10  C   UNL d   1      -4.479   2.875   2.382  0.00  0.00     0.001 A 
ATOM     11  C   UNL d   1      -3.870   3.655   3.362  0.00  0.00     0.000 A 
ATOM     12  C   UNL d   1      -2.579   3.353   3.790  0.00  0.00     0.001 A 
ATOM     13  C   UNL d   1      -1.901   2.259   3.248  0.00  0.00     0.010 A 
ENDBRANCH   7   8
BRANCH   7  14
ATOM     14  C   UNL d   1      -2.467  -1.044   2.307  0.00  0.00    -0.021 A 
ATOM     15  C   UNL d   1      -2.041  -1.570   3.540  0.00  0.00     0.010 A 
ATOM     16  C   UNL d   1      -2.668  -2.683   4.100  0.00  0.00     0.001 A 
ATOM     17  C   UNL d   1      -3.736  -3.289   3.440  0.00  0.00     0.000 A 
ATOM     18  C   UNL d   1      -4.182  -2.776   2.225  0.00  0.00     0.001 A 
ATOM     19  C   UNL d   1      -3.559  -1.656   1.666  0.00  0.00     0.010 A 
ENDBRANCH   7  14
ENDBRANCH   1   7
BRANCH   2  20
ATOM     20  C   UNL d   1       1.660  -0.117  -1.756  0.00  0.00     0.304 C 
BRANCH  20  21
ATOM     21  C   UNL d   1       2.606   0.892  -2.451  0.00  0.00     0.156 C 
BRANCH  21  22
ATOM     22  C   UNL d   1       4.034   0.931  -1.872  0.00  0.00     0.113 C 
BRANCH  22  23
ATOM     23  S   UNL d   1       4.995   2.230  -2.736  0.00  0.00    -0.120 SA
BRANCH  23  24
ATOM     24  C   UNL d   1       6.615   2.130  -2.061  0.00  0.00     0.041 A 
ATOM     25  S   UNL d   1       6.995   1.562  -0.494  0.00  0.00    -0.095 SA
ATOM     26  C   UNL d   1       8.659   1.906  -0.694  0.00  0.00     0.051 A 
ATOM     27  C   UNL d   1       8.930   2.441  -1.933  0.00  0.00     0.009 A 
ATOM     28  C   UNL d   1       7.748   2.570  -2.720  0.00  0.00     0.026 A 
ENDBRANCH  23  24
ENDBRANCH  22  23
ENDBRANCH  21  22
BRANCH  21  29
ATOM     29  O   UNL d   1       2.644   0.519  -3.845  0.00  0.00    -0.393 OA
ATOM     30  H   UNL d   1       3.107  -0.331  -3.916  0.00  0.00     0.210 HD
ENDBRANCH  21  29
ENDBRANCH  20  21
ENDBRANCH   2  20
TORSDOF 9
