REMARK  2 active torsions:
REMARK  status: ('A' for Active; 'I' for Inactive)
REMARK    1  A    between atoms: C_13  and  C_6 
REMARK    2  A    between atoms: C_7  and  C_12 
ROOT
ATOM      1  C   UNL d   1       1.992   1.355   0.061  0.00  0.00     0.026 C 
ATOM      2  N   UNL d   1       0.905   1.436  -0.621  0.00  0.00    -0.357 N 
ATOM      3  HN  UNL d   1       0.887   2.153  -1.347  1.00  0.00     0.166 HD
ATOM      4  C   UNL d   1       2.434   0.323   1.044  0.00  0.00     0.055 C 
ATOM      5  S   UNL d   1       0.628  -1.786   0.824  0.00  0.00    -0.117 SA
ATOM      6  C   UNL d   1       2.253  -1.090   0.520  0.00  0.00     0.095 C 
ATOM      7  C   UNL d   1       2.916   2.500   0.126  0.00  0.00    -0.007 A 
ATOM      8  C   UNL d   1      -0.264   0.659  -0.493  0.00  0.00     0.049 A 
ATOM      9  C   UNL d   1      -0.490  -0.624   0.045  0.00  0.00     0.028 A 
ATOM     10  C   UNL d   1       1.927   0.851   2.385  0.00  0.00     0.017 C 
ATOM     11  C   UNL d   1       3.270   2.879   1.442  0.00  0.00    -0.046 A 
ATOM     12  C   UNL d   1       2.563   2.257   2.647  0.00  0.00     0.040 C 
ATOM     13  C   UNL d   1       3.579   2.976  -0.999  0.00  0.00     0.014 A 
ATOM     14  C   UNL d   1      -1.397   1.377  -0.945  0.00  0.00     0.031 A 
ATOM     15  C   UNL d   1      -1.816  -1.133   0.065  0.00  0.00     0.021 A 
ATOM     16  C   UNL d   1       4.334   3.766   1.605  0.00  0.00     0.008 A 
ATOM     17  C   UNL d   1       4.659   3.836  -0.809  0.00  0.00     0.001 A 
ATOM     18  C   UNL d   1      -2.908  -0.395  -0.388  0.00  0.00     0.002 A 
ATOM     19  C   UNL d   1      -2.699   0.875  -0.885  0.00  0.00     0.002 A 
ATOM     20  C   UNL d   1       5.037   4.223   0.484  0.00  0.00     0.001 A 
ENDROOT
BRANCH   6  21
ATOM     21  C   UNL d   1       3.415  -1.910   1.105  0.00  0.00    -0.043 A 
ATOM     22  C   UNL d   1       4.667  -1.846   0.461  0.00  0.00     0.009 A 
ATOM     23  C   UNL d   1       5.824  -2.301   1.092  0.00  0.00     0.017 A 
ATOM     24  C   UNL d   1       5.760  -2.848   2.380  0.00  0.00     0.047 A 
ATOM     25  C   UNL d   1       4.507  -2.986   2.995  0.00  0.00     0.017 A 
ATOM     26  C   UNL d   1       3.350  -2.513   2.371  0.00  0.00     0.009 A 
BRANCH  24  27
ATOM     27  C   UNL d   1       7.010  -3.266   3.115  0.00  0.00     0.417 C 
ATOM     28  F   UNL d   1       8.160  -2.854   2.510  0.00  0.00    -0.166 F 
ATOM     29  F   UNL d   1       7.058  -2.766   4.383  0.00  0.00    -0.166 F 
ATOM     30  F   UNL d   1       7.116  -4.617   3.241  0.00  0.00    -0.166 F 
ENDBRANCH  24  27
ENDBRANCH   6  21
TORSDOF 2
