REMARK  3 active torsions:
REMARK  status: ('A' for Active; 'I' for Inactive)
REMARK    1  A    between atoms: C_7  and  C_1 
REMARK    2  A    between atoms: C_9  and  C_4 
REMARK       I    between atoms: N_12  and  C_7 
REMARK    3  A    between atoms: N_16  and  N_12 
ROOT
ATOM      1  C   UNL d   1       0.588  -1.013   0.063  0.00  0.00     0.241 A 
ATOM      2  N   UNL d   1       1.262   0.093  -0.188  0.00  0.00    -0.314 N 
ATOM      3  HN  UNL d   1       2.237   0.201  -0.468  1.00  0.00     0.170 HD
ATOM      4  C   UNL d   1       0.309   1.063   0.027  0.00  0.00     0.145 A 
ATOM      5  N   UNL d   1      -0.900   0.589   0.367  0.00  0.00    -0.241 N 
ATOM      6  HN  UNL d   1      -1.752   1.115   0.564  1.00  0.00     0.196 HD
ATOM      7  O   UNL d   1      -0.717  -0.794   0.386  0.00  0.00    -0.212 OA
ENDROOT
BRANCH   1   8
ATOM      8  C   UNL d   1       1.111  -2.360   0.081  0.00  0.00     0.309 C 
ATOM      9  O   UNL d   1       0.452  -3.370   0.342  0.00  0.00    -0.262 OA
ATOM     10  N   UNL d   1       2.477  -2.435  -0.202  0.00  0.00    -0.287 N 
ATOM     11  H   UNL d   1       2.973  -1.585  -0.474  0.00  0.00     0.183 HD
BRANCH  10  12
ATOM     12  N   UNL d   1       3.149  -3.680  -0.201  0.00  0.00    -0.247 NA
ATOM     13  H   UNL d   1       2.428  -4.416  -0.177  0.00  0.00     0.143 HD
ATOM     14  H   UNL d   1       3.633  -3.779   0.696  0.00  0.00     0.143 HD
ENDBRANCH  10  12
ENDBRANCH   1   8
BRANCH   4  15
ATOM     15  C   UNL d   1       0.601   2.527  -0.075  0.00  0.00     0.050 A 
ATOM     16  S   UNL d   1       2.112   3.161  -0.560  0.00  0.00    -0.098 SA
ATOM     17  C   UNL d   1       1.563   4.772  -0.378  0.00  0.00     0.050 A 
ATOM     18  C   UNL d   1       0.257   4.827   0.054  0.00  0.00     0.009 A 
ATOM     19  C   UNL d   1      -0.303   3.526   0.223  0.00  0.00     0.023 A 
ENDBRANCH   4  15
TORSDOF 3
