REMARK  2 active torsions:
REMARK  status: ('A' for Active; 'I' for Inactive)
REMARK       I    between atoms: N_2  and  C_1 
REMARK    1  A    between atoms: C_4  and  C_1 
REMARK       I    between atoms: C_3  and  N_2 
REMARK       I    between atoms: N_6  and  C_3 
REMARK    2  A    between atoms: C_11  and  N_6 
ROOT
ATOM      1  C   UNL d   1       2.898   5.879   4.258  0.00  0.00    -0.078 C 
ATOM      2  C   UNL d   1       2.337   6.582   5.054  0.00  0.00     0.018 C 
ATOM      3  C   UNL d   1       3.201   3.192   1.700  0.00  0.00     0.037 A 
ATOM      4  C   UNL d   1       3.475   5.033   3.262  0.00  0.00     0.019 A 
ATOM      5  C   UNL d   1       2.715   3.980   2.746  0.00  0.00     0.050 A 
ATOM      6  C   UNL d   1       5.268   4.463   1.755  0.00  0.00     0.004 A 
ATOM      7  C   UNL d   1       4.497   3.422   1.226  0.00  0.00     0.029 A 
ATOM      8  C   UNL d   1       4.754   5.277   2.765  0.00  0.00     0.021 A 
ENDROOT
BRANCH   3   9
ATOM      9  N   UNL d   1       2.429   2.190   1.079  0.00  0.00    -0.309 N 
ATOM     10  C   UNL d   1       1.075   2.029   1.194  0.00  0.00     0.327 C 
ATOM     11  N   UNL d   1       0.527   0.987   0.492  0.00  0.00    -0.275 N 
ATOM     12  O   UNL d   1       0.298   2.726   1.842  0.00  0.00    -0.247 OA
ATOM     13  C   UNL d   1       1.122   0.049  -0.330  0.00  0.00     0.261 C 
ATOM     14  H   UNL d   1      -0.467   0.924   0.662  0.00  0.00     0.173 HD
ATOM     15  O   UNL d   1       2.313   0.076  -0.631  0.00  0.00    -0.267 OA
ATOM     16  H   UNL d   1       2.879   1.609   0.372  0.00  0.00     0.170 HD
BRANCH  13  17
ATOM     17  C   UNL d   1       0.209  -0.967  -0.936  0.00  0.00     0.054 A 
ATOM     18  C   UNL d   1      -0.985  -1.428  -0.357  0.00  0.00     0.049 A 
ATOM     19 CL   UNL d   1      -1.524  -0.982   1.225  0.00  0.00    -0.083 Cl
ATOM     20  C   UNL d   1      -1.804  -2.325  -1.054  0.00  0.00     0.025 A 
ATOM     21  C   UNL d   1      -1.432  -2.786  -2.317  0.00  0.00     0.002 A 
ATOM     22  C   UNL d   1      -0.235  -2.363  -2.883  0.00  0.00     0.001 A 
ATOM     23  C   UNL d   1       0.583  -1.461  -2.199  0.00  0.00     0.019 A 
ENDBRANCH  13  17
ENDBRANCH   3   9
TORSDOF 2
