REMARK  6 active torsions:
REMARK  status: ('A' for Active; 'I' for Inactive)
REMARK    1  A    between atoms: C_17  and  N_6 
REMARK    2  A    between atoms: N_12  and  C_7 
REMARK    3  A    between atoms: N_11  and  C_8 
REMARK    4  A    between atoms: C_19  and  C_9 
REMARK    5  A    between atoms: C_13  and  C_16 
REMARK    6  A    between atoms: C_16  and  C_17 
ROOT
ATOM      1  C   UNL d   1       2.438  -2.901  -1.259  0.00  0.00     0.119 A 
ATOM      2  C   UNL d   1       3.865  -2.968   0.629  0.00  0.00     0.119 A 
ATOM      3  C   UNL d   1       3.093  -3.734  -0.307  0.00  0.00     0.017 A 
ATOM      4  C   UNL d   1       3.173  -0.762  -0.266  0.00  0.00     0.028 A 
ATOM      5  C   UNL d   1       3.934  -1.526   0.660  0.00  0.00    -0.014 A 
ATOM      6  C   UNL d   1       2.475  -1.456  -1.281  0.00  0.00    -0.014 A 
ATOM      7  C   UNL d   1       1.751  -0.714  -2.389  0.00  0.00     0.052 C 
ATOM      8  C   UNL d   1       4.824  -0.808   1.671  0.00  0.00     0.052 C 
ENDROOT
BRANCH   4   9
ATOM      9  C   UNL d   1       3.060   0.750  -0.045  0.00  0.00     0.181 C 
ATOM     10  O   UNL d   1       2.978   1.160   1.107  0.00  0.00    -0.290 OA
BRANCH   9  11
ATOM     11  C   UNL d   1       3.042   1.694  -1.222  0.00  0.00     0.251 C 
BRANCH  11  12
ATOM     12  N   UNL d   1       2.988   3.109  -0.871  0.00  0.00    -0.196 N 
ATOM     13  N   UNL d   1       1.776   3.714  -0.820  0.00  0.00    -0.116 N 
ATOM     14  C   UNL d   1       2.072   4.928  -1.294  0.00  0.00     0.709 A 
ATOM     15  HN  UNL d   1       0.880   3.342  -0.506  1.00  0.00     0.207 HD
ATOM     16  N   UNL d   1       3.414   5.071  -1.553  0.00  0.00    -0.113 N 
ATOM     17  N   UNL d   1       1.178   5.897  -1.612  0.00  0.00    -0.211 N 
ATOM     18  N   UNL d   1       3.995   3.913  -1.272  0.00  0.00     0.011 NA
ATOM     19  HN  UNL d   1       3.878   5.911  -1.898  1.00  0.00     0.203 HD
ATOM     20  C   UNL d   1      -0.065   5.982  -0.831  0.00  0.00     0.167 C 
ATOM     21  C   UNL d   1       1.665   7.192  -2.102  0.00  0.00     0.167 C 
ATOM     22  C   UNL d   1      -1.119   6.807  -1.586  0.00  0.00     0.188 C 
ATOM     23  O   UNL d   1      -0.615   8.096  -1.972  0.00  0.00    -0.388 OA
ATOM     24  C   UNL d   1       0.531   7.939  -2.822  0.00  0.00     0.188 C 
ENDBRANCH  11  12
ENDBRANCH   9  11
ENDBRANCH   4   9
BRANCH   2  25
ATOM     25  N   UNL d   1       4.690  -3.625   1.642  0.00  0.00    -0.114 N 
ATOM     26  O   UNL d   1       4.174  -3.825   2.748  0.00  0.00    -0.532 OA
ATOM     27  O   UNL d   1       5.875  -3.821   1.347  0.00  0.00    -0.532 OA
ENDBRANCH   2  25
BRANCH   1  28
ATOM     28  N   UNL d   1       1.633  -3.481  -2.318  0.00  0.00    -0.114 N 
ATOM     29  O   UNL d   1       2.212  -3.735  -3.381  0.00  0.00    -0.532 OA
ATOM     30  O   UNL d   1       0.414  -3.571  -2.102  0.00  0.00    -0.532 OA
ENDBRANCH   1  28
BRANCH   3  31
ATOM     31  C   UNL d   1       2.986  -5.311  -0.270  0.00  0.00    -0.019 C 
ATOM     32  C   UNL d   1       2.136  -6.041  -1.356  0.00  0.00     0.019 C 
ATOM     33  C   UNL d   1       4.372  -5.979  -0.445  0.00  0.00     0.019 C 
ATOM     34  C   UNL d   1       2.309  -5.790   1.040  0.00  0.00     0.019 C 
ENDBRANCH   3  31
TORSDOF 6
