REMARK  2 active torsions:
REMARK  status: ('A' for Active; 'I' for Inactive)
REMARK    1  A    between atoms: C_2  and  C_1 
REMARK       I    between atoms: N_7  and  C_2 
REMARK    2  A    between atoms: C_8  and  C_5 
ROOT
ATOM      1  C   UNL d   1      -0.259  -1.287   0.002  0.00  0.00     0.064 A 
ATOM      2  C   UNL d   1      -1.546  -0.705   0.206  0.00  0.00     0.057 A 
ATOM      3  C   UNL d   1       0.603  -0.201  -0.078  0.00  0.00     0.065 A 
ATOM      4  C   UNL d   1      -1.415   0.662   0.103  0.00  0.00     0.087 A 
ATOM      5  O   UNL d   1      -0.097   0.971  -0.063  0.00  0.00    -0.314 OA
ATOM      6  C   UNL d   1       2.073  -0.053  -0.157  0.00  0.00     0.077 C 
ENDROOT
BRANCH   1   7
ATOM      7  C   UNL d   1       0.143  -2.691   0.002  0.00  0.00     0.256 C 
ATOM      8  N   UNL d   1      -0.748  -3.648  -0.472  0.00  0.00    -0.344 N 
ATOM      9  C   UNL d   1      -1.939  -3.443  -1.305  0.00  0.00     0.152 C 
ATOM     10  C   UNL d   1      -0.422  -5.068  -0.309  0.00  0.00     0.152 C 
ATOM     11  C   UNL d   1      -3.119  -4.221  -0.710  0.00  0.00     0.187 C 
ATOM     12  O   UNL d   1      -2.801  -5.619  -0.611  0.00  0.00    -0.388 OA
ATOM     13  C   UNL d   1      -1.645  -5.831   0.218  0.00  0.00     0.187 C 
ATOM     14  O   UNL d   1       1.244  -3.016   0.447  0.00  0.00    -0.267 OA
ENDBRANCH   1   7
BRANCH   4  15
ATOM     15  C   UNL d   1      -2.359   1.773   0.179  0.00  0.00    -0.002 A 
ATOM     16  C   UNL d   1      -3.738   1.517   0.272  0.00  0.00     0.016 A 
ATOM     17  C   UNL d   1      -4.657   2.560   0.411  0.00  0.00     0.024 A 
ATOM     18  C   UNL d   1      -4.206   3.875   0.450  0.00  0.00     0.034 A 
ATOM     19  C   UNL d   1      -2.848   4.155   0.328  0.00  0.00     0.024 A 
ATOM     20 CL   UNL d   1      -5.333   5.157   0.665  0.00  0.00    -0.084 Cl
ATOM     21  C   UNL d   1      -1.929   3.108   0.189  0.00  0.00     0.016 A 
ENDBRANCH   4  15
TORSDOF 2
