REMARK  3 active torsions:
REMARK  status: ('A' for Active; 'I' for Inactive)
REMARK    1  A    between atoms: C_10  and  C_4 
REMARK    2  A    between atoms: C_7  and  C_9 
REMARK    3  A    between atoms: C_15  and  C_8 
ROOT
ATOM      1  N   UNL d   1       0.877   0.591   0.097  0.00  0.00    -0.346 N 
ATOM      2  HN  UNL d   1       1.692   1.192   0.214  1.00  0.00     0.167 HD
ATOM      3  S   UNL d   1      -0.596  -1.548  -0.280  0.00  0.00    -0.027 SA
ATOM      4  C   UNL d   1       0.925  -0.684  -0.151  0.00  0.00     0.088 A 
ATOM      5  C   UNL d   1      -0.435   1.015   0.178  0.00  0.00     0.092 A 
ATOM      6  C   UNL d   1      -1.454  -0.048  -0.078  0.00  0.00     0.241 A 
ATOM      7  C   UNL d   1      -0.746   2.287   0.478  0.00  0.00     0.045 C 
ATOM      8  O   UNL d   1      -2.664   0.054  -0.170  0.00  0.00    -0.278 OA
ENDROOT
BRANCH   7   9
ATOM      9  C   UNL d   1      -2.096   2.820   0.668  0.00  0.00    -0.034 A 
ATOM     10  C   UNL d   1      -2.665   2.802   1.946  0.00  0.00     0.012 A 
ATOM     11  C   UNL d   1      -3.957   3.293   2.152  0.00  0.00     0.017 A 
ATOM     12  C   UNL d   1      -4.700   3.812   1.082  0.00  0.00     0.048 A 
ATOM     13  C   UNL d   1      -4.127   3.819  -0.200  0.00  0.00     0.017 A 
ATOM     14  C   UNL d   1      -2.832   3.328  -0.405  0.00  0.00     0.012 A 
BRANCH  12  15
ATOM     15  C   UNL d   1      -6.091   4.359   1.294  0.00  0.00     0.417 C 
ATOM     16  F   UNL d   1      -6.513   4.290   2.588  0.00  0.00    -0.166 F 
ATOM     17  F   UNL d   1      -6.189   5.673   0.944  0.00  0.00    -0.166 F 
ATOM     18  F   UNL d   1      -7.034   3.707   0.559  0.00  0.00    -0.166 F 
ENDBRANCH  12  15
ENDBRANCH   7   9
BRANCH   4  19
ATOM     19  C   UNL d   1       2.198  -1.433  -0.318  0.00  0.00    -0.002 A 
ATOM     20  C   UNL d   1       2.262  -2.623  -1.058  0.00  0.00     0.014 A 
ATOM     21  C   UNL d   1       3.478  -3.292  -1.220  0.00  0.00     0.001 A 
ATOM     22  C   UNL d   1       4.637  -2.781  -0.644  0.00  0.00     0.000 A 
ATOM     23  C   UNL d   1       4.586  -1.600   0.094  0.00  0.00     0.001 A 
ATOM     24  C   UNL d   1       3.371  -0.922   0.253  0.00  0.00     0.014 A 
ENDBRANCH   4  19
TORSDOF 3
