REMARK  2 active torsions:
REMARK  status: ('A' for Active; 'I' for Inactive)
REMARK    1  A    between atoms: N_4  and  N_1 
REMARK    2  A    between atoms: C_3  and  C_7 
REMARK       I    between atoms: N_12  and  C_6 
REMARK       I    between atoms: N_13  and  C_6 
ROOT
ATOM      1  N   UNL d   1       0.951   0.158  -0.115  0.00  0.00    -0.302 N 
ATOM      2  HN  UNL d   1       0.417   0.018  -0.973  1.00  0.00     0.186 HD
ATOM      3  C   UNL d   1       2.253   0.094  -0.064  0.00  0.00     0.039 C 
ATOM      4  C   UNL d   1       3.032   0.365   1.210  0.00  0.00     0.071 C 
ENDROOT
BRANCH   1   5
ATOM      5  N   UNL d   1       0.355   0.436   1.123  0.00  0.00    -0.281 N 
ATOM      6  C   UNL d   1      -0.936   0.472   1.057  0.00  0.00     0.141 C 
ATOM      7  N   UNL d   1      -1.680   0.312  -0.063  0.00  0.00    -0.278 NA
ATOM      8  N   UNL d   1      -1.721   0.677   2.139  0.00  0.00    -0.278 NA
ATOM      9  H   UNL d   1      -1.046   0.010  -0.802  0.00  0.00     0.126 HD
ATOM     10  H   UNL d   1      -2.417  -0.369   0.071  0.00  0.00     0.126 HD
ATOM     11  H   UNL d   1      -1.171   0.987   2.932  0.00  0.00     0.126 HD
ATOM     12  H   UNL d   1      -2.481   1.316   1.943  0.00  0.00     0.126 HD
ATOM     13  HN  UNL d   1       0.883   0.593   1.982  1.00  0.00     0.189 HD
ENDBRANCH   1   5
BRANCH   3  14
ATOM     14  C   UNL d   1       2.956  -0.258  -1.292  0.00  0.00     0.028 A 
ATOM     15  S   UNL d   1       4.478  -1.048  -1.263  0.00  0.00    -0.100 SA
ATOM     16  C   UNL d   1       4.560  -1.119  -2.967  0.00  0.00     0.050 A 
ATOM     17  C   UNL d   1       3.450  -0.563  -3.559  0.00  0.00     0.008 A 
ATOM     18  C   UNL d   1       2.520  -0.079  -2.593  0.00  0.00     0.021 A 
ENDBRANCH   3  14
TORSDOF 2
