REMARK  1 active torsions:
REMARK  status: ('A' for Active; 'I' for Inactive)
REMARK    1  A    between atoms: C_13  and  C_3 
ROOT
ATOM      1  N   UNL d   1      -0.223  -0.701   0.001  0.00  0.00    -0.241 N 
ATOM      2  C   UNL d   1      -0.158   0.684   0.001  0.00  0.00     0.143 A 
ATOM      3  C   UNL d   1       2.106  -0.751  -0.010  0.00  0.00     0.117 A 
ATOM      4  C   UNL d   1       0.953  -1.462  -0.002  0.00  0.00     0.064 A 
ATOM      5  N   UNL d   1       2.106   0.637  -0.004  0.00  0.00    -0.294 N 
ATOM      6  HN  UNL d   1       3.001   1.128  -0.004  1.00  0.00     0.187 HD
ATOM      7  N   UNL d   1       1.045   1.314   0.001  0.00  0.00    -0.283 N 
ATOM      8  HN  UNL d   1       1.089   2.333   0.006  1.00  0.00     0.188 HD
ATOM      9  N   UNL d   1      -1.514  -1.132   0.007  0.00  0.00    -0.297 N 
ATOM     10  HN  UNL d   1      -1.845  -2.097   0.014  1.00  0.00     0.187 HD
ATOM     11  C   UNL d   1      -1.454   1.142   0.001  0.00  0.00     0.077 A 
ATOM     12  C   UNL d   1      -2.253  -0.018   0.003  0.00  0.00     0.026 A 
ATOM     13  C   UNL d   1       0.762  -2.951   0.009  0.00  0.00     0.073 C 
ATOM     14  C   UNL d   1      -3.735  -0.093   0.003  0.00  0.00     0.070 C 
ENDROOT
BRANCH   3  15
ATOM     15  C   UNL d   1       3.469  -1.400  -0.026  0.00  0.00     0.175 C 
ATOM     16  O   UNL d   1       3.643  -2.557  -0.409  0.00  0.00    -0.291 OA
ATOM     17  C   UNL d   1       4.661  -0.590   0.433  0.00  0.00     0.098 C 
ENDBRANCH   3  15
TORSDOF 1
