REMARK  2 active torsions:
REMARK  status: ('A' for Active; 'I' for Inactive)
REMARK    1  A    between atoms: N_3  and  S_1 
REMARK    2  A    between atoms: C_9  and  S_1 
ROOT
ATOM      1  C   UNL d   1       1.624  -0.379   1.642  0.00  0.00     0.074 A 
ATOM      2  N   UNL d   1       3.412  -1.771   6.544  0.00  0.00    -0.191 NA
ATOM      3  C   UNL d   1       3.016  -1.507   5.483  0.00  0.00     0.099 C 
ATOM      4  C   UNL d   1       0.715  -0.519   2.693  0.00  0.00     0.026 A 
ATOM      5  C   UNL d   1       2.981  -0.669   1.837  0.00  0.00     0.026 A 
ATOM      6  C   UNL d   1       2.537  -1.163   4.174  0.00  0.00     0.044 A 
ATOM      7  C   UNL d   1       3.432  -1.072   3.100  0.00  0.00     0.024 A 
ATOM      8  C   UNL d   1       1.177  -0.895   3.962  0.00  0.00     0.024 A 
ENDROOT
BRANCH   1   9
ATOM      9  S   UNL d   1       1.037   0.105   0.032  0.00  0.00     0.243 S 
ATOM     10  O   UNL d   1       2.192   0.233  -0.833  0.00  0.00    -0.206 OA
ATOM     11  O   UNL d   1      -0.049  -0.787  -0.313  0.00  0.00    -0.206 OA
BRANCH   9  12
ATOM     12  N   UNL d   1       0.381   1.683   0.241  0.00  0.00    -0.202 NA
ATOM     13  C   UNL d   1       1.362   2.661   0.843  0.00  0.00     0.149 C 
ATOM     14  C   UNL d   1       0.995   4.086   0.551  0.00  0.00    -0.009 A 
ATOM     15  C   UNL d   1       1.656   5.293   0.931  0.00  0.00     0.003 A 
ATOM     16  C   UNL d   1      -0.075   4.454  -0.234  0.00  0.00     0.019 A 
ATOM     17  C   UNL d   1       0.975   6.351   0.314  0.00  0.00     0.043 A 
ATOM     18  C   UNL d   1       2.784   5.592   1.719  0.00  0.00     0.056 A 
ATOM     19  C   UNL d   1       1.375   7.689   0.434  0.00  0.00     0.033 A 
ATOM     20  N   UNL d   1      -0.080   5.808  -0.388  0.00  0.00    -0.358 N 
ATOM     21  C   UNL d   1       2.494   7.958   1.224  0.00  0.00     0.044 A 
ATOM     22  C   UNL d   1       3.177   6.925   1.853  0.00  0.00     0.117 A 
ATOM     23  F   UNL d   1       4.245   7.215   2.609  0.00  0.00    -0.206 F 
ATOM     24  H   UNL d   1      -0.731   6.341  -0.949  0.00  0.00     0.166 HD
ATOM     25  C   UNL d   1      -1.013   3.497  -0.860  0.00  0.00     0.073 C 
ATOM     26  C   UNL d   1      -0.255   2.170  -1.052  0.00  0.00     0.114 C 
ENDBRANCH   9  12
ENDBRANCH   1   9
TORSDOF 2
