REMARK  6 active torsions:
REMARK  status: ('A' for Active; 'I' for Inactive)
REMARK    1  A    between atoms: N_2  and  C_1 
REMARK    2  A    between atoms: C_3  and  C_9 
REMARK    3  A    between atoms: C_4  and  C_10 
REMARK    4  A    between atoms: O_8  and  C_5 
REMARK    5  A    between atoms: C_6  and  O_8 
REMARK    6  A    between atoms: C_11  and  C_6 
ROOT
ATOM      1  C   UNL d   1      -0.944  -1.791  -1.258  0.00  0.00     0.137 A 
ATOM      2  C   UNL d   1       0.336  -1.447  -0.819  0.00  0.00     0.112 A 
ATOM      3  C   UNL d   1      -1.742  -0.899  -1.978  0.00  0.00     0.055 A 
ATOM      4  C   UNL d   1      -1.249   0.383  -2.256  0.00  0.00     0.050 A 
ATOM      5  C   UNL d   1       0.842  -0.183  -1.102  0.00  0.00     0.041 A 
ATOM      6  C   UNL d   1       0.051   0.724  -1.823  0.00  0.00     0.019 A 
ENDROOT
BRANCH   2   7
ATOM      7  O   UNL d   1       1.005  -2.377   0.001  0.00  0.00    -0.272 OA
BRANCH   7   8
ATOM      8  C   UNL d   1       2.372  -2.517   0.186  0.00  0.00     0.298 C 
ATOM      9  O   UNL d   1       3.253  -1.944  -0.423  0.00  0.00    -0.259 OA
BRANCH   8  10
ATOM     10  C   UNL d   1       2.567  -3.529   1.267  0.00  0.00     0.040 A 
ATOM     11  C   UNL d   1       1.505  -3.938   2.095  0.00  0.00     0.033 A 
ATOM     12  C   UNL d   1       1.706  -4.868   3.126  0.00  0.00     0.048 A 
ATOM     13  C   UNL d   1       2.991  -5.396   3.315  0.00  0.00     0.016 A 
ATOM     14  C   UNL d   1       4.051  -4.996   2.495  0.00  0.00     0.002 A 
ATOM     15  C   UNL d   1       3.842  -4.062   1.476  0.00  0.00     0.017 A 
BRANCH  12  16
ATOM     16  C   UNL d   1       0.565  -5.284   4.026  0.00  0.00     0.417 C 
ATOM     17  F   UNL d   1      -0.621  -4.699   3.706  0.00  0.00    -0.166 F 
ATOM     18  F   UNL d   1       0.342  -6.626   4.002  0.00  0.00    -0.166 F 
ATOM     19  F   UNL d   1       0.796  -4.963   5.329  0.00  0.00    -0.166 F 
ENDBRANCH  12  16
ENDBRANCH   8  10
ENDBRANCH   7   8
ENDBRANCH   2   7
BRANCH   1  20
ATOM     20  N   UNL d   1      -1.464  -3.108  -0.970  0.00  0.00    -0.113 N 
ATOM     21  O   UNL d   1      -1.587  -3.881  -1.928  0.00  0.00    -0.532 OA
ATOM     22  O   UNL d   1      -1.755  -3.356   0.208  0.00  0.00    -0.532 OA
ENDBRANCH   1  20
BRANCH   4  23
ATOM     23  C   UNL d   1      -2.089   1.383  -3.017  0.00  0.00     0.417 C 
ATOM     24  F   UNL d   1      -3.390   1.003  -3.141  0.00  0.00    -0.166 F 
ATOM     25  F   UNL d   1      -2.113   2.607  -2.422  0.00  0.00    -0.166 F 
ATOM     26  F   UNL d   1      -1.633   1.584  -4.282  0.00  0.00    -0.166 F 
ENDBRANCH   4  23
TORSDOF 6
