REMARK  3 active torsions:
REMARK  status: ('A' for Active; 'I' for Inactive)
REMARK    1  A    between atoms: C_5  and  C_1 
REMARK    2  A    between atoms: C_4  and  C_2 
REMARK    3  A    between atoms: C_3  and  C_5 
ROOT
ATOM      1  C   UNL d   1       0.627   0.935  -0.164  0.00  0.00     0.081 C 
ATOM      2  C   UNL d   1      -0.859   0.980   0.033  0.00  0.00     0.090 C 
ATOM      3  N   UNL d   1       1.129  -0.228  -0.460  0.00  0.00    -0.321 N 
ATOM      4  HN  UNL d   1       2.119  -0.462  -0.542  1.00  0.00     0.180 HD
ATOM      5  N   UNL d   1       0.080  -1.070  -0.640  0.00  0.00    -0.239 NA
ATOM      6  C   UNL d   1      -1.205  -0.487  -0.244  0.00  0.00     0.126 C 
ATOM      7  H   UNL d   1       0.241  -1.993  -0.231  0.00  0.00     0.146 HD
ENDROOT
BRANCH   1   8
ATOM      8  C   UNL d   1       1.453   2.202  -0.100  0.00  0.00     0.207 C 
ATOM      9  O   UNL d   1       0.988   3.157   0.505  0.00  0.00    -0.285 OA
BRANCH   8  10
ATOM     10  C   UNL d   1       2.729   2.317  -0.869  0.00  0.00     0.028 A 
ATOM     11  C   UNL d   1       3.800   3.149  -0.443  0.00  0.00    -0.011 A 
ATOM     12  C   UNL d   1       4.936   3.289  -1.294  0.00  0.00    -0.014 A 
ATOM     13  C   UNL d   1       3.805   3.841   0.798  0.00  0.00     0.013 A 
ATOM     14  C   UNL d   1       5.987   4.135  -0.853  0.00  0.00     0.013 A 
ATOM     15  C   UNL d   1       4.994   2.581  -2.550  0.00  0.00    -0.015 A 
ATOM     16  C   UNL d   1       5.952   4.813   0.366  0.00  0.00     0.001 A 
ATOM     17  C   UNL d   1       4.859   4.662   1.196  0.00  0.00     0.001 A 
ATOM     18  C   UNL d   1       3.923   1.734  -2.914  0.00  0.00    -0.024 A 
ATOM     19  C   UNL d   1       6.066   2.662  -3.477  0.00  0.00     0.013 A 
ATOM     20  C   UNL d   1       2.807   1.633  -2.088  0.00  0.00     0.028 A 
ATOM     21  C   UNL d   1       3.956   0.993  -4.107  0.00  0.00     0.012 A 
ATOM     22  C   UNL d   1       5.034   1.085  -4.980  0.00  0.00     0.001 A 
ATOM     23  C   UNL d   1       6.086   1.930  -4.670  0.00  0.00     0.001 A 
ENDBRANCH   8  10
ENDBRANCH   1   8
BRANCH   2  24
ATOM     24  C   UNL d   1      -1.332   1.520   1.387  0.00  0.00    -0.025 A 
ATOM     25  C   UNL d   1      -2.202   2.676   1.411  0.00  0.00    -0.018 A 
ATOM     26  C   UNL d   1      -2.576   3.212   2.666  0.00  0.00    -0.025 A 
ATOM     27  C   UNL d   1      -2.722   3.355   0.273  0.00  0.00     0.013 A 
ATOM     28  C   UNL d   1      -3.395   4.353   2.755  0.00  0.00     0.012 A 
ATOM     29  C   UNL d   1      -2.130   2.616   3.847  0.00  0.00     0.024 A 
ATOM     30  C   UNL d   1      -3.872   4.992   1.616  0.00  0.00     0.001 A 
ATOM     31  C   UNL d   1      -3.538   4.489   0.372  0.00  0.00     0.001 A 
ATOM     32  C   UNL d   1      -1.310   1.488   3.849  0.00  0.00    -0.025 A 
ATOM     33  C   UNL d   1      -0.886   0.916   2.627  0.00  0.00    -0.018 A 
ATOM     34  C   UNL d   1      -0.912   0.940   5.084  0.00  0.00     0.012 A 
ATOM     35  C   UNL d   1      -0.040  -0.220   2.754  0.00  0.00     0.013 A 
ATOM     36  C   UNL d   1       0.340  -0.768   3.982  0.00  0.00     0.001 A 
ATOM     37  C   UNL d   1      -0.098  -0.184   5.155  0.00  0.00     0.001 A 
ENDBRANCH   2  24
TORSDOF 3
