REMARK  2 active torsions:
REMARK  status: ('A' for Active; 'I' for Inactive)
REMARK    1  A    between atoms: O_17  and  C_7 
REMARK    2  A    between atoms: C_16  and  C_11 
ROOT
ATOM      1  C   UNL d   1       0.774   0.303  -0.051  0.00  0.00     0.099 A 
ATOM      2  C   UNL d   1       1.420  -0.947   0.106  0.00  0.00     0.077 A 
ATOM      3  C   UNL d   1      -0.626   0.394  -0.113  0.00  0.00     0.032 A 
ATOM      4  O   UNL d   1       1.439   1.501  -0.165  0.00  0.00    -0.339 OA
ATOM      5  C   UNL d   1       2.888  -0.850   0.279  0.00  0.00     0.167 C 
ATOM      6  C   UNL d   1      -1.382  -0.772  -0.031  0.00  0.00     0.086 A 
ATOM      7  C   UNL d   1       0.653  -2.124   0.125  0.00  0.00     0.087 A 
ATOM      8  C   UNL d   1      -1.328   1.672  -0.238  0.00  0.00     0.016 C 
ATOM      9  O   UNL d   1      -2.754  -0.772  -0.045  0.00  0.00    -0.336 OA
ATOM     10  C   UNL d   1      -0.748  -2.010   0.048  0.00  0.00     0.075 A 
ATOM     11  C   UNL d   1       2.826   1.515   0.183  0.00  0.00     0.169 C 
ATOM     12  C   UNL d   1       3.540   0.314  -0.396  0.00  0.00     0.121 C 
ATOM     13  C   UNL d   1      -2.635   1.692   0.041  0.00  0.00     0.012 C 
ATOM     14  C   UNL d   1      -3.384   0.440   0.437  0.00  0.00     0.078 C 
ATOM     15  O   UNL d   1       3.533  -1.590   1.015  0.00  0.00    -0.292 OA
ATOM     16  C   UNL d   1      -4.789   0.478  -0.176  0.00  0.00     0.051 C 
ATOM     17  C   UNL d   1      -3.503   0.345   1.965  0.00  0.00     0.051 C 
ENDROOT
BRANCH  11  18
ATOM     18  C   UNL d   1       3.434   2.809  -0.322  0.00  0.00    -0.029 A 
ATOM     19  C   UNL d   1       4.541   3.363   0.339  0.00  0.00     0.010 A 
ATOM     20  C   UNL d   1       5.088   4.574  -0.087  0.00  0.00     0.001 A 
ATOM     21  C   UNL d   1       4.538   5.244  -1.178  0.00  0.00     0.000 A 
ATOM     22  C   UNL d   1       3.456   4.693  -1.860  0.00  0.00     0.001 A 
ATOM     23  C   UNL d   1       2.914   3.478  -1.443  0.00  0.00     0.010 A 
ENDBRANCH  11  18
BRANCH   7  24
ATOM     24  O   UNL d   1       1.011  -3.440   0.187  0.00  0.00    -0.355 OA
ATOM     25  C   UNL d   1       2.363  -3.855   0.133  0.00  0.00     0.210 C 
ENDBRANCH   7  24
TORSDOF 2
