REMARK  6 active torsions:
REMARK  status: ('A' for Active; 'I' for Inactive)
REMARK    1  A    between atoms: C_6  and  C_1 
REMARK    2  A    between atoms: C_4  and  C_12 
REMARK    3  A    between atoms: O_13  and  C_6 
REMARK    4  A    between atoms: N_9  and  O_13 
REMARK    5  A    between atoms: C_14  and  C_11 
REMARK    6  A    between atoms: N_20  and  C_11 
ROOT
ATOM      1  N   UNL d   1      -2.445   2.542  -0.235  0.00  0.00    -0.246 N 
ATOM      2  HN  UNL d   1      -1.627   3.082  -0.519  1.00  0.00     0.196 HD
ATOM      3  C   UNL d   1      -3.615   3.056  -0.002  0.00  0.00     0.109 C 
ENDROOT
BRANCH   3   4
ATOM      4  C   UNL d   1      -3.791   4.541  -0.144  0.00  0.00     0.004 A 
ATOM      5  C   UNL d   1      -4.800   5.205   0.572  0.00  0.00     0.030 A 
ATOM      6  C   UNL d   1      -5.021   6.582   0.392  0.00  0.00     0.048 A 
ATOM      7  C   UNL d   1      -4.207   7.287  -0.508  0.00  0.00     0.016 A 
ATOM      8  C   UNL d   1      -3.187   6.633  -1.204  0.00  0.00     0.002 A 
ATOM      9  C   UNL d   1      -2.977   5.264  -1.020  0.00  0.00     0.015 A 
BRANCH   6  10
ATOM     10  C   UNL d   1      -6.126   7.301   1.128  0.00  0.00     0.417 C 
ATOM     11  F   UNL d   1      -6.826   6.496   1.976  0.00  0.00    -0.166 F 
ATOM     12  F   UNL d   1      -5.669   8.335   1.885  0.00  0.00    -0.166 F 
ATOM     13  F   UNL d   1      -7.049   7.835   0.280  0.00  0.00    -0.166 F 
ENDBRANCH   6  10
ENDBRANCH   3   4
BRANCH   3  14
ATOM     14  N   UNL d   1      -4.721   2.305   0.334  0.00  0.00    -0.286 NA
ATOM     15  H   UNL d   1      -4.605   1.325   0.111  0.00  0.00     0.125 HD
ATOM     16  H   UNL d   1      -5.610   2.665   0.001  0.00  0.00     0.125 HD
ENDBRANCH   3  14
BRANCH   1  17
ATOM     17  O   UNL d   1      -2.445   1.137  -0.045  0.00  0.00    -0.193 OA
BRANCH  17  18
ATOM     18  C   UNL d   1      -1.193   0.607  -0.288  0.00  0.00     0.319 C 
ATOM     19  O   UNL d   1      -0.214   1.240  -0.668  0.00  0.00    -0.257 OA
BRANCH  18  20
ATOM     20  C   UNL d   1      -1.139  -0.829  -0.059  0.00  0.00     0.096 A 
ATOM     21  C   UNL d   1      -2.140  -1.677   0.376  0.00  0.00     0.090 A 
ATOM     22  O   UNL d   1      -1.659  -2.946   0.452  0.00  0.00    -0.242 OA
ATOM     23  C   UNL d   1      -3.555  -1.524   0.761  0.00  0.00     0.080 C 
ATOM     24  N   UNL d   1      -0.338  -2.968   0.071  0.00  0.00    -0.265 N 
ATOM     25  C   UNL d   1      -0.023  -1.703  -0.232  0.00  0.00     0.047 A 
ATOM     26  HN  UNL d   1       0.276  -3.781   0.028  1.00  0.00     0.194 HD
ATOM     27  C   UNL d   1       1.352  -1.386  -0.685  0.00  0.00     0.071 C 
ENDBRANCH  18  20
ENDBRANCH  17  18
ENDBRANCH   1  17
TORSDOF 6
