REMARK  3 active torsions:
REMARK  status: ('A' for Active; 'I' for Inactive)
REMARK    1  A    between atoms: C_2  and  N_1 
REMARK    2  A    between atoms: C_3  and  C_8 
REMARK    3  A    between atoms: C_4  and  C_7 
ROOT
ATOM      1  C   UNL d   1       0.056   2.254  -0.133  0.00  0.00     0.046 A 
ATOM      2  C   UNL d   1      -0.506   4.424   0.871  0.00  0.00     0.050 A 
ATOM      3  C   UNL d   1       0.950   4.341  -1.080  0.00  0.00     0.050 A 
ATOM      4  C   UNL d   1      -0.627   3.022   0.823  0.00  0.00     0.046 A 
ATOM      5  C   UNL d   1       0.828   2.941  -1.085  0.00  0.00     0.046 A 
ATOM      6  C   UNL d   1       0.279   5.074  -0.093  0.00  0.00     0.032 A 
ENDROOT
BRANCH   1   7
ATOM      7  N   UNL d   1       0.010   0.826  -0.115  0.00  0.00    -0.252 N 
ATOM      8  C   UNL d   1      -0.977   0.080   0.487  0.00  0.00     0.231 A 
ATOM      9  C   UNL d   1      -0.680  -1.378   0.303  0.00  0.00     0.113 A 
ATOM     10  O   UNL d   1      -1.992   0.462   1.057  0.00  0.00    -0.273 OA
ATOM     11  C   UNL d   1       0.660  -1.414  -0.384  0.00  0.00     0.113 A 
ATOM     12  C   UNL d   1       0.993   0.020  -0.651  0.00  0.00     0.231 A 
ATOM     13  O   UNL d   1       2.035   0.341  -1.203  0.00  0.00    -0.273 OA
ENDBRANCH   1   7
BRANCH   2  14
ATOM     14  C   UNL d   1      -1.161   5.221   1.977  0.00  0.00     0.417 C 
ATOM     15  F   UNL d   1      -1.848   4.458   2.870  0.00  0.00    -0.166 F 
ATOM     16  F   UNL d   1      -0.249   5.918   2.710  0.00  0.00    -0.166 F 
ATOM     17  F   UNL d   1      -2.046   6.141   1.506  0.00  0.00    -0.166 F 
ENDBRANCH   2  14
BRANCH   3  18
ATOM     18  C   UNL d   1       1.812   5.042  -2.104  0.00  0.00     0.417 C 
ATOM     19  F   UNL d   1       2.427   4.195  -2.975  0.00  0.00    -0.166 F 
ATOM     20  F   UNL d   1       1.101   5.913  -2.870  0.00  0.00    -0.166 F 
ATOM     21  F   UNL d   1       2.806   5.772  -1.528  0.00  0.00    -0.166 F 
ENDBRANCH   3  18
TORSDOF 3
