REMARK  1 active torsions:
REMARK  status: ('A' for Active; 'I' for Inactive)
REMARK    1  A    between atoms: C_2  and  N_1 
ROOT
ATOM      1  C   UNL d   1      -0.757  -2.483   0.017  0.00  0.00     0.038 A 
ATOM      2  C   UNL d   1      -0.301  -3.362   1.013  0.00  0.00     0.031 A 
ATOM      3  C   UNL d   1      -1.635  -2.973  -0.964  0.00  0.00     0.031 A 
ATOM      4  C   UNL d   1      -1.583  -5.169   0.047  0.00  0.00     0.034 A 
ATOM      5  C   UNL d   1      -2.044  -4.312  -0.948  0.00  0.00     0.026 A 
ATOM      6  C   UNL d   1      -0.715  -4.699   1.027  0.00  0.00     0.026 A 
ATOM      7 CL   UNL d   1      -2.088  -6.812   0.065  0.00  0.00    -0.084 Cl
ENDROOT
BRANCH   1   8
ATOM      8  N   UNL d   1      -0.334  -1.115   0.001  0.00  0.00    -0.333 N 
ATOM      9  C   UNL d   1       0.556  -0.513   0.874  0.00  0.00     0.096 A 
ATOM     10  C   UNL d   1       0.711   0.812   0.533  0.00  0.00     0.019 A 
ATOM     11  C   UNL d   1      -0.108   1.052  -0.585  0.00  0.00     0.019 A 
ATOM     12  C   UNL d   1      -0.735  -0.136  -0.892  0.00  0.00     0.096 A 
ENDBRANCH   1   8
TORSDOF 1
