REMARK  5 active torsions:
REMARK  status: ('A' for Active; 'I' for Inactive)
REMARK    1  A    between atoms: N_6  and  C_12 
REMARK    2  A    between atoms: C_17  and  N_10 
REMARK    3  A    between atoms: C_12  and  C_13 
REMARK    4  A    between atoms: C_13  and  C_17 
REMARK    5  A    between atoms: O_25  and  C_13 
ROOT
ATOM      1  C   UNL d   1      -3.224   0.543  -0.325  0.00  0.00     0.148 A 
ATOM      2  N   UNL d   1      -2.597  -0.304   0.468  0.00  0.00    -0.336 N 
ATOM      3  HN  UNL d   1      -3.062  -0.867   1.181  1.00  0.00     0.168 HD
ATOM      4  S   UNL d   1      -2.160   1.368  -1.413  0.00  0.00    -0.052 SA
ATOM      5  N   UNL d   1      -4.574   0.719  -0.258  0.00  0.00    -0.358 N 
ATOM      6  C   UNL d   1      -0.804   0.506  -0.790  0.00  0.00     0.036 A 
ATOM      7  C   UNL d   1      -1.246  -0.343   0.221  0.00  0.00     0.051 A 
ATOM      8  N   UNL d   1      -7.364  -0.108  -0.847  0.00  0.00     0.094 N 
ATOM      9  C   UNL d   1       0.551   0.565  -1.161  0.00  0.00     0.045 A 
ATOM     10  C   UNL d   1      -5.339  -0.079   0.704  0.00  0.00     0.155 C 
ATOM     11  C   UNL d   1      -5.379   1.567  -1.136  0.00  0.00     0.155 C 
ATOM     12  C   UNL d   1      -0.316  -1.160   0.894  0.00  0.00     0.032 A 
ATOM     13  C   UNL d   1       1.453  -0.262  -0.481  0.00  0.00     0.035 A 
ATOM     14  C   UNL d   1      -6.396  -0.917  -0.052  0.00  0.00     0.292 C 
ATOM     15  C   UNL d   1      -6.581   0.779  -1.744  0.00  0.00     0.292 C 
ATOM     16  C   UNL d   1       1.034  -1.113   0.535  0.00  0.00     0.026 A 
ATOM     17 CL   UNL d   1       3.119  -0.230  -0.915  0.00  0.00    -0.084 Cl
ENDROOT
BRANCH   8  18
ATOM     18  C   UNL d   1      -8.291   0.582   0.075  0.00  0.00     0.305 C 
BRANCH  18  19
ATOM     19  C   UNL d   1      -9.420   1.451  -0.514  0.00  0.00     0.164 C 
BRANCH  19  20
ATOM     20  C   UNL d   1     -10.431   0.759  -1.450  0.00  0.00     0.159 C 
BRANCH  20  21
ATOM     21  N   UNL d   1     -11.352  -0.266  -0.950  0.00  0.00    -0.350 N 
ATOM     22  C   UNL d   1     -11.772  -0.484   0.357  0.00  0.00     0.219 C 
ATOM     23  O   UNL d   1     -11.280  -0.012   1.371  0.00  0.00    -0.273 OA
ATOM     24  C   UNL d   1     -12.947  -1.428   0.323  0.00  0.00     0.104 C 
ATOM     25  C   UNL d   1     -13.472  -1.225  -1.088  0.00  0.00     0.029 C 
ATOM     26  C   UNL d   1     -12.214  -0.957  -1.885  0.00  0.00     0.126 C 
ENDBRANCH  20  21
ENDBRANCH  19  20
BRANCH  19  27
ATOM     27  O   UNL d   1     -10.097   2.145   0.545  0.00  0.00    -0.392 OA
ATOM     28  H   UNL d   1     -10.517   1.452   1.104  0.00  0.00     0.210 HD
ENDBRANCH  19  27
ENDBRANCH  18  19
ENDBRANCH   8  18
TORSDOF 5
