REMARK  5 active torsions:
REMARK  status: ('A' for Active; 'I' for Inactive)
REMARK    1  A    between atoms: N_18  and  C_2 
REMARK    2  A    between atoms: N_8  and  C_19 
REMARK    3  A    between atoms: C_21  and  N_18 
REMARK    4  A    between atoms: C_19  and  C_20 
REMARK    5  A    between atoms: C_20  and  C_21 
ROOT
ATOM      1  C   UNL d   1       0.060  -0.549  -0.077  0.00  0.00     0.075 A 
ATOM      2  C   UNL d   1      -0.999  -1.469  -0.076  0.00  0.00     0.121 A 
ATOM      3  N   UNL d   1      -2.255  -0.974  -0.109  0.00  0.00    -0.338 N 
ATOM      4  HN  UNL d   1      -3.061  -1.600  -0.106  1.00  0.00     0.168 HD
ATOM      5  S   UNL d   1       1.761  -0.829  -0.042  0.00  0.00    -0.096 SA
ATOM      6  C   UNL d   1      -0.217   0.813  -0.128  0.00  0.00     0.054 A 
ATOM      7  C   UNL d   1       2.114   0.841  -0.114  0.00  0.00     0.053 A 
ATOM      8  C   UNL d   1       0.970   1.606  -0.153  0.00  0.00     0.038 A 
ATOM      9  N   UNL d   1      -1.480   1.303  -0.161  0.00  0.00    -0.351 N 
ATOM     10  HN  UNL d   1      -1.690   2.301  -0.193  1.00  0.00     0.166 HD
ATOM     11  C   UNL d   1      -2.424   0.358  -0.147  0.00  0.00     0.182 A 
ENDROOT
BRANCH   2  12
ATOM     12  N   UNL d   1      -0.778  -2.834  -0.068  0.00  0.00    -0.375 N 
ATOM     13  H   UNL d   1       0.155  -3.135   0.182  0.00  0.00     0.161 HD
BRANCH  12  14
ATOM     14  C   UNL d   1      -1.890  -3.755   0.041  0.00  0.00     0.123 C 
BRANCH  14  15
ATOM     15  C   UNL d   1      -1.351  -5.184   0.101  0.00  0.00     0.040 C 
BRANCH  15  16
ATOM     16  C   UNL d   1      -2.481  -6.207   0.131  0.00  0.00     0.130 C 
BRANCH  16  17
ATOM     17  N   UNL d   1      -1.976  -7.565   0.209  0.00  0.00    -0.352 N 
ATOM     18  C   UNL d   1      -1.719  -8.259   1.358  0.00  0.00     0.182 A 
ATOM     19  N   UNL d   1      -1.278  -9.467   1.098  0.00  0.00    -0.361 N 
ATOM     20  C   UNL d   1      -1.254  -9.559  -0.269  0.00  0.00     0.106 A 
ATOM     21  HN  UNL d   1      -1.009 -10.185   1.770  1.00  0.00     0.166 HD
ATOM     22  C   UNL d   1      -1.687  -8.384  -0.844  0.00  0.00     0.108 A 
ENDBRANCH  16  17
ENDBRANCH  15  16
ENDBRANCH  14  15
ENDBRANCH  12  14
ENDBRANCH   2  12
TORSDOF 5
