REMARK  4 active torsions:
REMARK  status: ('A' for Active; 'I' for Inactive)
REMARK    1  A    between atoms: C_5  and  N_1 
REMARK    2  A    between atoms: C_8  and  C_4 
REMARK       I    between atoms: N_11  and  C_8 
REMARK    3  A    between atoms: C_9  and  N_10 
REMARK    4  A    between atoms: N_10  and  N_11 
ROOT
ATOM      1  N   UNL d   1       0.861  -0.632  -0.014  0.00  0.00    -0.257 N 
ATOM      2  N   UNL d   1       0.899   0.731   0.036  0.00  0.00    -0.288 N 
ATOM      3  HN  UNL d   1       1.728   1.322   0.080  1.00  0.00     0.188 HD
ATOM      4  C   UNL d   1      -0.383   1.132   0.017  0.00  0.00     0.119 C 
ATOM      5  C   UNL d   1      -0.454  -1.088   0.053  0.00  0.00     0.033 C 
ATOM      6  C   UNL d   1      -1.254   0.029  -0.053  0.00  0.00     0.063 C 
ATOM      7  C   UNL d   1      -0.895  -2.486   0.311  0.00  0.00     0.070 C 
ENDROOT
BRANCH   4   8
ATOM      8  C   UNL d   1      -0.784   2.546   0.117  0.00  0.00     0.284 C 
ATOM      9  N   UNL d   1       0.234   3.394   0.527  0.00  0.00    -0.281 N 
ATOM     10  H   UNL d   1       1.193   3.049   0.534  0.00  0.00     0.184 HD
ATOM     11  O   UNL d   1      -1.926   2.937  -0.108  0.00  0.00    -0.265 OA
BRANCH   9  12
ATOM     12  N   UNL d   1       0.025   4.787   0.420  0.00  0.00    -0.200 NA
ATOM     13  H   UNL d   1      -0.962   4.972   0.182  0.00  0.00     0.153 HD
BRANCH  12  14
ATOM     14  C   UNL d   1       0.376   5.536   1.589  0.00  0.00     0.071 A 
ATOM     15  C   UNL d   1       1.567   5.358   2.324  0.00  0.00     0.058 A 
ATOM     16 CL   UNL d   1       2.748   4.150   1.938  0.00  0.00    -0.082 Cl
ATOM     17  C   UNL d   1       1.890   6.204   3.400  0.00  0.00     0.026 A 
ATOM     18  C   UNL d   1       1.057   7.264   3.747  0.00  0.00     0.003 A 
ATOM     19  C   UNL d   1      -0.104   7.489   3.018  0.00  0.00     0.026 A 
ATOM     20  C   UNL d   1      -0.434   6.641   1.951  0.00  0.00     0.058 A 
ATOM     21 CL   UNL d   1      -1.891   6.994   1.080  0.00  0.00    -0.082 Cl
ENDBRANCH  12  14
ENDBRANCH   9  12
ENDBRANCH   4   8
BRANCH   1  22
ATOM     22  C   UNL d   1       2.072  -1.387  -0.059  0.00  0.00     0.100 A 
ATOM     23  C   UNL d   1       3.186  -1.007   0.719  0.00  0.00     0.064 A 
ATOM     24 CL   UNL d   1       3.231   0.351   1.795  0.00  0.00    -0.082 Cl
ATOM     25  C   UNL d   1       4.346  -1.801   0.733  0.00  0.00     0.026 A 
ATOM     26  C   UNL d   1       4.415  -2.978  -0.002  0.00  0.00     0.003 A 
ATOM     27  C   UNL d   1       3.342  -3.338  -0.808  0.00  0.00     0.026 A 
ATOM     28  C   UNL d   1       2.192  -2.534  -0.868  0.00  0.00     0.064 A 
ATOM     29 CL   UNL d   1       1.076  -2.960  -2.125  0.00  0.00    -0.082 Cl
ENDBRANCH   1  22
TORSDOF 4
