REMARK  3 active torsions:
REMARK  status: ('A' for Active; 'I' for Inactive)
REMARK    1  A    between atoms: C_3  and  C_1 
REMARK    2  A    between atoms: C_2  and  N_6 
REMARK       I    between atoms: N_6  and  C_3 
REMARK    3  A    between atoms: C_16  and  C_9 
ROOT
ATOM      1  C   UNL d   1       0.984   0.068  -0.199  0.00  0.00     0.113 C 
ATOM      2  C   UNL d   1       0.150   0.715   0.641  0.00  0.00     0.039 C 
ATOM      3  C   UNL d   1       0.520  -0.791  -1.229  0.00  0.00     0.105 C 
ATOM      4  N   UNL d   1       0.212  -1.494  -2.099  0.00  0.00    -0.191 NA
ENDROOT
BRANCH   1   5
ATOM      5  C   UNL d   1       2.464   0.228   0.058  0.00  0.00     0.267 C 
ATOM      6  N   UNL d   1       3.291  -0.500  -0.778  0.00  0.00    -0.307 N 
ATOM      7  H   UNL d   1       2.929  -0.979  -1.590  0.00  0.00     0.170 HD
ATOM      8  O   UNL d   1       2.833   0.974   0.962  0.00  0.00    -0.266 OA
BRANCH   6   9
ATOM      9  C   UNL d   1       4.648  -0.674  -0.567  0.00  0.00     0.124 A 
ATOM     10  N   UNL d   1       5.309  -0.319   0.535  0.00  0.00    -0.284 N 
ATOM     11  N   UNL d   1       6.569  -0.726   0.330  0.00  0.00    -0.306 N 
ATOM     12  HN  UNL d   1       4.936   0.159   1.355  1.00  0.00     0.188 HD
ATOM     13  C   UNL d   1       7.557  -0.567   1.369  0.00  0.00     0.177 C 
ATOM     14  C   UNL d   1       6.754  -1.319  -0.882  0.00  0.00     0.113 A 
ATOM     15  C   UNL d   1       5.517  -1.315  -1.486  0.00  0.00     0.068 A 
ENDBRANCH   6   9
ENDBRANCH   1   5
BRANCH   2  16
ATOM     16  C   UNL d   1      -1.310   0.582   0.701  0.00  0.00    -0.035 A 
ATOM     17  C   UNL d   1      -1.859  -0.215   1.713  0.00  0.00     0.013 A 
ATOM     18  C   UNL d   1      -3.244  -0.317   1.864  0.00  0.00     0.023 A 
ATOM     19  C   UNL d   1      -4.095   0.382   1.004  0.00  0.00     0.044 A 
ATOM     20  C   UNL d   1      -5.517   0.308   1.185  0.00  0.00     0.099 C 
ATOM     21  C   UNL d   1      -3.549   1.168  -0.019  0.00  0.00     0.023 A 
ATOM     22  N   UNL d   1      -6.664   0.251   1.343  0.00  0.00    -0.191 NA
ATOM     23  C   UNL d   1      -2.159   1.268  -0.172  0.00  0.00     0.013 A 
ENDBRANCH   2  16
TORSDOF 3
