REMARK  5 active torsions:
REMARK  status: ('A' for Active; 'I' for Inactive)
REMARK    1  A    between atoms: C_6  and  N_1 
REMARK    2  A    between atoms: C_4  and  C_3 
REMARK    3  A    between atoms: O_8  and  C_5 
REMARK    4  A    between atoms: O_13  and  C_7 
REMARK    5  A    between atoms: C_16  and  O_13 
ROOT
ATOM      1  N   UNL d   1       1.072   0.035   0.239  0.00  0.00    -0.365 N 
ATOM      2  HN  UNL d   1       0.538  -0.660  -0.284  1.00  0.00     0.165 HD
ATOM      3  C   UNL d   1       0.477   0.899   1.002  0.00  0.00     0.102 C 
ENDROOT
BRANCH   1   4
ATOM      4  C   UNL d   1       2.477   0.086   0.154  0.00  0.00     0.032 A 
ATOM      5  C   UNL d   1       3.195  -1.109   0.113  0.00  0.00     0.032 A 
ATOM      6  C   UNL d   1       4.593  -1.104   0.018  0.00  0.00     0.039 A 
ATOM      7  C   UNL d   1       5.296   0.101  -0.036  0.00  0.00     0.068 A 
ATOM      8  C   UNL d   1       4.584   1.299  -0.021  0.00  0.00     0.039 A 
ATOM      9  C   UNL d   1       3.187   1.289   0.055  0.00  0.00     0.032 A 
BRANCH   7  10
ATOM     10  O   UNL d   1       6.658  -0.014  -0.110  0.00  0.00    -0.352 OA
BRANCH  10  11
ATOM     11  C   UNL d   1       7.399   1.208  -0.111  0.00  0.00     0.171 C 
ATOM     12  C   UNL d   1       8.880   0.884  -0.176  0.00  0.00     0.034 C 
ENDBRANCH  10  11
ENDBRANCH   7  10
ENDBRANCH   1   4
BRANCH   3  13
ATOM     13  C   UNL d   1      -0.991   0.942   1.139  0.00  0.00     0.012 A 
ATOM     14  C   UNL d   1      -1.820  -0.043   0.593  0.00  0.00     0.077 A 
ATOM     15  C   UNL d   1      -3.200   0.030   0.767  0.00  0.00     0.037 A 
ATOM     16  C   UNL d   1      -3.758   1.097   1.475  0.00  0.00     0.003 A 
ATOM     17  C   UNL d   1      -2.936   2.089   2.010  0.00  0.00     0.001 A 
ATOM     18  C   UNL d   1      -1.552   2.012   1.847  0.00  0.00     0.015 A 
BRANCH  14  19
ATOM     19  O   UNL d   1      -1.339  -1.108  -0.117  0.00  0.00    -0.360 OA
ATOM     20  H   UNL d   1      -0.366  -0.984  -0.199  0.00  0.00     0.217 HD
ENDBRANCH  14  19
ENDBRANCH   3  13
TORSDOF 5
