REMARK  3 active torsions:
REMARK  status: ('A' for Active; 'I' for Inactive)
REMARK    1  A    between atoms: C_11  and  C_3 
REMARK    2  A    between atoms: C_12  and  C_6 
REMARK    3  A    between atoms: C_8  and  C_13 
REMARK       I    between atoms: N_21  and  C_11 
ROOT
ATOM      1  N   UNL d   1       0.340   0.600  -0.029  0.00  0.00    -0.238 N 
ATOM      2  C   UNL d   1       0.199  -0.799  -0.024  0.00  0.00     0.144 A 
ATOM      3  C   UNL d   1       1.481  -1.320  -0.032  0.00  0.00     0.094 A 
ATOM      4  N   UNL d   1       1.649   0.965  -0.036  0.00  0.00    -0.302 N 
ATOM      5  HN  UNL d   1       2.034   1.909  -0.040  1.00  0.00     0.186 HD
ATOM      6  C   UNL d   1      -0.794   1.430  -0.027  0.00  0.00     0.070 A 
ATOM      7  C   UNL d   1       2.318  -0.188  -0.037  0.00  0.00     0.128 A 
ATOM      8  N   UNL d   1      -1.034  -1.405  -0.013  0.00  0.00    -0.350 N 
ATOM      9  HN  UNL d   1      -1.138  -2.420  -0.008  1.00  0.00     0.166 HD
ATOM     10  C   UNL d   1      -2.020   0.877  -0.019  0.00  0.00     0.049 A 
ATOM     11  C   UNL d   1      -2.058  -0.607  -0.011  0.00  0.00     0.092 A 
ENDROOT
BRANCH   6  12
ATOM     12  C   UNL d   1      -0.685   2.896  -0.033  0.00  0.00    -0.006 A 
ATOM     13  C   UNL d   1      -0.634   3.598  -1.246  0.00  0.00     0.030 A 
ATOM     14  C   UNL d   1      -0.574   5.001  -1.261  0.00  0.00     0.048 A 
ATOM     15  C   UNL d   1      -0.561   5.694  -0.041  0.00  0.00     0.016 A 
ATOM     16  C   UNL d   1      -0.607   5.001   1.169  0.00  0.00     0.002 A 
ATOM     17  C   UNL d   1      -0.671   3.607   1.173  0.00  0.00     0.014 A 
BRANCH  14  18
ATOM     18  C   UNL d   1      -0.534   5.768  -2.560  0.00  0.00     0.417 C 
ATOM     19  F   UNL d   1      -0.561   4.971  -3.665  0.00  0.00    -0.166 F 
ATOM     20  F   UNL d   1      -1.593   6.615  -2.691  0.00  0.00    -0.166 F 
ATOM     21  F   UNL d   1       0.580   6.541  -2.682  0.00  0.00    -0.166 F 
ENDBRANCH  14  18
ENDBRANCH   6  12
BRANCH   3  22
ATOM     22  C   UNL d   1       1.900  -2.704  -0.036  0.00  0.00     0.254 C 
ATOM     23  O   UNL d   1       3.077  -3.046  -0.041  0.00  0.00    -0.268 OA
ATOM     24  N   UNL d   1       0.898  -3.629  -0.035  0.00  0.00    -0.366 N 
ATOM     25  H   UNL d   1      -0.074  -3.338  -0.034  0.00  0.00     0.159 HD
ATOM     26  H   UNL d   1       1.137  -4.609  -0.043  0.00  0.00     0.159 HD
ENDBRANCH   3  22
TORSDOF 3
