REMARK  5 active torsions:
REMARK  status: ('A' for Active; 'I' for Inactive)
REMARK    1  A    between atoms: C_5  and  C_3 
REMARK    2  A    between atoms: C_11  and  C_4 
REMARK    3  A    between atoms: C_8  and  C_12 
REMARK    4  A    between atoms: C_9  and  C_13 
REMARK    5  A    between atoms: O_29  and  C_26 
ROOT
ATOM      1  N   UNL d   1       1.294   0.191  -0.076  0.00  0.00    -0.318 N 
ATOM      2  HN  UNL d   1       2.293   0.360  -0.195  1.00  0.00     0.169 HD
ATOM      3  C   UNL d   1       0.669  -0.958   0.040  0.00  0.00     0.183 A 
ATOM      4  C   UNL d   1       0.276   1.111   0.002  0.00  0.00     0.138 A 
ATOM      5  N   UNL d   1      -0.943   0.562   0.138  0.00  0.00    -0.242 N 
ATOM      6  HN  UNL d   1      -1.844   1.035   0.206  1.00  0.00     0.196 HD
ATOM      7  O   UNL d   1      -0.684  -0.809   0.162  0.00  0.00    -0.217 OA
ENDROOT
BRANCH   4   8
ATOM      8  C   UNL d   1       0.530   2.547  -0.073  0.00  0.00     0.011 A 
ATOM      9  C   UNL d   1       1.841   3.019  -0.239  0.00  0.00     0.031 A 
ATOM     10  C   UNL d   1       2.116   4.393  -0.337  0.00  0.00     0.049 A 
ATOM     11  C   UNL d   1       1.051   5.304  -0.259  0.00  0.00     0.032 A 
ATOM     12  C   UNL d   1      -0.270   4.858  -0.091  0.00  0.00     0.049 A 
ATOM     13  C   UNL d   1      -0.517   3.477   0.005  0.00  0.00     0.031 A 
BRANCH  10  14
ATOM     14  C   UNL d   1       3.539   4.860  -0.539  0.00  0.00     0.417 C 
ATOM     15  F   UNL d   1       3.654   6.213  -0.648  0.00  0.00    -0.166 F 
ATOM     16  F   UNL d   1       4.358   4.497   0.485  0.00  0.00    -0.166 F 
ATOM     17  F   UNL d   1       4.097   4.347  -1.669  0.00  0.00    -0.166 F 
ENDBRANCH  10  14
BRANCH  12  18
ATOM     18  C   UNL d   1      -1.424   5.831  -0.027  0.00  0.00     0.417 C 
ATOM     19  F   UNL d   1      -1.046   7.131  -0.174  0.00  0.00    -0.166 F 
ATOM     20  F   UNL d   1      -2.350   5.599  -0.997  0.00  0.00    -0.166 F 
ATOM     21  F   UNL d   1      -2.094   5.767   1.156  0.00  0.00    -0.166 F 
ENDBRANCH  12  18
ENDBRANCH   4   8
BRANCH   3  22
ATOM     22  C   UNL d   1       1.184  -2.323   0.049  0.00  0.00     0.037 A 
ATOM     23  C   UNL d   1       2.442  -2.652   0.583  0.00  0.00     0.025 A 
ATOM     24  C   UNL d   1       2.904  -3.973   0.544  0.00  0.00     0.023 A 
ATOM     25 BR   UNL d   1       3.588  -1.391   1.432  0.00  0.00    -0.050 Br
ATOM     26  C   UNL d   1       2.119  -4.974  -0.024  0.00  0.00     0.038 A 
ATOM     27  C   UNL d   1       0.866  -4.675  -0.555  0.00  0.00     0.069 A 
ATOM     28  C   UNL d   1       0.404  -3.357  -0.517  0.00  0.00     0.054 A 
BRANCH  27  29
ATOM     29  O   UNL d   1       0.204  -5.750  -1.079  0.00  0.00    -0.356 OA
ATOM     30  C   UNL d   1      -1.083  -5.517  -1.637  0.00  0.00     0.210 C 
ENDBRANCH  27  29
ENDBRANCH   3  22
TORSDOF 5
