REMARK  7 active torsions:
REMARK  status: ('A' for Active; 'I' for Inactive)
REMARK    1  A    between atoms: N_2  and  S_1 
REMARK    2  A    between atoms: C_4  and  S_1 
REMARK    3  A    between atoms: C_3  and  N_9 
REMARK    4  A    between atoms: N_11  and  C_3 
REMARK    5  A    between atoms: N_7  and  N_11 
REMARK    6  A    between atoms: N_9  and  C_18 
REMARK    7  A    between atoms: C_17  and  C_12 
ROOT
ATOM      1  N   UNL d   1      -0.510   2.608   5.134  0.00  0.00    -0.332 N 
ATOM      2  H   UNL d   1      -0.001   3.462   5.337  0.00  0.00     0.168 HD
ENDROOT
BRANCH   1   3
ATOM      3  C   UNL d   1      -1.305   2.221   6.194  0.00  0.00     0.191 C 
ATOM      4  S   UNL d   1      -2.695   1.300   6.152  0.00  0.00    -0.039 SA
BRANCH   3   5
ATOM      5  N   UNL d   1      -0.857   2.727   7.410  0.00  0.00    -0.276 N 
ATOM      6  H   UNL d   1      -1.377   2.464   8.243  0.00  0.00     0.189 HD
BRANCH   5   7
ATOM      7  N   UNL d   1       0.472   3.011   7.514  0.00  0.00    -0.308 N 
ATOM      8  C   UNL d   1       0.954   3.189   8.700  0.00  0.00     0.136 C 
ATOM      9  HN  UNL d   1       1.064   3.079   6.686  1.00  0.00     0.186 HD
BRANCH   8  10
ATOM     10  C   UNL d   1       2.420   3.266   8.885  0.00  0.00     0.049 A 
ATOM     11  N   UNL d   1       2.853   3.638  10.113  0.00  0.00    -0.365 N 
ATOM     12  C   UNL d   1       4.196   3.649  10.285  0.00  0.00     0.088 A 
ATOM     13  HN  UNL d   1       2.208   3.894  10.860  1.00  0.00     0.165 HD
ATOM     14  C   UNL d   1       5.112   3.292   9.303  0.00  0.00     0.017 A 
ATOM     15  C   UNL d   1       4.632   2.900   8.060  0.00  0.00     0.004 A 
ATOM     16  C   UNL d   1       3.261   2.888   7.842  0.00  0.00     0.031 A 
ENDBRANCH   8  10
ENDBRANCH   5   7
ENDBRANCH   3   5
ENDBRANCH   1   3
BRANCH   1  17
ATOM     17  C   UNL d   1      -0.286   2.009   3.885  0.00  0.00     0.034 A 
ATOM     18  C   UNL d   1       0.133   2.829   2.830  0.00  0.00     0.031 A 
ATOM     19  C   UNL d   1       0.457   2.278   1.586  0.00  0.00     0.027 A 
ATOM     20  C   UNL d   1       0.401   0.893   1.411  0.00  0.00     0.074 A 
ATOM     21  C   UNL d   1       0.019   0.062   2.467  0.00  0.00     0.027 A 
ATOM     22  C   UNL d   1      -0.338   0.625   3.698  0.00  0.00     0.031 A 
BRANCH  20  23
ATOM     23  S   UNL d   1       0.981   0.191  -0.116  0.00  0.00     0.243 S 
ATOM     24  O   UNL d   1       2.249   0.831  -0.408  0.00  0.00    -0.206 OA
ATOM     25  O   UNL d   1       0.879  -1.249  -0.029  0.00  0.00    -0.206 OA
BRANCH  23  26
ATOM     26  N   UNL d   1      -0.167   0.718  -1.287  0.00  0.00    -0.206 NA
ATOM     27  C   UNL d   1      -1.518   0.100  -1.132  0.00  0.00     0.107 C 
ATOM     28  C   UNL d   1      -2.500   0.717  -2.127  0.00  0.00     0.015 C 
ATOM     29  C   UNL d   1      -1.999   0.588  -3.561  0.00  0.00     0.002 C 
ATOM     30  C   UNL d   1      -0.602   1.181  -3.685  0.00  0.00     0.015 C 
ATOM     31  C   UNL d   1       0.354   0.547  -2.679  0.00  0.00     0.107 C 
ENDBRANCH  23  26
ENDBRANCH  20  23
ENDBRANCH   1  17
TORSDOF 7
