REMARK  6 active torsions:
REMARK  status: ('A' for Active; 'I' for Inactive)
REMARK    1  A    between atoms: C_2  and  N_1 
REMARK    2  A    between atoms: C_3  and  C_14 
REMARK    3  A    between atoms: N_6  and  N_16 
REMARK    4  A    between atoms: N_16  and  C_9 
REMARK    5  A    between atoms: O_19  and  C_12 
REMARK    6  A    between atoms: O_18  and  C_13 
ROOT
ATOM      1  N   UNL d   1      -1.566   1.217  -5.667  0.00  0.00    -0.309 N 
ATOM      2  HN  UNL d   1      -0.703   0.680  -5.755  1.00  0.00     0.186 HD
ATOM      3  C   UNL d   1      -2.275   1.577  -6.691  0.00  0.00     0.124 C 
ENDROOT
BRANCH   1   4
ATOM      4  N   UNL d   1      -2.064   1.613  -4.465  0.00  0.00    -0.286 N 
ATOM      5  H   UNL d   1      -3.057   1.500  -4.266  0.00  0.00     0.188 HD
BRANCH   4   6
ATOM      6  C   UNL d   1      -1.329   1.298  -3.308  0.00  0.00     0.119 A 
ATOM      7  C   UNL d   1       0.065   1.192  -3.348  0.00  0.00     0.052 A 
ATOM      8  C   UNL d   1       0.776   0.915  -2.181  0.00  0.00     0.041 A 
ATOM      9  C   UNL d   1       0.065   0.758  -0.996  0.00  0.00     0.118 A 
ATOM     10  C   UNL d   1      -1.318   0.883  -1.022  0.00  0.00     0.125 A 
ATOM     11  N   UNL d   1      -2.020   1.153  -2.153  0.00  0.00    -0.349 N 
ATOM     12  HN  UNL d   1      -3.035   1.245  -2.132  1.00  0.00     0.167 HD
BRANCH   9  13
ATOM     13  N   UNL d   1       0.748   0.471   0.257  0.00  0.00    -0.114 N 
ATOM     14  O   UNL d   1       0.053   0.335   1.274  0.00  0.00    -0.532 OA
ATOM     15  O   UNL d   1       1.983   0.382   0.231  0.00  0.00    -0.532 OA
ENDBRANCH   9  13
ENDBRANCH   4   6
ENDBRANCH   1   4
BRANCH   3  16
ATOM     16  C   UNL d   1      -1.866   1.236  -8.063  0.00  0.00     0.047 A 
ATOM     17  C   UNL d   1      -1.581  -0.105  -8.394  0.00  0.00     0.082 A 
ATOM     18  C   UNL d   1      -1.223  -0.424  -9.709  0.00  0.00     0.038 A 
ATOM     19  C   UNL d   1      -1.157   0.572 -10.684  0.00  0.00     0.005 A 
ATOM     20  C   UNL d   1      -1.458   1.892 -10.356  0.00  0.00     0.038 A 
ATOM     21  C   UNL d   1      -1.805   2.237  -9.046  0.00  0.00     0.082 A 
BRANCH  17  22
ATOM     22  O   UNL d   1      -1.779  -1.050  -7.421  0.00  0.00    -0.355 OA
ATOM     23  C   UNL d   1      -1.106  -2.293  -7.573  0.00  0.00     0.210 C 
ENDBRANCH  17  22
BRANCH  21  24
ATOM     24  O   UNL d   1      -2.146   3.553  -8.877  0.00  0.00    -0.355 OA
ATOM     25  C   UNL d   1      -1.479   4.228  -7.812  0.00  0.00     0.210 C 
ENDBRANCH  21  24
ENDBRANCH   3  16
TORSDOF 6
