REMARK  8 active torsions:
REMARK  status: ('A' for Active; 'I' for Inactive)
REMARK    1  A    between atoms: C_10  and  C_1 
REMARK    2  A    between atoms: C_3  and  N_8 
REMARK    3  A    between atoms: N_7  and  C_3 
REMARK    4  A    between atoms: C_11  and  N_7 
REMARK    5  A    between atoms: N_8  and  C_10 
REMARK    6  A    between atoms: C_19  and  C_12 
REMARK    7  A    between atoms: C_20  and  C_19 
REMARK    8  A    between atoms: C_21  and  C_20 
ROOT
ATOM      1  C   UNL d   1      -0.477  -5.261   0.230  0.00  0.00     0.172 C 
ATOM      2  S   UNL d   1      -0.475  -3.596   0.064  0.00  0.00    -0.041 SA
ENDROOT
BRANCH   1   3
ATOM      3  N   UNL d   1      -1.694  -5.851   0.410  0.00  0.00    -0.363 N 
ATOM      4  H   UNL d   1      -2.458  -5.186   0.429  0.00  0.00     0.162 HD
BRANCH   3   5
ATOM      5  C   UNL d   1      -1.932  -7.099   1.110  0.00  0.00     0.162 C 
BRANCH   5   6
ATOM      6  C   UNL d   1      -2.321  -8.176   0.148  0.00  0.00    -0.022 A 
ATOM      7  C   UNL d   1      -3.283  -8.038  -0.836  0.00  0.00     0.060 A 
ATOM      8  S   UNL d   1      -3.559  -9.477  -1.703  0.00  0.00    -0.101 SA
ATOM      9  C   UNL d   1      -2.402 -10.344  -0.777  0.00  0.00     0.015 A 
ATOM     10  C   UNL d   1      -1.787  -9.527   0.175  0.00  0.00    -0.011 A 
ATOM     11  C   UNL d   1      -2.073 -11.710  -0.903  0.00  0.00     0.019 A 
ATOM     12  C   UNL d   1      -0.797 -10.115   1.006  0.00  0.00     0.013 A 
ATOM     13  C   UNL d   1      -0.463 -11.466   0.879  0.00  0.00     0.001 A 
ATOM     14  C   UNL d   1      -1.100 -12.256  -0.064  0.00  0.00     0.001 A 
ENDBRANCH   5   6
ENDBRANCH   3   5
ENDBRANCH   1   3
BRANCH   1  15
ATOM     15  N   UNL d   1       0.591  -6.128   0.150  0.00  0.00    -0.333 N 
ATOM     16  H   UNL d   1       0.388  -6.940  -0.423  0.00  0.00     0.168 HD
BRANCH  15  17
ATOM     17  C   UNL d   1       1.952  -5.762   0.244  0.00  0.00     0.034 A 
ATOM     18  C   UNL d   1       2.401  -4.892   1.240  0.00  0.00     0.030 A 
ATOM     19  C   UNL d   1       3.728  -4.465   1.259  0.00  0.00     0.009 A 
ATOM     20  C   UNL d   1       4.628  -4.905   0.283  0.00  0.00    -0.058 A 
ATOM     21  C   UNL d   1       4.198  -5.858  -0.651  0.00  0.00     0.009 A 
ATOM     22  C   UNL d   1       2.870  -6.300  -0.660  0.00  0.00     0.030 A 
BRANCH  20  23
ATOM     23  C   UNL d   1       6.012  -4.307   0.212  0.00  0.00     0.038 C 
BRANCH  23  24
ATOM     24  C   UNL d   1       6.275  -3.518  -1.079  0.00  0.00     0.004 C 
BRANCH  24  25
ATOM     25  C   UNL d   1       5.308  -2.345  -1.288  0.00  0.00    -0.004 C 
ATOM     26  C   UNL d   1       5.619  -1.588  -2.570  0.00  0.00     0.005 C 
ENDBRANCH  24  25
ENDBRANCH  23  24
ENDBRANCH  20  23
ENDBRANCH  15  17
ENDBRANCH   1  15
TORSDOF 8
