REMARK  3 active torsions:
REMARK  status: ('A' for Active; 'I' for Inactive)
REMARK    1  A    between atoms: C_5  and  N_1 
REMARK    2  A    between atoms: C_4  and  O_7 
REMARK    3  A    between atoms: O_7  and  C_17 
ROOT
ATOM      1  C   UNL d   1       1.357   2.153  -1.123  0.00  0.00     0.045 A 
ATOM      2  C   UNL d   1       1.996   1.827  -2.336  0.00  0.00     0.033 A 
ATOM      3  C   UNL d   1       1.335   3.514  -0.781  0.00  0.00     0.033 A 
ATOM      4  C   UNL d   1       2.381   4.156  -2.880  0.00  0.00     0.078 A 
ATOM      5  C   UNL d   1       2.500   2.810  -3.204  0.00  0.00     0.039 A 
ATOM      6  C   UNL d   1       1.827   4.497  -1.648  0.00  0.00     0.039 A 
ENDROOT
BRANCH   1   7
ATOM      7  N   UNL d   1       0.869   1.126  -0.218  0.00  0.00    -0.251 N 
ATOM      8  C   UNL d   1       0.091   1.487   0.889  0.00  0.00     0.240 C 
ATOM      9  O   UNL d   1      -0.660   2.465   0.943  0.00  0.00    -0.272 OA
ATOM     10  C   UNL d   1       0.228   0.598   2.111  0.00  0.00     0.178 C 
ATOM     11  S   UNL d   1      -0.148  -1.121   1.738  0.00  0.00    -0.150 SA
ATOM     12  C   UNL d   1       0.979  -1.268   0.344  0.00  0.00     0.178 C 
ATOM     13  C   UNL d   1       0.720  -0.184  -0.684  0.00  0.00     0.240 C 
ATOM     14  O   UNL d   1       0.422  -0.501  -1.837  0.00  0.00    -0.272 OA
ENDBRANCH   1   7
BRANCH   4  15
ATOM     15  O   UNL d   1       2.763   5.216  -3.646  0.00  0.00    -0.255 OA
BRANCH  15  16
ATOM     16  C   UNL d   1       2.949   5.002  -5.034  0.00  0.00     0.530 C 
ATOM     17  F   UNL d   1       2.030   4.160  -5.554  0.00  0.00    -0.144 F 
ATOM     18  F   UNL d   1       2.829   6.190  -5.668  0.00  0.00    -0.144 F 
ATOM     19  F   UNL d   1       4.187   4.518  -5.272  0.00  0.00    -0.144 F 
ENDBRANCH  15  16
ENDBRANCH   4  15
TORSDOF 3
