REMARK  5 active torsions:
REMARK  status: ('A' for Active; 'I' for Inactive)
REMARK    1  A    between atoms: N_7  and  C_1 
REMARK    2  A    between atoms: N_10  and  C_1 
REMARK    3  A    between atoms: C_2  and  N_8 
REMARK    4  A    between atoms: C_3  and  C_4 
REMARK    5  A    between atoms: C_20  and  N_10 
ROOT
ATOM      1  N   UNL d   1       0.205   0.679   1.001  0.00  0.00    -0.357 N 
ATOM      2  N   UNL d   1      -1.670   1.662   3.105  0.00  0.00    -0.266 NA
ATOM      3  C   UNL d   1      -0.780  -0.186   1.689  0.00  0.00     0.140 C 
ATOM      4  C   UNL d   1      -2.031   0.499   2.266  0.00  0.00     0.117 C 
ATOM      5  C   UNL d   1       0.079   2.985   1.952  0.00  0.00     0.035 C 
ATOM      6  C   UNL d   1       0.857   1.673   1.865  0.00  0.00     0.126 C 
ATOM      7  C   UNL d   1      -1.399   2.873   2.318  0.00  0.00     0.098 C 
ENDROOT
BRANCH   2   8
ATOM      8  C   UNL d   1      -2.518   1.885   4.202  0.00  0.00     0.104 A 
ATOM      9  N   UNL d   1      -3.765   1.349   4.181  0.00  0.00    -0.354 N 
ATOM     10  C   UNL d   1      -4.567   1.509   5.261  0.00  0.00     0.105 A 
ATOM     11  HN  UNL d   1      -4.094   0.834   3.364  1.00  0.00     0.166 HD
ATOM     12  C   UNL d   1      -4.202   2.200   6.405  0.00  0.00     0.065 A 
ATOM     13  C   UNL d   1      -2.927   2.761   6.429  0.00  0.00     0.044 A 
ATOM     14  C   UNL d   1      -2.076   2.601   5.334  0.00  0.00     0.073 A 
ATOM     15 CL   UNL d   1      -0.475   3.241   5.484  0.00  0.00    -0.081 Cl
BRANCH  12  16
ATOM     16  C   UNL d   1      -5.147   2.293   7.561  0.00  0.00     0.418 C 
ATOM     17  F   UNL d   1      -4.679   3.067   8.579  0.00  0.00    -0.166 F 
ATOM     18  F   UNL d   1      -6.350   2.824   7.211  0.00  0.00    -0.166 F 
ATOM     19  F   UNL d   1      -5.418   1.078   8.109  0.00  0.00    -0.166 F 
ENDBRANCH  12  16
ENDBRANCH   2   8
BRANCH   1  20
ATOM     20  C   UNL d   1       0.853   0.119  -0.099  0.00  0.00     0.174 C 
ATOM     21  S   UNL d   1       2.499  -0.178  -0.217  0.00  0.00    -0.041 SA
BRANCH  20  22
ATOM     22  N   UNL d   1       0.050  -0.337  -1.117  0.00  0.00    -0.333 N 
ATOM     23  H   UNL d   1       0.474  -1.041  -1.710  0.00  0.00     0.168 HD
BRANCH  22  24
ATOM     24  C   UNL d   1      -1.175   0.201  -1.559  0.00  0.00     0.034 A 
ATOM     25  C   UNL d   1      -1.561   1.515  -1.286  0.00  0.00     0.029 A 
ATOM     26  C   UNL d   1      -2.783   2.009  -1.738  0.00  0.00     0.002 A 
ATOM     27  C   UNL d   1      -3.627   1.189  -2.481  0.00  0.00     0.000 A 
ATOM     28  C   UNL d   1      -3.236  -0.113  -2.790  0.00  0.00     0.002 A 
ATOM     29  C   UNL d   1      -2.004  -0.600  -2.347  0.00  0.00     0.029 A 
ENDBRANCH  22  24
ENDBRANCH  20  22
ENDBRANCH   1  20
TORSDOF 5
