REMARK  4 active torsions:
REMARK  status: ('A' for Active; 'I' for Inactive)
REMARK    1  A    between atoms: C_6  and  N_1 
REMARK    2  A    between atoms: C_2  and  C_10 
REMARK    3  A    between atoms: C_10  and  S_11 
REMARK    4  A    between atoms: S_11  and  C_14 
ROOT
ATOM      1  C   UNL d   1      -1.227   6.352  -1.006  0.00  0.00     0.119 C 
ENDROOT
BRANCH   1   2
ATOM      2  C   UNL d   1      -1.964   7.660  -1.008  0.00  0.00    -0.030 A 
ATOM      3  C   UNL d   1      -3.143   7.868  -1.701  0.00  0.00     0.059 A 
ATOM      4  S   UNL d   1      -3.721   9.462  -1.571  0.00  0.00    -0.101 SA
ATOM      5  C   UNL d   1      -2.404   9.935  -0.572  0.00  0.00     0.015 A 
ATOM      6  C   UNL d   1      -1.534   8.867  -0.328  0.00  0.00    -0.011 A 
ATOM      7  C   UNL d   1      -2.175  11.220  -0.039  0.00  0.00     0.019 A 
ATOM      8  C   UNL d   1      -0.409   9.116   0.501  0.00  0.00     0.013 A 
ATOM      9  C   UNL d   1      -0.179  10.390   1.035  0.00  0.00     0.001 A 
ATOM     10  C   UNL d   1      -1.053  11.431   0.763  0.00  0.00     0.001 A 
ENDBRANCH   1   2
BRANCH   1  11
ATOM     11  S   UNL d   1      -1.891   5.227   0.269  0.00  0.00    -0.125 SA
BRANCH  11  12
ATOM     12  C   UNL d   1      -0.759   3.846   0.179  0.00  0.00     0.001 A 
ATOM     13  C   UNL d   1      -0.468   3.166   1.370  0.00  0.00     0.021 A 
ATOM     14  C   UNL d   1       0.403   2.069   1.379  0.00  0.00     0.037 A 
ATOM     15  C   UNL d   1       0.985   1.644   0.180  0.00  0.00     0.102 A 
ATOM     16  C   UNL d   1       0.684   2.297  -1.021  0.00  0.00     0.037 A 
ATOM     17  C   UNL d   1      -0.191   3.390  -1.016  0.00  0.00     0.021 A 
BRANCH  15  18
ATOM     18  N   UNL d   1       1.917   0.509   0.181  0.00  0.00    -0.116 N 
ATOM     19  O   UNL d   1       2.427   0.183  -0.901  0.00  0.00    -0.532 OA
ATOM     20  O   UNL d   1       2.142  -0.051   1.263  0.00  0.00    -0.532 OA
ENDBRANCH  15  18
ENDBRANCH  11  12
ENDBRANCH   1  11
TORSDOF 4
