REMARK  3 active torsions:
REMARK  status: ('A' for Active; 'I' for Inactive)
REMARK    1  A    between atoms: N_3  and  S_1 
REMARK    2  A    between atoms: C_7  and  S_1 
REMARK    3  A    between atoms: C_12  and  N_3 
ROOT
ATOM      1  N   UNL d   1       0.467   1.357   0.903  0.00  0.00    -0.281 N 
ATOM      2  H   UNL d   1      -0.454   1.676   0.606  0.00  0.00     0.179 HD
ENDROOT
BRANCH   1   3
ATOM      3  S   UNL d   1       0.990   0.026  -0.009  0.00  0.00     0.263 S 
ATOM      4  O   UNL d   1       2.410  -0.152   0.196  0.00  0.00    -0.200 OA
ATOM      5  O   UNL d   1       0.430   0.195  -1.336  0.00  0.00    -0.200 OA
BRANCH   3   6
ATOM      6  C   UNL d   1       0.131  -1.338   0.740  0.00  0.00     0.079 A 
ATOM      7  C   UNL d   1      -1.268  -1.363   0.697  0.00  0.00     0.026 A 
ATOM      8  C   UNL d   1      -1.958  -2.333   1.424  0.00  0.00     0.008 A 
ATOM      9  C   UNL d   1      -1.258  -3.297   2.161  0.00  0.00    -0.062 A 
ATOM     10  C   UNL d   1       0.144  -3.307   2.129  0.00  0.00     0.008 A 
ATOM     11  C   UNL d   1      -2.013  -4.273   3.017  0.00  0.00     0.048 C 
ATOM     12  C   UNL d   1       0.842  -2.328   1.420  0.00  0.00     0.026 A 
ENDBRANCH   3   6
ENDBRANCH   1   3
BRANCH   1  13
ATOM     13  C   UNL d   1       0.729   1.376   2.304  0.00  0.00     0.043 A 
ATOM     14  C   UNL d   1      -0.202   0.841   3.200  0.00  0.00     0.045 A 
ATOM     15  C   UNL d   1       0.083   0.843   4.581  0.00  0.00     0.016 A 
ATOM     16  C   UNL d   1      -0.594   0.369   5.739  0.00  0.00     0.061 A 
ATOM     17  C   UNL d   1       1.280   1.416   5.015  0.00  0.00     0.044 A 
ATOM     18  C   UNL d   1       0.175   0.677   6.836  0.00  0.00     0.113 A 
ATOM     19 CL   UNL d   1      -2.089  -0.440   5.747  0.00  0.00    -0.082 Cl
ATOM     20  N   UNL d   1       1.303   1.315   6.389  0.00  0.00    -0.363 N 
ATOM     21  H   UNL d   1       2.051   1.656   6.978  0.00  0.00     0.165 HD
ATOM     22  C   UNL d   1       2.217   1.966   4.132  0.00  0.00     0.033 A 
ATOM     23  C   UNL d   1       1.926   1.917   2.763  0.00  0.00     0.032 A 
ENDBRANCH   1  13
TORSDOF 3
