REMARK  7 active torsions:
REMARK  status: ('A' for Active; 'I' for Inactive)
REMARK    1  A    between atoms: C_5  and  C_1 
REMARK       I    between atoms: C_2  and  N_3 
REMARK    2  A    between atoms: C_8  and  C_2 
REMARK    3  A    between atoms: N_3  and  C_4 
REMARK    4  A    between atoms: O_9  and  C_6 
REMARK    5  A    between atoms: C_18  and  O_9 
REMARK    6  A    between atoms: O_28  and  C_19 
REMARK    7  A    between atoms: O_27  and  C_20 
ROOT
ATOM      1  C   UNL d   1       1.029   3.576   0.424  0.00  0.00     0.070 A 
ATOM      2  C   UNL d   1       0.333   1.224   0.356  0.00  0.00     0.050 A 
ATOM      3  C   UNL d   1      -0.329   3.957   0.448  0.00  0.00     0.102 A 
ATOM      4  C   UNL d   1       1.335   2.208   0.405  0.00  0.00     0.048 A 
ATOM      5  C   UNL d   1      -1.004   1.623   0.306  0.00  0.00     0.019 A 
ATOM      6  C   UNL d   1      -1.330   2.976   0.329  0.00  0.00     0.040 A 
ENDROOT
BRANCH   1   7
ATOM      7  N   UNL d   1       2.035   4.581   0.361  0.00  0.00    -0.320 N 
ATOM      8  C   UNL d   1       3.405   4.369   0.281  0.00  0.00     0.256 C 
ATOM      9  O   UNL d   1       3.983   3.294   0.425  0.00  0.00    -0.267 OA
ATOM     10  H   UNL d   1       1.680   5.522   0.242  0.00  0.00     0.169 HD
BRANCH   8  11
ATOM     11  C   UNL d   1       4.250   5.545  -0.066  0.00  0.00     0.032 A 
ATOM     12  C   UNL d   1       3.952   6.845   0.351  0.00  0.00     0.020 A 
ATOM     13  C   UNL d   1       4.784   7.909  -0.024  0.00  0.00     0.038 A 
ATOM     14  C   UNL d   1       5.913   7.678  -0.819  0.00  0.00     0.068 A 
ATOM     15  C   UNL d   1       6.237   6.376  -1.194  0.00  0.00     0.038 A 
ATOM     16  C   UNL d   1       5.410   5.315  -0.824  0.00  0.00     0.020 A 
BRANCH  14  17
ATOM     17  O   UNL d   1       6.783   8.646  -1.235  0.00  0.00    -0.356 OA
ATOM     18  C   UNL d   1       6.185   9.905  -1.526  0.00  0.00     0.210 C 
ENDBRANCH  14  17
ENDBRANCH   8  11
ENDBRANCH   1   7
BRANCH   3  19
ATOM     19  O   UNL d   1      -0.637   5.308   0.558  0.00  0.00    -0.309 OA
BRANCH  19  20
ATOM     20  C   UNL d   1      -1.842   5.645   1.151  0.00  0.00     0.076 A 
ATOM     21  C   UNL d   1      -2.282   5.072   2.350  0.00  0.00     0.040 A 
ATOM     22  C   UNL d   1      -3.559   5.362   2.847  0.00  0.00     0.039 A 
ATOM     23  C   UNL d   1      -4.382   6.268   2.178  0.00  0.00     0.068 A 
ATOM     24  C   UNL d   1      -3.902   6.901   1.026  0.00  0.00     0.039 A 
ATOM     25  C   UNL d   1      -2.637   6.594   0.511  0.00  0.00     0.040 A 
BRANCH  23  26
ATOM     26  O   UNL d   1      -5.653   6.617   2.544  0.00  0.00    -0.356 OA
ATOM     27  C   UNL d   1      -6.230   5.901   3.631  0.00  0.00     0.210 C 
ENDBRANCH  23  26
ENDBRANCH  19  20
ENDBRANCH   3  19
BRANCH   2  28
ATOM     28  C   UNL d   1       0.684  -0.244   0.335  0.00  0.00     0.417 C 
ATOM     29  F   UNL d   1       2.019  -0.498   0.289  0.00  0.00    -0.166 F 
ATOM     30  F   UNL d   1       0.145  -0.886  -0.739  0.00  0.00    -0.166 F 
ATOM     31  F   UNL d   1       0.215  -0.901   1.433  0.00  0.00    -0.166 F 
ENDBRANCH   2  28
TORSDOF 7
