REMARK  4 active torsions:
REMARK  status: ('A' for Active; 'I' for Inactive)
REMARK    1  A    between atoms: C_8  and  C_1 
REMARK    2  A    between atoms: C_9  and  N_2 
REMARK    3  A    between atoms: S_13  and  C_5 
REMARK    4  A    between atoms: C_11  and  C_12 
ROOT
ATOM      1  C   UNL d   1      -0.163  -1.186  -0.379  0.00  0.00     0.141 A 
ATOM      2  N   UNL d   1       1.066  -0.614  -0.003  0.00  0.00    -0.275 N 
ATOM      3  N   UNL d   1      -1.118  -0.300  -0.156  0.00  0.00    -0.282 N 
ATOM      4  HN  UNL d   1      -2.110  -0.441  -0.350  1.00  0.00     0.188 HD
ATOM      5  C   UNL d   1       0.723   0.644   0.471  0.00  0.00     0.165 A 
ATOM      6  N   UNL d   1      -0.572   0.830   0.372  0.00  0.00    -0.278 N 
ATOM      7  HN  UNL d   1      -1.080   1.672   0.643  1.00  0.00     0.189 HD
ENDROOT
BRANCH   2   8
ATOM      8  C   UNL d   1       2.356  -1.212  -0.064  0.00  0.00     0.043 A 
ATOM      9  C   UNL d   1       2.717  -2.026  -1.144  0.00  0.00     0.031 A 
ATOM     10  C   UNL d   1       3.959  -2.674  -1.151  0.00  0.00     0.010 A 
ATOM     11  C   UNL d   1       4.886  -2.497  -0.105  0.00  0.00    -0.051 A 
ATOM     12  C   UNL d   1       4.506  -1.665   0.955  0.00  0.00     0.010 A 
ATOM     13  C   UNL d   1       3.254  -1.050   0.992  0.00  0.00     0.031 A 
BRANCH  11  14
ATOM     14  C   UNL d   1       6.244  -3.221  -0.134  0.00  0.00    -0.024 C 
ATOM     15  C   UNL d   1       7.155  -2.833   1.054  0.00  0.00     0.019 C 
ATOM     16  C   UNL d   1       6.013  -4.743  -0.074  0.00  0.00     0.019 C 
ATOM     17  C   UNL d   1       7.011  -2.873  -1.427  0.00  0.00     0.019 C 
ENDBRANCH  11  14
ENDBRANCH   2   8
BRANCH   1  18
ATOM     18  C   UNL d   1      -0.420  -2.572  -0.820  0.00  0.00     0.032 A 
ATOM     19  C   UNL d   1      -1.352  -2.878  -1.830  0.00  0.00     0.048 A 
ATOM     20 CL   UNL d   1      -2.250  -1.671  -2.686  0.00  0.00    -0.083 Cl
ATOM     21  C   UNL d   1      -1.569  -4.208  -2.225  0.00  0.00     0.025 A 
ATOM     22  C   UNL d   1      -0.846  -5.246  -1.644  0.00  0.00     0.002 A 
ATOM     23  C   UNL d   1       0.070  -4.966  -0.639  0.00  0.00     0.001 A 
ATOM     24  C   UNL d   1       0.252  -3.649  -0.207  0.00  0.00     0.017 A 
ENDBRANCH   1  18
BRANCH   5  25
ATOM     25  S   UNL d   1       1.790   1.917   0.979  0.00  0.00    -0.105 SA
ATOM     26  H   UNL d   1       2.973   1.407   0.615  0.00  0.00     0.110 HD
ENDBRANCH   5  25
TORSDOF 4
