REMARK  6 active torsions:
REMARK  status: ('A' for Active; 'I' for Inactive)
REMARK    1  A    between atoms: S_3  and  C_1 
REMARK    2  A    between atoms: C_7  and  C_2 
REMARK    3  A    between atoms: N_8  and  S_3 
REMARK    4  A    between atoms: O_18  and  C_7 
REMARK    5  A    between atoms: C_13  and  N_8 
REMARK    6  A    between atoms: C_11  and  C_13 
ROOT
ATOM      1  C   UNL d   1       0.722   1.378   0.055  0.00  0.00     0.122 A 
ATOM      2  C   UNL d   1      -0.706   1.378   0.096  0.00  0.00     0.094 A 
ATOM      3  C   UNL d   1       1.124   0.056   0.066  0.00  0.00     0.073 A 
ATOM      4  C   UNL d   1      -1.071   0.038   0.060  0.00  0.00     0.067 A 
ATOM      5  O   UNL d   1       0.034  -0.756   0.059  0.00  0.00    -0.318 OA
ATOM      6  C   UNL d   1       2.429  -0.636   0.062  0.00  0.00     0.078 C 
ATOM      7  C   UNL d   1      -2.360  -0.689   0.062  0.00  0.00     0.078 C 
ENDROOT
BRANCH   1   8
ATOM      8  S   UNL d   1       1.784   2.725  -0.043  0.00  0.00     0.245 S 
ATOM      9  O   UNL d   1       2.750   2.337  -1.048  0.00  0.00    -0.206 OA
ATOM     10  O   UNL d   1       0.955   3.893  -0.225  0.00  0.00    -0.206 OA
BRANCH   8  11
ATOM     11  N   UNL d   1       2.624   2.851   1.400  0.00  0.00    -0.209 NA
ATOM     12  H   UNL d   1       3.561   3.223   1.238  0.00  0.00     0.140 HD
BRANCH  11  13
ATOM     13  C   UNL d   1       1.930   3.553   2.487  0.00  0.00     0.169 C 
BRANCH  13  14
ATOM     14  C   UNL d   1       2.808   3.523   3.691  0.00  0.00     0.066 A 
ATOM     15  O   UNL d   1       4.056   4.069   3.559  0.00  0.00    -0.326 OA
ATOM     16  C   UNL d   1       4.665   3.965   4.768  0.00  0.00     0.142 A 
ATOM     17  C   UNL d   1       3.830   3.361   5.679  0.00  0.00     0.027 A 
ATOM     18  C   UNL d   1       2.632   3.068   4.982  0.00  0.00     0.036 A 
ENDBRANCH  13  14
ENDBRANCH  11  13
ENDBRANCH   8  11
ENDBRANCH   1   8
BRANCH   2  19
ATOM     19  C   UNL d   1      -1.631   2.487   0.195  0.00  0.00     0.297 C 
ATOM     20  O   UNL d   1      -1.498   3.397   1.003  0.00  0.00    -0.259 OA
BRANCH  19  21
ATOM     21  O   UNL d   1      -2.694   2.341  -0.647  0.00  0.00    -0.322 OA
ATOM     22  C   UNL d   1      -3.704   3.344  -0.524  0.00  0.00     0.213 C 
ENDBRANCH  19  21
ENDBRANCH   2  19
TORSDOF 6
