REMARK  2 active torsions:
REMARK  status: ('A' for Active; 'I' for Inactive)
REMARK    1  A    between atoms: C_5  and  N_1 
REMARK    2  A    between atoms: C_7  and  C_2 
ROOT
ATOM      1  N   UNL d   1      -0.642  -1.170   0.190  0.00  0.00    -0.299 N 
ATOM      2  C   UNL d   1       0.762  -1.332  -0.159  0.00  0.00     0.188 C 
ATOM      3  S   UNL d   1       1.489   0.332  -0.246  0.00  0.00    -0.129 SA
ATOM      4  C   UNL d   1      -1.156   0.127   0.077  0.00  0.00     0.235 C 
ATOM      5  C   UNL d   1      -0.107   1.143  -0.304  0.00  0.00     0.179 C 
ATOM      6  O   UNL d   1      -2.332   0.457   0.194  0.00  0.00    -0.272 OA
ENDROOT
BRANCH   1   7
ATOM      7  C   UNL d   1      -1.496  -2.293   0.397  0.00  0.00     0.038 A 
ATOM      8  C   UNL d   1      -1.265  -3.520  -0.244  0.00  0.00     0.031 A 
ATOM      9  C   UNL d   1      -2.115  -4.612  -0.027  0.00  0.00     0.026 A 
ATOM     10  C   UNL d   1      -3.183  -4.497   0.859  0.00  0.00     0.034 A 
ATOM     11  C   UNL d   1      -3.418  -3.296   1.518  0.00  0.00     0.026 A 
ATOM     12 CL   UNL d   1      -4.211  -5.846   1.141  0.00  0.00    -0.084 Cl
ATOM     13  C   UNL d   1      -2.586  -2.199   1.275  0.00  0.00     0.031 A 
ENDBRANCH   1   7
BRANCH   2  14
ATOM     14  C   UNL d   1       1.595  -2.190   0.784  0.00  0.00    -0.025 A 
ATOM     15  C   UNL d   1       2.704  -2.891   0.275  0.00  0.00     0.010 A 
ATOM     16  C   UNL d   1       3.535  -3.630   1.119  0.00  0.00     0.001 A 
ATOM     17  C   UNL d   1       3.273  -3.681   2.487  0.00  0.00     0.000 A 
ATOM     18  C   UNL d   1       2.178  -2.996   3.010  0.00  0.00     0.001 A 
ATOM     19  C   UNL d   1       1.350  -2.251   2.168  0.00  0.00     0.010 A 
ENDBRANCH   2  14
TORSDOF 2
