REMARK  10 active torsions:
REMARK  status: ('A' for Active; 'I' for Inactive)
REMARK       I    between atoms: N_4  and  C_1 
REMARK    1  A    between atoms: O_6  and  C_1 
REMARK    2  A    between atoms: C_2  and  N_4 
REMARK    3  A    between atoms: C_3  and  C_2 
REMARK    4  A    between atoms: C_12  and  C_2 
REMARK       I    between atoms: N_5  and  C_3 
REMARK    5  A    between atoms: C_10  and  N_5 
REMARK    6  A    between atoms: C_9  and  O_6 
REMARK    7  A    between atoms: C_13  and  C_10 
REMARK    8  A    between atoms: O_11  and  C_12 
REMARK    9  A    between atoms: C_15  and  O_11 
REMARK   10  A    between atoms: C_14  and  C_15 
ROOT
ATOM      1  C   UNL d   1       1.208   2.211  -1.138  0.00  0.00     0.202 C 
ENDROOT
BRANCH   1   2
ATOM      2  N   UNL d   1       0.487   1.067  -0.577  0.00  0.00    -0.322 N 
ATOM      3  C   UNL d   1       1.021   0.261   0.380  0.00  0.00     0.362 C 
ATOM      4  O   UNL d   1       2.077   0.482   0.948  0.00  0.00    -0.238 OA
ATOM      5  H   UNL d   1      -0.300   0.682  -1.079  0.00  0.00     0.165 HD
BRANCH   3   6
ATOM      6  O   UNL d   1       0.203  -0.797   0.587  0.00  0.00    -0.294 OA
BRANCH   6   7
ATOM      7  C   UNL d   1       0.555  -1.814   1.562  0.00  0.00     0.061 C 
ATOM      8  C   UNL d   1       0.648  -1.229   2.978  0.00  0.00     0.046 C 
ATOM      9  C   UNL d   1      -0.599  -2.829   1.538  0.00  0.00     0.046 C 
ATOM     10  C   UNL d   1       1.843  -2.540   1.155  0.00  0.00     0.046 C 
ENDBRANCH   6   7
ENDBRANCH   3   6
ENDBRANCH   1   2
BRANCH   1  11
ATOM     11  C   UNL d   1       1.795   1.812  -2.510  0.00  0.00     0.242 C 
ATOM     12  N   UNL d   1       2.729   2.670  -3.068  0.00  0.00    -0.355 N 
ATOM     13  H   UNL d   1       2.812   3.624  -2.742  0.00  0.00     0.162 HD
ATOM     14  O   UNL d   1       1.454   0.772  -3.079  0.00  0.00    -0.271 OA
BRANCH  12  15
ATOM     15  C   UNL d   1       3.275   2.353  -4.377  0.00  0.00     0.161 C 
BRANCH  15  16
ATOM     16  C   UNL d   1       4.611   2.986  -4.698  0.00  0.00    -0.041 A 
ATOM     17  C   UNL d   1       5.704   2.879  -3.828  0.00  0.00     0.009 A 
ATOM     18  C   UNL d   1       6.979   3.305  -4.228  0.00  0.00     0.001 A 
ATOM     19  C   UNL d   1       7.174   3.837  -5.499  0.00  0.00     0.000 A 
ATOM     20  C   UNL d   1       6.097   3.962  -6.371  0.00  0.00     0.001 A 
ATOM     21  C   UNL d   1       4.826   3.539  -5.972  0.00  0.00     0.009 A 
ENDBRANCH  15  16
ENDBRANCH  12  15
ENDBRANCH   1  11
BRANCH   1  22
ATOM     22  C   UNL d   1       0.262   3.419  -1.239  0.00  0.00     0.202 C 
BRANCH  22  23
ATOM     23  O   UNL d   1      -0.389   3.743   0.003  0.00  0.00    -0.384 OA
BRANCH  23  24
ATOM     24  C   UNL d   1       0.503   4.203   1.015  0.00  0.00     0.206 C 
BRANCH  24  25
ATOM     25  C   UNL d   1      -0.239   4.448   2.306  0.00  0.00    -0.035 A 
ATOM     26  C   UNL d   1      -0.384   3.415   3.245  0.00  0.00     0.009 A 
ATOM     27  C   UNL d   1      -1.005   3.654   4.473  0.00  0.00     0.001 A 
ATOM     28  C   UNL d   1      -1.499   4.923   4.770  0.00  0.00     0.000 A 
ATOM     29  C   UNL d   1      -1.387   5.948   3.833  0.00  0.00     0.001 A 
ATOM     30  C   UNL d   1      -0.767   5.711   2.603  0.00  0.00     0.009 A 
ENDBRANCH  24  25
ENDBRANCH  23  24
ENDBRANCH  22  23
ENDBRANCH   1  22
TORSDOF 10
