REMARK  4 active torsions:
REMARK  status: ('A' for Active; 'I' for Inactive)
REMARK    1  A    between atoms: C_2  and  S_1 
REMARK    2  A    between atoms: C_4  and  S_1 
REMARK    3  A    between atoms: C_3  and  N_12 
REMARK    4  A    between atoms: N_12  and  C_9 
ROOT
ATOM      1  C   UNL d   1       0.482   1.430   0.654  0.00  0.00     0.161 C 
ATOM      2  C   UNL d   1      -0.288   2.223  -0.110  0.00  0.00     0.141 C 
ATOM      3  C   UNL d   1       0.944   0.169   0.213  0.00  0.00     0.113 C 
ATOM      4  N   UNL d   1       1.287  -0.859  -0.197  0.00  0.00    -0.191 NA
ENDROOT
BRANCH   1   5
ATOM      5  S   UNL d   1       0.815   1.936   2.276  0.00  0.00     0.233 S 
ATOM      6  O   UNL d   1      -0.256   1.438   3.128  0.00  0.00    -0.215 OA
ATOM      7  O   UNL d   1       1.140   3.354   2.310  0.00  0.00    -0.215 OA
BRANCH   5   8
ATOM      8  C   UNL d   1       2.300   1.063   2.760  0.00  0.00     0.134 A 
ATOM      9  N   UNL d   1       3.369   1.293   1.954  0.00  0.00    -0.356 N 
ATOM     10  C   UNL d   1       4.520   0.692   2.324  0.00  0.00     0.089 A 
ATOM     11  HN  UNL d   1       3.306   1.882   1.123  1.00  0.00     0.166 HD
ATOM     12  C   UNL d   1       4.638  -0.132   3.435  0.00  0.00     0.017 A 
ATOM     13  C   UNL d   1       3.512  -0.358   4.224  0.00  0.00     0.004 A 
ATOM     14  C   UNL d   1       2.310   0.254   3.888  0.00  0.00     0.042 A 
ENDBRANCH   5   8
ENDBRANCH   1   5
BRANCH   2  15
ATOM     15  N   UNL d   1      -0.762   1.987  -1.377  0.00  0.00    -0.200 N 
ATOM     16  H   UNL d   1      -0.607   1.098  -1.836  0.00  0.00     0.183 HD
BRANCH  15  17
ATOM     17  C   UNL d   1      -1.445   2.868  -2.211  0.00  0.00     0.682 A 
ATOM     18  N   UNL d   1      -1.654   4.135  -1.827  0.00  0.00    -0.196 N 
ATOM     19  C   UNL d   1      -2.289   4.952  -2.687  0.00  0.00     0.024 A 
ATOM     20  HN  UNL d   1      -1.343   4.468  -0.914  1.00  0.00     0.184 HD
ATOM     21  C   UNL d   1      -2.491   6.371  -2.251  0.00  0.00     0.068 C 
ATOM     22  C   UNL d   1      -2.736   4.523  -3.920  0.00  0.00     0.050 A 
ATOM     23  C   UNL d   1      -2.490   3.203  -4.233  0.00  0.00     0.024 A 
ATOM     24  N   UNL d   1      -1.841   2.371  -3.393  0.00  0.00    -0.196 N 
ATOM     25  C   UNL d   1      -2.945   2.639  -5.547  0.00  0.00     0.068 C 
ATOM     26  HN  UNL d   1      -1.658   1.400  -3.646  1.00  0.00     0.184 HD
ENDBRANCH  15  17
ENDBRANCH   2  15
TORSDOF 4
