REMARK  3 active torsions:
REMARK  status: ('A' for Active; 'I' for Inactive)
REMARK       I    between atoms: C_2  and  N_1 
REMARK    1  A    between atoms: C_7  and  C_2 
REMARK    2  A    between atoms: C_9  and  C_6 
REMARK    3  A    between atoms: C_14  and  C_9 
ROOT
ATOM      1  N   UNL d   1       0.634   1.210  -0.044  0.00  0.00    -0.186 N 
ATOM      2  C   UNL d   1       1.255   2.388   0.380  0.00  0.00     0.282 C 
ATOM      3  N   UNL d   1      -0.741   1.135  -0.216  0.00  0.00    -0.296 N 
ATOM      4  HN  UNL d   1      -1.380   1.917  -0.364  1.00  0.00     0.187 HD
ATOM      5  C   UNL d   1       1.256  -0.051  -0.020  0.00  0.00     0.255 C 
ATOM      6  C   UNL d   1       0.121  -1.048   0.014  0.00  0.00     0.131 C 
ATOM      7  C   UNL d   1      -1.055  -0.125  -0.152  0.00  0.00     0.014 C 
ATOM      8  O   UNL d   1       2.431   2.476   0.727  0.00  0.00    -0.265 OA
ATOM      9  O   UNL d   1       2.438  -0.335  -0.092  0.00  0.00    -0.270 OA
ATOM     10  C   UNL d   1      -2.464  -0.612  -0.204  0.00  0.00     0.066 C 
ENDROOT
BRANCH   2  11
ATOM     11  C   UNL d   1       0.445   3.627   0.434  0.00  0.00     0.077 A 
ATOM     12  C   UNL d   1      -0.674   3.745   1.275  0.00  0.00     0.051 A 
ATOM     13 CL   UNL d   1      -1.140   2.531   2.423  0.00  0.00    -0.083 Cl
ATOM     14  C   UNL d   1      -1.429   4.925   1.286  0.00  0.00     0.025 A 
ATOM     15  C   UNL d   1      -1.024   6.027   0.537  0.00  0.00     0.003 A 
ATOM     16  C   UNL d   1       0.134   5.949  -0.233  0.00  0.00     0.025 A 
ATOM     17  C   UNL d   1       0.858   4.751  -0.302  0.00  0.00     0.051 A 
ATOM     18 CL   UNL d   1       2.248   4.751  -1.333  0.00  0.00    -0.083 Cl
ENDBRANCH   2  11
BRANCH   6  19
ATOM     19  C   UNL d   1       0.060  -1.789   1.352  0.00  0.00     0.053 C 
BRANCH  19  20
ATOM     20  C   UNL d   1       1.255  -2.669   1.643  0.00  0.00    -0.092 C 
ATOM     21  C   UNL d   1       2.057  -2.443   2.696  0.00  0.00     0.014 C 
ATOM     22  C   UNL d   1       1.541  -3.812   0.710  0.00  0.00     0.042 C 
ENDBRANCH  19  20
ENDBRANCH   6  19
TORSDOF 3
