REMARK  9 active torsions:
REMARK  status: ('A' for Active; 'I' for Inactive)
REMARK    1  A    between atoms: C_2  and  C_1 
REMARK       I    between atoms: N_3  and  C_1 
REMARK    2  A    between atoms: N_4  and  C_2 
REMARK    3  A    between atoms: C_6  and  C_2 
REMARK    4  A    between atoms: C_7  and  N_3 
REMARK    5  A    between atoms: C_8  and  N_4 
REMARK    6  A    between atoms: O_19  and  C_9 
REMARK    7  A    between atoms: O_20  and  C_10 
REMARK    8  A    between atoms: C_23  and  O_19 
REMARK    9  A    between atoms: C_24  and  O_20 
ROOT
ATOM      1  C   UNL d   1       0.247  -0.618  -0.966  0.00  0.00     0.208 C 
ENDROOT
BRANCH   1   2
ATOM      2  C   UNL d   1       1.016   0.281   0.060  0.00  0.00     0.249 C 
ATOM      3  N   UNL d   1       0.415   0.386   1.317  0.00  0.00    -0.325 N 
ATOM      4  H   UNL d   1      -0.383  -0.206   1.504  0.00  0.00     0.169 HD
ATOM      5  O   UNL d   1       2.076   0.839  -0.238  0.00  0.00    -0.270 OA
BRANCH   3   6
ATOM      6  C   UNL d   1       0.906   1.127   2.416  0.00  0.00     0.035 A 
ATOM      7  C   UNL d   1       2.005   1.981   2.330  0.00  0.00     0.032 A 
ATOM      8  C   UNL d   1       2.575   2.537   3.477  0.00  0.00     0.039 A 
ATOM      9  C   UNL d   1       2.038   2.268   4.730  0.00  0.00     0.068 A 
ATOM     10  C   UNL d   1       0.858   1.526   4.811  0.00  0.00     0.039 A 
ATOM     11  C   UNL d   1       0.290   0.961   3.660  0.00  0.00     0.032 A 
BRANCH   9  12
ATOM     12  O   UNL d   1       2.582   2.661   5.923  0.00  0.00    -0.352 OA
BRANCH  12  13
ATOM     13  C   UNL d   1       3.900   3.207   5.856  0.00  0.00     0.171 C 
ATOM     14  C   UNL d   1       4.443   3.372   7.262  0.00  0.00     0.034 C 
ENDBRANCH  12  13
ENDBRANCH   9  12
ENDBRANCH   3   6
ENDBRANCH   1   2
BRANCH   1  15
ATOM     15  N   UNL d   1      -0.445   0.213  -1.976  0.00  0.00    -0.373 N 
ATOM     16  H   UNL d   1      -0.226  -0.087  -2.921  0.00  0.00     0.161 HD
BRANCH  15  17
ATOM     17  C   UNL d   1      -1.789   0.561  -1.828  0.00  0.00     0.029 A 
ATOM     18  C   UNL d   1      -2.393   0.777  -0.592  0.00  0.00     0.032 A 
ATOM     19  C   UNL d   1      -3.737   1.144  -0.475  0.00  0.00     0.039 A 
ATOM     20  C   UNL d   1      -4.514   1.326  -1.612  0.00  0.00     0.068 A 
ATOM     21  C   UNL d   1      -3.909   1.214  -2.861  0.00  0.00     0.039 A 
ATOM     22  C   UNL d   1      -2.560   0.844  -2.964  0.00  0.00     0.032 A 
BRANCH  20  23
ATOM     23  O   UNL d   1      -5.839   1.670  -1.590  0.00  0.00    -0.352 OA
BRANCH  23  24
ATOM     24  C   UNL d   1      -6.566   1.153  -0.470  0.00  0.00     0.171 C 
ATOM     25  C   UNL d   1      -8.027   1.534  -0.610  0.00  0.00     0.034 C 
ENDBRANCH  23  24
ENDBRANCH  20  23
ENDBRANCH  15  17
ENDBRANCH   1  15
BRANCH   1  26
ATOM     26  C   UNL d   1       1.199  -1.582  -1.694  0.00  0.00    -0.026 A 
ATOM     27  C   UNL d   1       0.950  -2.964  -1.712  0.00  0.00     0.010 A 
ATOM     28  C   UNL d   1       1.823  -3.841  -2.365  0.00  0.00     0.001 A 
ATOM     29  C   UNL d   1       2.958  -3.352  -3.009  0.00  0.00     0.000 A 
ATOM     30  C   UNL d   1       3.212  -1.984  -3.020  0.00  0.00     0.001 A 
ATOM     31  C   UNL d   1       2.332  -1.109  -2.384  0.00  0.00     0.010 A 
ENDBRANCH   1  26
TORSDOF 9
