REMARK  5 active torsions:
REMARK  status: ('A' for Active; 'I' for Inactive)
REMARK    1  A    between atoms: C_9  and  C_3 
REMARK    2  A    between atoms: C_8  and  C_4 
REMARK    3  A    between atoms: C_7  and  C_13 
REMARK    4  A    between atoms: C_10  and  O_15 
REMARK    5  A    between atoms: O_15  and  C_16 
ROOT
ATOM      1  N   UNL d   1       1.407  -0.597  -0.009  0.00  0.00    -0.349 N 
ATOM      2  HN  UNL d   1       2.294  -1.099  -0.044  1.00  0.00     0.166 HD
ATOM      3  C   UNL d   1       0.217  -1.171  -0.009  0.00  0.00     0.084 A 
ATOM      4  C   UNL d   1       1.278   0.786   0.045  0.00  0.00     0.050 A 
ATOM      5  S   UNL d   1      -1.110  -0.071   0.103  0.00  0.00    -0.081 SA
ATOM      6  C   UNL d   1      -0.021   1.244   0.098  0.00  0.00     0.082 A 
ENDROOT
BRANCH   3   7
ATOM      7  C   UNL d   1      -0.025  -2.624  -0.050  0.00  0.00    -0.002 A 
ATOM      8  C   UNL d   1       0.884  -3.500   0.557  0.00  0.00     0.015 A 
ATOM      9  C   UNL d   1       0.649  -4.884   0.572  0.00  0.00     0.010 A 
ATOM     10  C   UNL d   1      -0.494  -5.431  -0.030  0.00  0.00    -0.035 A 
ATOM     11  C   UNL d   1      -1.388  -4.554  -0.663  0.00  0.00     0.010 A 
ATOM     12  C   UNL d   1      -1.151  -3.174  -0.678  0.00  0.00     0.015 A 
BRANCH  10  13
ATOM     13  C   UNL d   1      -0.747  -6.923   0.035  0.00  0.00     0.141 C 
ATOM     14  S   UNL d   1      -0.993  -7.696  -1.590  0.00  0.00    -0.148 SA
ATOM     15  C   UNL d   1      -1.847  -9.147  -0.938  0.00  0.00     0.085 C 
ATOM     16  C   UNL d   1      -2.872  -8.662   0.070  0.00  0.00     0.085 C 
ATOM     17  S   UNL d   1      -2.163  -7.347   1.108  0.00  0.00    -0.148 SA
ENDBRANCH  10  13
ENDBRANCH   3   7
BRANCH   4  18
ATOM     18  C   UNL d   1       2.438   1.668  -0.019  0.00  0.00    -0.006 A 
ATOM     19  C   UNL d   1       3.575   1.258  -0.735  0.00  0.00     0.050 A 
ATOM     20  C   UNL d   1       4.671   2.111  -0.876  0.00  0.00     0.075 A 
ATOM     21  C   UNL d   1       4.654   3.363  -0.257  0.00  0.00     0.037 A 
ATOM     22  C   UNL d   1       3.541   3.775   0.473  0.00  0.00     0.004 A 
ATOM     23  C   UNL d   1       2.436   2.933   0.590  0.00  0.00     0.014 A 
BRANCH  20  24
ATOM     24  O   UNL d   1       5.815   1.828  -1.570  0.00  0.00    -0.290 OA
BRANCH  24  25
ATOM     25  C   UNL d   1       5.673   0.915  -2.646  0.00  0.00     0.505 C 
ATOM     26  F   UNL d   1       4.777   1.407  -3.538  0.00  0.00    -0.184 F 
ATOM     27  F   UNL d   1       6.867   0.864  -3.289  0.00  0.00    -0.184 F 
ENDBRANCH  24  25
ENDBRANCH  20  24
ENDBRANCH   4  18
TORSDOF 5
