REMARK  0 active torsions:
REMARK  status: ('A' for Active; 'I' for Inactive)
ROOT
ATOM      1  C   UNL d   1      -1.024  -0.120   0.418  0.00  0.00     0.105 C 
ATOM      2  N   UNL d   1      -0.320  -0.921  -0.637  0.00  0.00    -0.246 NA
ATOM      3  C   UNL d   1      -0.229   1.226   0.580  0.00  0.00     0.025 C 
ATOM      4  N   UNL d   1      -0.940  -1.019   1.555  0.00  0.00    -0.337 N 
ATOM      5  C   UNL d   1       1.025  -0.442  -0.551  0.00  0.00     0.020 A 
ATOM      6  C   UNL d   1       1.141   0.766   0.150  0.00  0.00    -0.025 A 
ATOM      7  C   UNL d   1      -0.813  -2.340   1.177  0.00  0.00     0.232 C 
ATOM      8  C   UNL d   1      -0.451  -2.358  -0.293  0.00  0.00     0.201 C 
ATOM      9  O   UNL d   1      -0.998  -3.299   1.911  0.00  0.00    -0.272 OA
ATOM     10  C   UNL d   1      -2.524   0.058   0.091  0.00  0.00     0.049 C 
ATOM     11  C   UNL d   1      -0.256   1.768   2.014  0.00  0.00     0.024 C 
ATOM     12  C   UNL d   1      -0.691   2.311  -0.423  0.00  0.00     0.018 C 
ATOM     13  C   UNL d   1       2.160  -1.035  -1.088  0.00  0.00     0.024 A 
ATOM     14  C   UNL d   1       2.369   1.387   0.340  0.00  0.00     0.010 A 
ATOM     15  C   UNL d   1      -2.881   1.212  -0.835  0.00  0.00     0.004 C 
ATOM     16  C   UNL d   1      -2.198   2.504  -0.421  0.00  0.00     0.001 C 
ATOM     17  C   UNL d   1       3.510   0.772  -0.173  0.00  0.00     0.001 A 
ATOM     18  C   UNL d   1       3.406  -0.432  -0.882  0.00  0.00     0.002 A 
ATOM     19  H   UNL d   1      -1.304  -0.806   2.471  0.00  0.00     0.164 HD
ENDROOT
TORSDOF 0
