REMARK  6 active torsions:
REMARK  status: ('A' for Active; 'I' for Inactive)
REMARK    1  A    between atoms: C_6  and  C_1 
REMARK    2  A    between atoms: N_4  and  C_2 
REMARK       I    between atoms: C_3  and  N_4 
REMARK    3  A    between atoms: C_7  and  C_3 
REMARK    4  A    between atoms: O_17  and  C_6 
REMARK    5  A    between atoms: O_18  and  C_9 
REMARK    6  A    between atoms: O_19  and  C_10 
ROOT
ATOM      1  C   UNL d   1       1.180   0.030   0.218  0.00  0.00     0.067 C 
ATOM      2  C   UNL d   1       0.553  -1.191  -0.092  0.00  0.00     0.054 C 
ATOM      3  C   UNL d   1       0.490   1.236   0.037  0.00  0.00     0.060 C 
ATOM      4  C   UNL d   1      -0.831  -1.183  -0.347  0.00  0.00     0.070 C 
ATOM      5  C   UNL d   1      -0.871   1.232  -0.255  0.00  0.00     0.102 C 
ATOM      6  C   UNL d   1      -1.557   0.018  -0.390  0.00  0.00     0.103 C 
ENDROOT
BRANCH   2   7
ATOM      7  N   UNL d   1       1.201  -2.454  -0.161  0.00  0.00    -0.321 N 
ATOM      8  C   UNL d   1       2.535  -2.662  -0.511  0.00  0.00     0.263 C 
ATOM      9  O   UNL d   1       3.298  -1.747  -0.800  0.00  0.00    -0.267 OA
ATOM     10  H   UNL d   1       0.616  -3.278  -0.258  0.00  0.00     0.169 HD
BRANCH   8  11
ATOM     11  C   UNL d   1       2.974  -4.055  -0.536  0.00  0.00     0.072 A 
ATOM     12  S   UNL d   1       1.882  -5.372  -0.437  0.00  0.00    -0.097 SA
ATOM     13  C   UNL d   1       3.146  -6.519  -0.561  0.00  0.00     0.050 A 
ATOM     14  C   UNL d   1       4.380  -5.920  -0.662  0.00  0.00     0.009 A 
ATOM     15  C   UNL d   1       4.279  -4.500  -0.649  0.00  0.00     0.025 A 
ENDBRANCH   8  11
ENDBRANCH   2   7
BRANCH   1  16
ATOM     16  C   UNL d   1       2.462   0.154   0.963  0.00  0.00     0.178 C 
ATOM     17  O   UNL d   1       3.212   1.114   0.867  0.00  0.00    -0.646 OA
BRANCH  16  18
ATOM     18  O   UNL d   1       2.597  -0.791   1.926  0.00  0.00    -0.773 OA
ATOM     19  H   UNL d   1       1.901  -1.474   1.920  0.00  0.00     0.167 HD
ENDBRANCH  16  18
ENDBRANCH   1  16
BRANCH   6  20
ATOM     20  O   UNL d   1      -2.907   0.075  -0.617  0.00  0.00    -0.353 OA
ATOM     21  C   UNL d   1      -3.667  -1.038  -0.156  0.00  0.00     0.210 C 
ENDBRANCH   6  20
BRANCH   5  22
ATOM     22  O   UNL d   1      -1.442   2.468  -0.401  0.00  0.00    -0.353 OA
ATOM     23  C   UNL d   1      -2.509   2.710   0.513  0.00  0.00     0.210 C 
ENDBRANCH   5  22
TORSDOF 6
