REMARK  5 active torsions:
REMARK  status: ('A' for Active; 'I' for Inactive)
REMARK    1  A    between atoms: N_3  and  C_1 
REMARK    2  A    between atoms: C_5  and  C_2 
REMARK       I    between atoms: C_4  and  N_3 
REMARK    3  A    between atoms: C_9  and  C_4 
REMARK    4  A    between atoms: O_14  and  C_5 
REMARK    5  A    between atoms: O_18  and  C_15 
ROOT
ATOM      1  N   UNL d   1       0.021   2.381   0.331  0.00  0.00    -0.316 N 
ATOM      2  C   UNL d   1       0.718   3.541   0.055  0.00  0.00     0.256 C 
ATOM      3  O   UNL d   1       0.260   4.663  -0.090  0.00  0.00    -0.267 OA
ATOM      4  H   UNL d   1       0.510   1.667   0.857  0.00  0.00     0.169 HD
ENDROOT
BRANCH   1   5
ATOM      5  C   UNL d   1      -1.351   2.297   0.369  0.00  0.00     0.093 C 
ATOM      6  C   UNL d   1      -2.402   2.860  -0.329  0.00  0.00     0.073 C 
ATOM      7  C   UNL d   1      -3.652   2.455   0.278  0.00  0.00     0.028 C 
ATOM      8  C   UNL d   1      -3.493   1.579   1.327  0.00  0.00     0.053 C 
ATOM      9  S   UNL d   1      -1.853   1.189   1.568  0.00  0.00    -0.083 SA
BRANCH   6  10
ATOM     10  C   UNL d   1      -2.353   3.702  -1.524  0.00  0.00     0.295 C 
ATOM     11  O   UNL d   1      -3.336   4.315  -1.930  0.00  0.00    -0.259 OA
BRANCH  10  12
ATOM     12  O   UNL d   1      -1.165   3.654  -2.192  0.00  0.00    -0.322 OA
ATOM     13  C   UNL d   1      -1.050   4.602  -3.252  0.00  0.00     0.213 C 
ENDBRANCH  10  12
ENDBRANCH   6  10
ENDBRANCH   1   5
BRANCH   2  14
ATOM     14  C   UNL d   1       2.188   3.326   0.077  0.00  0.00     0.032 A 
ATOM     15  C   UNL d   1       2.743   2.229  -0.595  0.00  0.00     0.020 A 
ATOM     16  C   UNL d   1       4.107   1.951  -0.473  0.00  0.00     0.038 A 
ATOM     17  C   UNL d   1       4.916   2.765   0.321  0.00  0.00     0.068 A 
ATOM     18  C   UNL d   1       4.366   3.892   0.942  0.00  0.00     0.038 A 
ATOM     19  C   UNL d   1       3.002   4.177   0.823  0.00  0.00     0.020 A 
BRANCH  17  20
ATOM     20  O   UNL d   1       6.252   2.570   0.538  0.00  0.00    -0.356 OA
ATOM     21  C   UNL d   1       6.716   1.232   0.382  0.00  0.00     0.210 C 
ENDBRANCH  17  20
ENDBRANCH   2  14
TORSDOF 5
