REMARK  3 active torsions:
REMARK  status: ('A' for Active; 'I' for Inactive)
REMARK    1  A    between atoms: C_6  and  N_1 
REMARK    2  A    between atoms: C_7  and  C_6 
REMARK    3  A    between atoms: C_8  and  C_7 
ROOT
ATOM      1  N   UNL d   1       1.844  -0.092  -0.070  0.00  0.00    -0.273 N 
ATOM      2  C   UNL d   1       1.000  -0.135  -1.141  0.00  0.00     0.262 A 
ATOM      3  C   UNL d   1       1.169  -0.283   1.107  0.00  0.00     0.262 A 
ATOM      4  C   UNL d   1      -0.354  -0.273  -0.614  0.00  0.00     0.048 A 
ATOM      5  C   UNL d   1      -0.254  -0.360   0.761  0.00  0.00     0.048 A 
ATOM      6  O   UNL d   1       1.266  -0.108  -2.329  0.00  0.00    -0.267 OA
ATOM      7  O   UNL d   1       1.603  -0.428   2.231  0.00  0.00    -0.267 OA
ATOM      8  C   UNL d   1      -1.367  -0.521   1.560  0.00  0.00     0.018 A 
ATOM      9  C   UNL d   1      -1.567  -0.335  -1.272  0.00  0.00     0.018 A 
ATOM     10  C   UNL d   1      -2.709  -0.490  -0.486  0.00  0.00     0.001 A 
ATOM     11  C   UNL d   1      -2.612  -0.583   0.918  0.00  0.00     0.001 A 
ENDROOT
BRANCH   1  12
ATOM     12  C   UNL d   1       3.285  -0.005  -0.185  0.00  0.00     0.219 C 
BRANCH  12  13
ATOM     13  C   UNL d   1       3.745   1.443  -0.036  0.00  0.00     0.177 C 
ATOM     14  O   UNL d   1       3.698   2.029   1.046  0.00  0.00    -0.291 OA
BRANCH  13  15
ATOM     15  C   UNL d   1       4.243   2.204  -1.223  0.00  0.00     0.013 A 
ATOM     16  C   UNL d   1       3.896   1.872  -2.535  0.00  0.00     0.040 A 
ATOM     17  C   UNL d   1       4.352   2.646  -3.610  0.00  0.00     0.056 A 
ATOM     18 CL   UNL d   1       3.855   2.177  -5.198  0.00  0.00    -0.083 Cl
ATOM     19  C   UNL d   1       5.170   3.756  -3.380  0.00  0.00     0.055 A 
ATOM     20  C   UNL d   1       5.518   4.096  -2.072  0.00  0.00     0.026 A 
ATOM     21 CL   UNL d   1       5.780   4.739  -4.661  0.00  0.00    -0.083 Cl
ATOM     22  C   UNL d   1       5.051   3.328  -0.999  0.00  0.00     0.017 A 
ENDBRANCH  13  15
ENDBRANCH  12  13
ENDBRANCH   1  12
TORSDOF 3
