REMARK  3 active torsions:
REMARK  status: ('A' for Active; 'I' for Inactive)
REMARK    1  A    between atoms: C_8  and  N_1 
REMARK    2  A    between atoms: C_7  and  C_4 
REMARK    3  A    between atoms: C_15  and  C_5 
ROOT
ATOM      1  N   UNL d   1       0.149  -1.117   0.033  0.00  0.00    -0.283 N 
ATOM      2  N   UNL d   1       1.147  -0.192   0.039  0.00  0.00    -0.301 N 
ATOM      3  HN  UNL d   1       2.149  -0.380   0.085  1.00  0.00     0.187 HD
ATOM      4  C   UNL d   1      -1.194  -0.538  -0.019  0.00  0.00     0.147 A 
ATOM      5  C   UNL d   1       0.583   0.978  -0.024  0.00  0.00     0.038 A 
ATOM      6  C   UNL d   1      -0.922   0.965   0.006  0.00  0.00     0.091 A 
ENDROOT
BRANCH   4   7
ATOM      7  C   UNL d   1      -2.083  -0.968   1.141  0.00  0.00    -0.030 A 
ATOM      8  C   UNL d   1      -3.471  -1.080   0.946  0.00  0.00     0.049 A 
ATOM      9  C   UNL d   1      -4.242  -1.535   1.997  0.00  0.00     0.105 A 
ATOM     10  O   UNL d   1      -5.589  -1.726   1.967  0.00  0.00    -0.323 OA
ATOM     11  C   UNL d   1      -3.695  -1.865   3.214  0.00  0.00     0.105 A 
ATOM     12  C   UNL d   1      -5.814  -2.264   3.287  0.00  0.00     0.352 A 
ATOM     13  O   UNL d   1      -4.624  -2.312   4.099  0.00  0.00    -0.323 OA
ATOM     14  C   UNL d   1      -2.347  -1.744   3.458  0.00  0.00     0.040 A 
ATOM     15  C   UNL d   1      -1.541  -1.279   2.415  0.00  0.00     0.012 A 
ENDBRANCH   4   7
BRANCH   1  16
ATOM     16  C   UNL d   1       0.427  -2.482   0.093  0.00  0.00     0.051 A 
ATOM     17  C   UNL d   1       1.601  -2.946   0.704  0.00  0.00     0.031 A 
ATOM     18  C   UNL d   1       1.850  -4.313   0.867  0.00  0.00     0.009 A 
ATOM     19  C   UNL d   1       0.944  -5.260   0.384  0.00  0.00    -0.062 A 
ATOM     20  C   UNL d   1      -0.212  -4.816  -0.261  0.00  0.00     0.009 A 
ATOM     21  C   UNL d   1       1.209  -6.723   0.576  0.00  0.00     0.048 C 
ATOM     22  C   UNL d   1      -0.465  -3.447  -0.399  0.00  0.00     0.031 A 
ENDBRANCH   1  16
BRANCH   5  23
ATOM     23  C   UNL d   1       1.346   2.244  -0.131  0.00  0.00    -0.012 A 
ATOM     24  C   UNL d   1       2.745   2.196  -0.159  0.00  0.00     0.013 A 
ATOM     25  C   UNL d   1       3.489   3.370  -0.309  0.00  0.00     0.001 A 
ATOM     26  C   UNL d   1       2.836   4.596  -0.435  0.00  0.00     0.000 A 
ATOM     27  C   UNL d   1       1.443   4.651  -0.401  0.00  0.00     0.001 A 
ATOM     28  C   UNL d   1       0.697   3.479  -0.247  0.00  0.00     0.013 A 
ENDBRANCH   5  23
TORSDOF 3
