REMARK  1 active torsions:
REMARK  status: ('A' for Active; 'I' for Inactive)
REMARK    1  A    between atoms: C_4  and  C_3 
ROOT
ATOM      1  C   UNL d   1       3.146   0.336  -0.440  0.00  0.00     0.189 C 
ATOM      2  C   UNL d   1       2.367  -0.914  -0.658  0.00  0.00    -0.004 C 
ATOM      3  C   UNL d   1       2.698  -1.571  -1.786  0.00  0.00     0.048 C 
ATOM      4  C   UNL d   1       4.194   0.291   0.613  0.00  0.00     0.021 A 
ATOM      5  O   UNL d   1       3.032   1.300  -1.186  0.00  0.00    -0.287 OA
ATOM      6  C   UNL d   1       3.983  -0.212   1.909  0.00  0.00    -0.044 A 
ATOM      7  C   UNL d   1       1.328  -1.231   0.369  0.00  0.00     0.043 C 
ATOM      8  C   UNL d   1       5.463   0.760   0.235  0.00  0.00     0.016 A 
ATOM      9  C   UNL d   1       1.946  -1.730   1.670  0.00  0.00     0.009 C 
ATOM     10  C   UNL d   1       2.627  -0.605   2.441  0.00  0.00     0.040 C 
ATOM     11  C   UNL d   1       5.082  -0.273   2.788  0.00  0.00     0.008 A 
ATOM     12  C   UNL d   1       6.537   0.691   1.121  0.00  0.00     0.001 A 
ATOM     13  C   UNL d   1       6.348   0.163   2.393  0.00  0.00     0.001 A 
ENDROOT
BRANCH   3  14
ATOM     14  C   UNL d   1       2.151  -2.822  -2.188  0.00  0.00     0.076 A 
ATOM     15  O   UNL d   1       1.308  -3.599  -1.427  0.00  0.00    -0.316 OA
ATOM     16  C   UNL d   1       0.994  -4.724  -2.119  0.00  0.00     0.050 A 
ATOM     17  C   UNL d   1       0.070  -5.666  -1.458  0.00  0.00     0.076 C 
ATOM     18  C   UNL d   1       1.641  -4.723  -3.330  0.00  0.00     0.035 A 
ATOM     19  C   UNL d   1       2.376  -3.514  -3.375  0.00  0.00     0.040 A 
ENDBRANCH   3  14
TORSDOF 1
