REMARK  8 active torsions:
REMARK  status: ('A' for Active; 'I' for Inactive)
REMARK    1  A    between atoms: N_2  and  S_1 
REMARK    2  A    between atoms: C_6  and  S_1 
REMARK       I    between atoms: C_4  and  N_2 
REMARK    3  A    between atoms: C_3  and  C_5 
REMARK       I    between atoms: N_10  and  C_4 
REMARK       I    between atoms: C_5  and  N_14 
REMARK    4  A    between atoms: O_25  and  C_9 
REMARK    5  A    between atoms: C_24  and  N_10 
REMARK    6  A    between atoms: N_14  and  C_26 
REMARK    7  A    between atoms: C_27  and  C_22 
REMARK    8  A    between atoms: C_26  and  C_27 
ROOT
ATOM      1  C   UNL d   1      -0.309  -1.559   0.530  0.00  0.00     0.080 A 
ATOM      2  C   UNL d   1       0.215  -2.634  -0.194  0.00  0.00     0.026 A 
ATOM      3  C   UNL d   1      -1.060  -1.791   1.682  0.00  0.00     0.026 A 
ATOM      4  C   UNL d   1      -0.022  -3.947   0.241  0.00  0.00     0.009 A 
ATOM      5  C   UNL d   1      -1.276  -3.099   2.119  0.00  0.00     0.009 A 
ATOM      6  C   UNL d   1      -0.774  -4.196   1.404  0.00  0.00    -0.057 A 
ENDROOT
BRANCH   1   7
ATOM      7  S   UNL d   1       0.131   0.113   0.109  0.00  0.00     0.266 S 
ATOM      8  O   UNL d   1      -0.422   0.983   1.128  0.00  0.00    -0.200 OA
ATOM      9  O   UNL d   1       1.539   0.115  -0.211  0.00  0.00    -0.200 OA
BRANCH   7  10
ATOM     10  N   UNL d   1      -0.679   0.381  -1.300  0.00  0.00    -0.232 N 
ATOM     11  C   UNL d   1      -1.839   1.100  -1.546  0.00  0.00     0.330 C 
ATOM     12  N   UNL d   1      -2.672   1.391  -0.507  0.00  0.00    -0.338 N 
ATOM     13  O   UNL d   1      -2.078   1.411  -2.705  0.00  0.00    -0.246 OA
ATOM     14  H   UNL d   1      -2.350   1.208   0.437  0.00  0.00     0.164 HD
ATOM     15  H   UNL d   1      -0.081   0.309  -2.117  0.00  0.00     0.183 HD
BRANCH  12  16
ATOM     16  C   UNL d   1      -3.990   1.983  -0.732  0.00  0.00     0.086 C 
ATOM     17  C   UNL d   1      -4.617   2.537   0.555  0.00  0.00     0.025 C 
ATOM     18  C   UNL d   1      -5.107   1.452   1.516  0.00  0.00     0.002 C 
ATOM     19  C   UNL d   1      -5.971   0.397   0.828  0.00  0.00     0.000 C 
ATOM     20  C   UNL d   1      -5.302  -0.161  -0.422  0.00  0.00     0.002 C 
ATOM     21  C   UNL d   1      -4.934   0.963  -1.388  0.00  0.00     0.025 C 
ENDBRANCH  12  16
ENDBRANCH   7  10
ENDBRANCH   1   7
BRANCH   6  22
ATOM     22  C   UNL d   1      -0.930  -5.615   1.926  0.00  0.00     0.058 C 
BRANCH  22  23
ATOM     23  C   UNL d   1      -2.289  -5.899   2.585  0.00  0.00     0.127 C 
BRANCH  23  24
ATOM     24  N   UNL d   1      -2.425  -7.247   3.104  0.00  0.00    -0.356 N 
ATOM     25  C   UNL d   1      -1.859  -7.609   4.315  0.00  0.00     0.254 C 
ATOM     26  O   UNL d   1      -1.099  -6.885   4.943  0.00  0.00    -0.268 OA
ATOM     27  H   UNL d   1      -3.155  -7.827   2.710  0.00  0.00     0.162 HD
BRANCH  25  28
ATOM     28  C   UNL d   1      -2.253  -8.950   4.824  0.00  0.00     0.066 A 
ATOM     29  C   UNL d   1      -2.539  -9.210   6.175  0.00  0.00     0.084 A 
ATOM     30  C   UNL d   1      -2.839 -10.520   6.574  0.00  0.00     0.039 A 
ATOM     31  C   UNL d   1      -2.878 -11.562   5.646  0.00  0.00     0.026 A 
ATOM     32  C   UNL d   1      -2.593 -11.300   4.311  0.00  0.00     0.035 A 
ATOM     33  C   UNL d   1      -2.276 -10.008   3.897  0.00  0.00     0.043 A 
ATOM     34 CL   UNL d   1      -2.610 -12.580   3.163  0.00  0.00    -0.084 Cl
BRANCH  29  35
ATOM     35  O   UNL d   1      -2.486  -8.315   7.208  0.00  0.00    -0.355 OA
ATOM     36  C   UNL d   1      -3.308  -7.162   7.054  0.00  0.00     0.210 C 
ENDBRANCH  29  35
ENDBRANCH  25  28
ENDBRANCH  23  24
ENDBRANCH  22  23
ENDBRANCH   6  22
TORSDOF 8
