REMARK  4 active torsions:
REMARK  status: ('A' for Active; 'I' for Inactive)
REMARK    1  A    between atoms: C_8  and  N_1 
REMARK    2  A    between atoms: C_11  and  C_6 
REMARK    3  A    between atoms: C_9  and  C_8 
REMARK    4  A    between atoms: C_10  and  C_9 
ROOT
ATOM      1  N   UNL d   1      -0.331  -1.160  -0.102  0.00  0.00    -0.209 N 
ATOM      2  N   UNL d   1      -1.081  -0.544   0.832  0.00  0.00    -0.268 N 
ATOM      3  HN  UNL d   1      -1.505  -0.922   1.679  1.00  0.00     0.190 HD
ATOM      4  N   UNL d   1      -0.422   0.822  -0.844  0.00  0.00    -0.266 N 
ATOM      5  HN  UNL d   1      -0.303   1.671  -1.398  1.00  0.00     0.186 HD
ATOM      6  C   UNL d   1      -1.116   0.705   0.339  0.00  0.00     0.144 A 
ATOM      7  N   UNL d   1       0.063  -0.382  -1.126  0.00  0.00    -0.002 NA
ENDROOT
BRANCH   1   8
ATOM      8  C   UNL d   1      -0.320  -2.597  -0.214  0.00  0.00     0.246 C 
BRANCH   8   9
ATOM      9  C   UNL d   1       1.051  -3.162   0.036  0.00  0.00     0.155 C 
ATOM     10  O   UNL d   1       1.512  -3.152   1.185  0.00  0.00    -0.295 OA
BRANCH   9  11
ATOM     11  C   UNL d   1       1.901  -3.714  -1.129  0.00  0.00     0.011 C 
ATOM     12  C   UNL d   1       2.995  -2.687  -1.445  0.00  0.00     0.022 C 
ATOM     13  C   UNL d   1       2.552  -5.027  -0.653  0.00  0.00     0.022 C 
ATOM     14  C   UNL d   1       1.104  -4.020  -2.403  0.00  0.00     0.022 C 
ENDBRANCH   9  11
ENDBRANCH   8   9
ENDBRANCH   1   8
BRANCH   6  15
ATOM     15  C   UNL d   1      -1.887   1.785   0.933  0.00  0.00     0.013 A 
ATOM     16  C   UNL d   1      -2.368   1.671   2.240  0.00  0.00     0.032 A 
ATOM     17  C   UNL d   1      -3.154   2.690   2.747  0.00  0.00     0.088 A 
ATOM     18  N   UNL d   1      -3.486   3.796   2.048  0.00  0.00    -0.375 N 
ATOM     19  C   UNL d   1      -3.003   3.890   0.791  0.00  0.00     0.088 A 
ATOM     20  HN  UNL d   1      -4.073   4.526   2.451  1.00  0.00     0.164 HD
ATOM     21  C   UNL d   1      -2.204   2.928   0.197  0.00  0.00     0.032 A 
ENDBRANCH   6  15
TORSDOF 4
