REMARK  5 active torsions:
REMARK  status: ('A' for Active; 'I' for Inactive)
REMARK    1  A    between atoms: C_7  and  C_1 
REMARK    2  A    between atoms: N_2  and  C_9 
REMARK    3  A    between atoms: C_10  and  C_3 
REMARK    4  A    between atoms: S_6  and  C_4 
REMARK    5  A    between atoms: C_8  and  S_6 
REMARK       I    between atoms: N_17  and  C_7 
REMARK       I    between atoms: N_18  and  C_10 
ROOT
ATOM      1  C   UNL d   1       1.394  -0.041  -0.237  0.00  0.00     0.051 A 
ATOM      2  C   UNL d   1       0.592  -1.206  -0.230  0.00  0.00     0.021 A 
ATOM      3  C   UNL d   1       0.768   1.225  -0.112  0.00  0.00     0.054 A 
ATOM      4  C   UNL d   1      -0.619   1.339   0.028  0.00  0.00     0.103 A 
ATOM      5  C   UNL d   1      -0.807  -1.058  -0.080  0.00  0.00     0.022 A 
ATOM      6  C   UNL d   1      -1.414   0.196   0.035  0.00  0.00     0.037 A 
ENDROOT
BRANCH   2   7
ATOM      7  S   UNL d   1       1.162  -2.914  -0.259  0.00  0.00    -0.088 SA
BRANCH   7   8
ATOM      8  C   UNL d   1       1.213  -3.326  -2.009  0.00  0.00     0.021 A 
ATOM      9  C   UNL d   1       2.316  -3.945  -2.642  0.00  0.00     0.048 A 
ATOM     10  C   UNL d   1       2.283  -4.170  -4.033  0.00  0.00     0.018 A 
ATOM     11  C   UNL d   1       1.154  -3.847  -4.785  0.00  0.00     0.001 A 
ATOM     12  C   UNL d   1       0.035  -3.324  -4.153  0.00  0.00     0.001 A 
ATOM     13  C   UNL d   1       0.061  -3.077  -2.779  0.00  0.00     0.020 A 
BRANCH   9  14
ATOM     14  C   UNL d   1       3.547  -4.357  -1.905  0.00  0.00     0.250 C 
ATOM     15  O   UNL d   1       3.970  -3.757  -0.924  0.00  0.00    -0.268 OA
ATOM     16  N   UNL d   1       4.219  -5.462  -2.364  0.00  0.00    -0.366 N 
ATOM     17  H   UNL d   1       3.856  -6.093  -3.064  0.00  0.00     0.159 HD
ATOM     18  H   UNL d   1       5.014  -5.765  -1.821  0.00  0.00     0.159 HD
ENDBRANCH   9  14
ENDBRANCH   7   8
ENDBRANCH   2   7
BRANCH   1  19
ATOM     19  C   UNL d   1       2.885   0.036  -0.338  0.00  0.00     0.250 C 
ATOM     20  O   UNL d   1       3.458   1.124  -0.333  0.00  0.00    -0.268 OA
ATOM     21  N   UNL d   1       3.629  -1.092  -0.433  0.00  0.00    -0.366 N 
ATOM     22  H   UNL d   1       3.282  -2.048  -0.410  0.00  0.00     0.159 HD
ATOM     23  H   UNL d   1       4.635  -1.000  -0.470  0.00  0.00     0.159 HD
ENDBRANCH   1  19
BRANCH   4  24
ATOM     24  N   UNL d   1      -1.236   2.663   0.195  0.00  0.00    -0.116 N 
ATOM     25  O   UNL d   1      -0.492   3.652   0.211  0.00  0.00    -0.532 OA
ATOM     26  O   UNL d   1      -2.469   2.708   0.312  0.00  0.00    -0.532 OA
ENDBRANCH   4  24
TORSDOF 5
