REMARK  4 active torsions:
REMARK  status: ('A' for Active; 'I' for Inactive)
REMARK    1  A    between atoms: S_5  and  C_1 
REMARK    2  A    between atoms: C_15  and  S_5 
REMARK    3  A    between atoms: C_9  and  C_15 
REMARK       I    between atoms: N_10  and  C_9 
REMARK    4  A    between atoms: C_12  and  N_10 
ROOT
ATOM      1  C   UNL d   1       2.625   4.325  -0.220  0.00  0.00     0.231 C 
ATOM      2  N   UNL d   1       1.695   5.287   0.143  0.00  0.00    -0.326 N 
ATOM      3  O   UNL d   1       3.760   4.554  -0.633  0.00  0.00    -0.272 OA
ATOM      4  H   UNL d   1       0.817   4.935   0.510  0.00  0.00     0.169 HD
ENDROOT
BRANCH   1   5
ATOM      5  C   UNL d   1       2.189   2.890   0.035  0.00  0.00     0.185 C 
BRANCH   5   6
ATOM      6  S   UNL d   1       0.497   2.559  -0.553  0.00  0.00    -0.084 SA
BRANCH   6   7
ATOM      7  C   UNL d   1       0.446   0.847  -0.278  0.00  0.00     0.146 A 
ATOM      8  N   UNL d   1      -0.550   0.028  -0.739  0.00  0.00    -0.341 N 
ATOM      9  C   UNL d   1      -0.249  -1.245  -0.324  0.00  0.00     0.109 A 
ATOM     10  C   UNL d   1      -1.713   0.379  -1.515  0.00  0.00     0.158 C 
ATOM     11  C   UNL d   1       0.934  -1.129   0.367  0.00  0.00     0.107 A 
ATOM     12  N   UNL d   1       1.351   0.175   0.395  0.00  0.00    -0.345 N 
ATOM     13  HN  UNL d   1       2.189   0.546   0.844  1.00  0.00     0.167 HD
ENDBRANCH   6   7
ENDBRANCH   5   6
ENDBRANCH   1   5
BRANCH   2  14
ATOM     14  C   UNL d   1       1.833   6.689   0.041  0.00  0.00     0.036 A 
ATOM     15  C   UNL d   1       2.938   7.324  -0.532  0.00  0.00     0.056 A 
ATOM     16  C   UNL d   1       2.998   8.721  -0.600  0.00  0.00     0.074 A 
ATOM     17 CL   UNL d   1       4.369   9.478  -1.316  0.00  0.00    -0.081 Cl
ATOM     18  C   UNL d   1       1.956   9.488  -0.092  0.00  0.00     0.138 A 
ATOM     19  C   UNL d   1       0.845   8.871   0.476  0.00  0.00     0.046 A 
ATOM     20  F   UNL d   1       1.993  10.826  -0.146  0.00  0.00    -0.204 F 
ATOM     21  C   UNL d   1       0.781   7.474   0.538  0.00  0.00     0.032 A 
ENDBRANCH   2  14
TORSDOF 4
