REMARK  4 active torsions:
REMARK  status: ('A' for Active; 'I' for Inactive)
REMARK    1  A    between atoms: C_2  and  C_1 
REMARK    2  A    between atoms: O_6  and  C_2 
REMARK    3  A    between atoms: C_9  and  C_3 
REMARK    4  A    between atoms: C_8  and  O_6 
ROOT
ATOM      1  C   UNL d   1       1.070  -0.026   0.022  0.00  0.00     0.120 C 
ATOM      2  C   UNL d   1       0.308   0.775  -0.752  0.00  0.00     0.040 C 
ATOM      3  C   UNL d   1       0.505  -0.954   0.945  0.00  0.00     0.105 C 
ATOM      4  N   UNL d   1      -0.005  -1.687   1.685  0.00  0.00    -0.191 NA
ENDROOT
BRANCH   1   5
ATOM      5  C   UNL d   1       2.542   0.124  -0.099  0.00  0.00     0.304 C 
ATOM      6  O   UNL d   1       3.069   1.000  -0.773  0.00  0.00    -0.258 OA
BRANCH   5   7
ATOM      7  O   UNL d   1       3.205  -0.814   0.624  0.00  0.00    -0.307 OA
BRANCH   7   8
ATOM      8  C   UNL d   1       4.661  -0.798   0.696  0.00  0.00     0.060 C 
ATOM      9  C   UNL d   1       5.176   0.511   1.314  0.00  0.00     0.046 C 
ATOM     10  C   UNL d   1       5.035  -1.960   1.628  0.00  0.00     0.046 C 
ATOM     11  C   UNL d   1       5.299  -1.054  -0.675  0.00  0.00     0.046 C 
ENDBRANCH   7   8
ENDBRANCH   5   7
ENDBRANCH   1   5
BRANCH   2  12
ATOM     12  C   UNL d   1      -1.159   0.788  -0.720  0.00  0.00    -0.035 A 
ATOM     13  C   UNL d   1      -1.829   1.666   0.141  0.00  0.00     0.013 A 
ATOM     14  C   UNL d   1      -3.221   1.625   0.241  0.00  0.00     0.024 A 
ATOM     15  C   UNL d   1      -3.945   0.712  -0.523  0.00  0.00     0.034 A 
ATOM     16  C   UNL d   1      -3.288  -0.154  -1.396  0.00  0.00     0.024 A 
ATOM     17 CL   UNL d   1      -5.658   0.645  -0.380  0.00  0.00    -0.084 Cl
ATOM     18  C   UNL d   1      -1.894  -0.115  -1.497  0.00  0.00     0.013 A 
ENDBRANCH   2  12
TORSDOF 4
