REMARK  2 active torsions:
REMARK  status: ('A' for Active; 'I' for Inactive)
REMARK    1  A    between atoms: S_4  and  C_1 
REMARK    2  A    between atoms: C_8  and  C_3 
ROOT
ATOM      1  C   UNL d   1       0.308   1.148   0.070  0.00  0.00     0.166 A 
ATOM      2  C   UNL d   1      -0.391  -0.040   0.101  0.00  0.00     0.113 A 
ATOM      3  C   UNL d   1       0.578  -1.081  -0.005  0.00  0.00     0.083 A 
ATOM      4  N   UNL d   1       1.807  -0.543  -0.080  0.00  0.00    -0.297 N 
ATOM      5  HN  UNL d   1       2.695  -1.037  -0.166  1.00  0.00     0.187 HD
ATOM      6  N   UNL d   1       1.617   0.781  -0.015  0.00  0.00    -0.288 N 
ATOM      7  C   UNL d   1      -1.810  -0.141   0.189  0.00  0.00     0.105 C 
ATOM      8  N   UNL d   1      -2.963  -0.202   0.276  0.00  0.00    -0.191 NA
ATOM      9  H   UNL d   1       2.425   1.400  -0.059  0.00  0.00     0.188 HD
ENDROOT
BRANCH   1  10
ATOM     10  S   UNL d   1      -0.119   2.845   0.036  0.00  0.00     0.190 S 
ATOM     11  O   UNL d   1       1.158   3.521   0.133  0.00  0.00    -0.221 OA
ATOM     12  O   UNL d   1      -0.980   2.968  -1.117  0.00  0.00    -0.221 OA
ATOM     13  C   UNL d   1      -1.049   3.125   1.517  0.00  0.00     0.168 C 
ENDBRANCH   1  10
BRANCH   3  14
ATOM     14  C   UNL d   1       0.376  -2.537  -0.107  0.00  0.00     0.015 A 
ATOM     15  C   UNL d   1       1.251  -3.486   0.457  0.00  0.00     0.046 A 
ATOM     16 CL   UNL d   1       2.608  -3.072   1.452  0.00  0.00    -0.083 Cl
ATOM     17  C   UNL d   1       1.030  -4.860   0.269  0.00  0.00     0.025 A 
ATOM     18  C   UNL d   1      -0.071  -5.311  -0.456  0.00  0.00     0.002 A 
ATOM     19  C   UNL d   1      -0.956  -4.390  -1.000  0.00  0.00     0.001 A 
ATOM     20  C   UNL d   1      -0.728  -3.020  -0.840  0.00  0.00     0.015 A 
ENDBRANCH   3  14
TORSDOF 2
