REMARK  3 active torsions:
REMARK  status: ('A' for Active; 'I' for Inactive)
REMARK    1  A    between atoms: C_19  and  N_9 
REMARK    2  A    between atoms: C_24  and  C_19 
REMARK    3  A    between atoms: C_20  and  C_24 
ROOT
ATOM      1  C   UNL d   1       0.068  -0.745   0.079  0.00  0.00     0.101 A 
ATOM      2  C   UNL d   1       0.053   0.598   0.101  0.00  0.00     0.077 A 
ATOM      3  N   UNL d   1       1.278  -1.405  -0.037  0.00  0.00    -0.293 N 
ATOM      4  N   UNL d   1       2.473   0.633   0.008  0.00  0.00    -0.270 N 
ATOM      5  C   UNL d   1       2.509  -0.747  -0.079  0.00  0.00     0.332 A 
ATOM      6  C   UNL d   1       1.310   1.366   0.084  0.00  0.00     0.262 A 
ATOM      7  N   UNL d   1      -1.148  -1.415   0.172  0.00  0.00    -0.252 NA
ATOM      8  C   UNL d   1      -1.216   1.402   0.105  0.00  0.00     0.321 C 
ATOM      9  N   UNL d   1      -2.407   0.643  -0.332  0.00  0.00     0.106 N 
ATOM     10  C   UNL d   1      -2.377  -0.652   0.334  0.00  0.00     0.368 C 
ATOM     11  O   UNL d   1       3.571  -1.369  -0.177  0.00  0.00    -0.246 OA
ATOM     12  O   UNL d   1       1.280   2.595   0.147  0.00  0.00    -0.267 OA
ATOM     13  C   UNL d   1       1.347  -2.860  -0.080  0.00  0.00     0.162 C 
ATOM     14  C   UNL d   1       3.716   1.379   0.017  0.00  0.00     0.164 C 
ATOM     15  H   UNL d   1      -1.232  -2.118  -0.557  0.00  0.00     0.130 HD
ENDROOT
BRANCH   9  16
ATOM     16  C   UNL d   1      -3.660   1.369  -0.065  0.00  0.00     0.279 C 
BRANCH  16  17
ATOM     17  C   UNL d   1      -3.769   2.667  -0.886  0.00  0.00     0.069 C 
BRANCH  17  18
ATOM     18  C   UNL d   1      -5.048   3.421  -0.619  0.00  0.00    -0.055 A 
ATOM     19  C   UNL d   1      -5.114   4.346   0.435  0.00  0.00     0.032 A 
ATOM     20  C   UNL d   1      -6.283   5.078   0.668  0.00  0.00     0.056 A 
ATOM     21 CL   UNL d   1      -6.275   6.207   1.977  0.00  0.00    -0.083 Cl
ATOM     22  C   UNL d   1      -7.399   4.884  -0.150  0.00  0.00     0.055 A 
ATOM     23  C   UNL d   1      -7.343   3.953  -1.193  0.00  0.00     0.026 A 
ATOM     24 CL   UNL d   1      -8.872   5.761   0.066  0.00  0.00    -0.083 Cl
ATOM     25  C   UNL d   1      -6.174   3.224  -1.425  0.00  0.00     0.009 A 
ENDBRANCH  17  18
ENDBRANCH  16  17
ENDBRANCH   9  16
TORSDOF 3
