REMARK  6 active torsions:
REMARK  status: ('A' for Active; 'I' for Inactive)
REMARK       I    between atoms: N_5  and  C_1 
REMARK    1  A    between atoms: C_7  and  C_1 
REMARK    2  A    between atoms: C_4  and  C_6 
REMARK    3  A    between atoms: C_13  and  N_5 
REMARK    4  A    between atoms: C_12  and  C_7 
REMARK    5  A    between atoms: C_20  and  C_17 
REMARK    6  A    between atoms: C_25  and  C_20 
ROOT
ATOM      1  C   UNL d   1       0.950  -0.210  -0.164  0.00  0.00     0.230 C 
ATOM      2  N   UNL d   1       0.500   0.932  -0.814  0.00  0.00    -0.327 N 
ATOM      3  O   UNL d   1       1.998  -0.804  -0.417  0.00  0.00    -0.272 OA
ATOM      4  H   UNL d   1      -0.305   1.401  -0.427  0.00  0.00     0.169 HD
ENDROOT
BRANCH   1   5
ATOM      5  C   UNL d   1       0.074  -0.694   0.998  0.00  0.00     0.107 C 
ATOM      6  C   UNL d   1      -1.429  -0.645   0.718  0.00  0.00     0.025 C 
BRANCH   5   7
ATOM      7  C   UNL d   1       0.410  -0.022   2.318  0.00  0.00    -0.045 A 
ATOM      8  C   UNL d   1       0.291   1.362   2.496  0.00  0.00     0.008 A 
ATOM      9  C   UNL d   1       0.494   1.942   3.749  0.00  0.00     0.007 A 
ATOM     10  C   UNL d   1       0.822   1.153   4.856  0.00  0.00    -0.058 A 
ATOM     11  C   UNL d   1       0.984  -0.224   4.676  0.00  0.00     0.007 A 
ATOM     12  C   UNL d   1       0.787  -0.805   3.420  0.00  0.00     0.008 A 
BRANCH  10  13
ATOM     13  C   UNL d   1       0.926   1.786   6.223  0.00  0.00     0.042 C 
BRANCH  13  14
ATOM     14  C   UNL d   1       2.271   1.591   6.944  0.00  0.00    -0.019 C 
ATOM     15  C   UNL d   1       3.433   2.234   6.184  0.00  0.00     0.010 C 
ATOM     16  C   UNL d   1       2.183   2.187   8.352  0.00  0.00     0.010 C 
ENDBRANCH  13  14
ENDBRANCH  10  13
ENDBRANCH   5   7
ENDBRANCH   1   5
BRANCH   2  17
ATOM     17  C   UNL d   1       1.165   1.614  -1.858  0.00  0.00     0.035 A 
ATOM     18  C   UNL d   1       2.221   1.056  -2.579  0.00  0.00     0.043 A 
ATOM     19  C   UNL d   1       2.908   1.780  -3.565  0.00  0.00     0.001 A 
ATOM     20  C   UNL d   1       2.498   3.092  -3.833  0.00  0.00     0.014 A 
ATOM     21  C   UNL d   1       1.420   3.652  -3.144  0.00  0.00     0.003 A 
ATOM     22  C   UNL d   1       0.749   2.913  -2.166  0.00  0.00     0.029 A 
BRANCH  19  23
ATOM     23  C   UNL d   1       4.021   1.156  -4.263  0.00  0.00     0.102 A 
ATOM     24  O   UNL d   1       4.684   1.897  -5.207  0.00  0.00    -0.304 OA
ATOM     25  C   UNL d   1       5.653   1.060  -5.664  0.00  0.00     0.233 A 
ATOM     26  N   UNL d   1       5.673  -0.134  -5.114  0.00  0.00    -0.354 N 
ATOM     27  C   UNL d   1       4.638  -0.082  -4.216  0.00  0.00     0.127 A 
ATOM     28  HN  UNL d   1       6.305  -0.910  -5.309  1.00  0.00     0.166 HD
ENDBRANCH  19  23
ENDBRANCH   2  17
TORSDOF 6
