REMARK  5 active torsions:
REMARK  status: ('A' for Active; 'I' for Inactive)
REMARK    1  A    between atoms: S_7  and  C_1 
REMARK    2  A    between atoms: C_13  and  C_5 
REMARK    3  A    between atoms: C_9  and  S_7 
REMARK    4  A    between atoms: C_10  and  C_8 
REMARK    5  A    between atoms: O_17  and  C_10 
ROOT
ATOM      1  C   UNL d   1      -1.567   1.241   0.310  0.00  0.00     0.110 A 
ATOM      2  N   UNL d   1      -0.265   0.748   0.225  0.00  0.00    -0.300 N 
ATOM      3  N   UNL d   1      -1.631  -1.022   0.074  0.00  0.00    -0.339 N 
ATOM      4  HN  UNL d   1      -1.978  -1.978  -0.010  1.00  0.00     0.167 HD
ATOM      5  C   UNL d   1      -2.383   0.129   0.184  0.00  0.00     0.079 A 
ATOM      6  C   UNL d   1      -0.376  -0.637   0.101  0.00  0.00     0.113 A 
ATOM      7  C   UNL d   1       0.979   1.393   0.258  0.00  0.00     0.099 A 
ATOM      8  C   UNL d   1       0.824  -1.397   0.004  0.00  0.00     0.049 A 
ATOM      9  C   UNL d   1       2.110   0.669   0.170  0.00  0.00     0.018 A 
ATOM     10  C   UNL d   1       2.017  -0.774   0.035  0.00  0.00     0.005 A 
ENDROOT
BRANCH   1  11
ATOM     11  S   UNL d   1      -1.889   2.965   0.394  0.00  0.00    -0.069 SA
BRANCH  11  12
ATOM     12  C   UNL d   1      -2.143   3.233   2.161  0.00  0.00     0.023 A 
ATOM     13  C   UNL d   1      -3.058   4.167   2.707  0.00  0.00     0.056 A 
ATOM     14  C   UNL d   1      -3.071   4.387   4.105  0.00  0.00     0.019 A 
ATOM     15  C   UNL d   1      -2.205   3.712   4.960  0.00  0.00     0.001 A 
ATOM     16  C   UNL d   1      -1.317   2.789   4.434  0.00  0.00     0.001 A 
ATOM     17  C   UNL d   1      -1.290   2.556   3.058  0.00  0.00     0.020 A 
BRANCH  13  18
ATOM     18  C   UNL d   1      -4.029   5.028   1.968  0.00  0.00     0.294 C 
ATOM     19  O   UNL d   1      -4.439   6.083   2.433  0.00  0.00    -0.259 OA
BRANCH  18  20
ATOM     20  O   UNL d   1      -4.468   4.478   0.813  0.00  0.00    -0.322 OA
ATOM     21  C   UNL d   1      -5.422   5.287   0.115  0.00  0.00     0.213 C 
ENDBRANCH  18  20
ENDBRANCH  13  18
ENDBRANCH  11  12
ENDBRANCH   1  11
BRANCH   5  22
ATOM     22  C   UNL d   1      -3.837   0.071   0.075  0.00  0.00    -0.007 A 
ATOM     23  C   UNL d   1      -4.681   0.950   0.754  0.00  0.00     0.014 A 
ATOM     24  C   UNL d   1      -6.068   0.895   0.582  0.00  0.00     0.001 A 
ATOM     25  C   UNL d   1      -6.627  -0.071  -0.250  0.00  0.00     0.000 A 
ATOM     26  C   UNL d   1      -5.806  -0.986  -0.899  0.00  0.00     0.001 A 
ATOM     27  C   UNL d   1      -4.418  -0.916  -0.736  0.00  0.00     0.014 A 
ENDBRANCH   5  22
TORSDOF 5
