REMARK  6 active torsions:
REMARK  status: ('A' for Active; 'I' for Inactive)
REMARK    1  A    between atoms: C_2  and  C_1 
REMARK       I    between atoms: N_5  and  C_2 
REMARK       I    between atoms: C_4  and  N_10 
REMARK    2  A    between atoms: C_12  and  C_4 
REMARK    3  A    between atoms: N_10  and  N_5 
REMARK    4  A    between atoms: C_7  and  C_18 
REMARK    5  A    between atoms: O_22  and  C_12 
REMARK    6  A    between atoms: N_13  and  O_22 
ROOT
ATOM      1  C   UNL d   1      -1.403  -5.913   0.125  0.00  0.00     0.262 C 
ATOM      2  N   UNL d   1      -1.342  -4.540   0.096  0.00  0.00    -0.265 N 
ATOM      3  O   UNL d   1      -0.370  -6.573   0.263  0.00  0.00    -0.269 OA
ATOM      4  H   UNL d   1      -0.453  -4.087   0.303  0.00  0.00     0.190 HD
ENDROOT
BRANCH   1   5
ATOM      5  C   UNL d   1      -2.771  -6.578   0.006  0.00  0.00     0.305 C 
BRANCH   5   6
ATOM      6  O   UNL d   1      -3.165  -6.759  -1.350  0.00  0.00    -0.272 OA
BRANCH   6   7
ATOM      7  N   UNL d   1      -4.433  -7.370  -1.350  0.00  0.00    -0.277 N 
ATOM      8  C   UNL d   1      -4.774  -7.691  -2.560  0.00  0.00     0.127 C 
ATOM      9  HN  UNL d   1      -5.001  -7.537  -0.519  1.00  0.00     0.193 HD
BRANCH   8  10
ATOM     10  C   UNL d   1      -6.078  -8.342  -2.840  0.00  0.00     0.003 A 
ATOM     11  C   UNL d   1      -6.503  -8.629  -4.145  0.00  0.00     0.047 A 
ATOM     12  C   UNL d   1      -7.762  -9.204  -4.363  0.00  0.00     0.048 A 
ATOM     13 CL   UNL d   1      -5.540  -8.297  -5.540  0.00  0.00    -0.083 Cl
ATOM     14  C   UNL d   1      -8.591  -9.498  -3.282  0.00  0.00     0.035 A 
ATOM     15  C   UNL d   1      -8.172  -9.236  -1.981  0.00  0.00     0.025 A 
ATOM     16 CL   UNL d   1     -10.146 -10.182  -3.555  0.00  0.00    -0.084 Cl
ATOM     17  C   UNL d   1      -6.918  -8.661  -1.761  0.00  0.00     0.016 A 
ENDBRANCH   8  10
ENDBRANCH   6   7
ENDBRANCH   5   6
ENDBRANCH   1   5
BRANCH   2  18
ATOM     18  N   UNL d   1      -2.450  -3.718  -0.097  0.00  0.00    -0.263 N 
ATOM     19  C   UNL d   1      -2.450  -2.454   0.445  0.00  0.00     0.271 C 
ATOM     20  O   UNL d   1      -1.527  -2.047   1.146  0.00  0.00    -0.266 OA
ATOM     21  H   UNL d   1      -3.109  -3.990  -0.826  0.00  0.00     0.190 HD
BRANCH  19  22
ATOM     22  C   UNL d   1      -3.630  -1.559   0.168  0.00  0.00     0.055 A 
ATOM     23  C   UNL d   1      -4.764  -1.895  -0.597  0.00  0.00     0.051 A 
ATOM     24  C   UNL d   1      -5.824  -0.983  -0.734  0.00  0.00     0.048 A 
ATOM     25 CL   UNL d   1      -4.984  -3.396  -1.430  0.00  0.00    -0.083 Cl
ATOM     26  C   UNL d   1      -5.764   0.264  -0.122  0.00  0.00     0.035 A 
ATOM     27  C   UNL d   1      -4.647   0.624   0.620  0.00  0.00     0.025 A 
ATOM     28 CL   UNL d   1      -7.080   1.358  -0.283  0.00  0.00    -0.084 Cl
ATOM     29  C   UNL d   1      -3.590  -0.281   0.762  0.00  0.00     0.020 A 
ENDBRANCH  19  22
ENDBRANCH   2  18
TORSDOF 6
