REMARK  4 active torsions:
REMARK  status: ('A' for Active; 'I' for Inactive)
REMARK    1  A    between atoms: C_8  and  C_1 
REMARK    2  A    between atoms: O_12  and  C_6 
REMARK    3  A    between atoms: C_18  and  C_9 
REMARK    4  A    between atoms: O_17  and  C_18 
ROOT
ATOM      1  C   UNL d   1       1.022  -1.131   0.024  0.00  0.00     0.117 A 
ATOM      2  N   UNL d   1      -0.323  -1.143  -0.006  0.00  0.00    -0.323 N 
ATOM      3  HN  UNL d   1      -0.863  -2.008  -0.027  1.00  0.00     0.169 HD
ATOM      4  N   UNL d   1       1.775  -0.011   0.037  0.00  0.00    -0.343 N 
ATOM      5  HN  UNL d   1       2.794  -0.060   0.044  1.00  0.00     0.167 HD
ATOM      6  C   UNL d   1      -0.898   0.062  -0.007  0.00  0.00     0.143 A 
ATOM      7  C   UNL d   1      -0.244   1.263   0.017  0.00  0.00     0.083 A 
ATOM      8  C   UNL d   1       1.131   1.179   0.042  0.00  0.00     0.038 A 
ENDROOT
BRANCH   1   9
ATOM      9  C   UNL d   1       1.729  -2.429   0.031  0.00  0.00     0.008 A 
ATOM     10  C   UNL d   1       1.029  -3.652  -0.021  0.00  0.00     0.017 A 
ATOM     11  C   UNL d   1       1.701  -4.880  -0.019  0.00  0.00     0.025 A 
ATOM     12  C   UNL d   1       3.090  -4.909   0.038  0.00  0.00     0.034 A 
ATOM     13  C   UNL d   1       3.812  -3.722   0.094  0.00  0.00     0.025 A 
ATOM     14 CL   UNL d   1       3.918  -6.416   0.038  0.00  0.00    -0.084 Cl
ATOM     15  C   UNL d   1       3.136  -2.497   0.090  0.00  0.00     0.017 A 
ENDBRANCH   1   9
BRANCH   6  16
ATOM     16  O   UNL d   1      -2.255   0.027  -0.046  0.00  0.00    -0.346 OA
ATOM     17  H   UNL d   1      -2.410  -0.935  -0.045  0.00  0.00     0.219 HD
ENDBRANCH   6  16
BRANCH   8  18
ATOM     18  C   UNL d   1       1.978   2.427   0.037  0.00  0.00     0.224 C 
BRANCH  18  19
ATOM     19  O   UNL d   1       1.657   3.248   1.161  0.00  0.00    -0.390 OA
ATOM     20  C   UNL d   1       2.467   4.415   1.196  0.00  0.00     0.201 C 
ENDBRANCH  18  19
ENDBRANCH   8  18
TORSDOF 4
