REMARK  9 active torsions:
REMARK  status: ('A' for Active; 'I' for Inactive)
REMARK    1  A    between atoms: C_8  and  C_1 
REMARK    2  A    between atoms: C_11  and  C_1 
REMARK    3  A    between atoms: C_2  and  C_7 
REMARK    4  A    between atoms: C_3  and  C_6 
REMARK    5  A    between atoms: N_12  and  N_4 
REMARK    6  A    between atoms: C_16  and  C_8 
REMARK    7  A    between atoms: C_9  and  C_10 
REMARK       I    between atoms: C_10  and  N_12 
REMARK    8  A    between atoms: O_26  and  C_11 
REMARK    9  A    between atoms: O_27  and  C_16 
ROOT
ATOM      1  C   UNL d   1      -0.072  -3.085  -1.727  0.00  0.00     0.270 C 
ATOM      2  N   UNL d   1       0.698  -2.297  -0.890  0.00  0.00    -0.266 N 
ATOM      3  O   UNL d   1      -1.290  -2.993  -1.856  0.00  0.00    -0.266 OA
ATOM      4  H   UNL d   1       1.712  -2.385  -0.891  0.00  0.00     0.190 HD
ENDROOT
BRANCH   1   5
ATOM      5  C   UNL d   1       0.649  -4.161  -2.466  0.00  0.00     0.035 A 
ATOM      6  C   UNL d   1      -0.071  -5.323  -2.773  0.00  0.00     0.033 A 
ATOM      7  C   UNL d   1       0.519  -6.373  -3.491  0.00  0.00     0.049 A 
ATOM      8  C   UNL d   1       1.856  -6.246  -3.898  0.00  0.00     0.032 A 
ATOM      9  C   UNL d   1       2.593  -5.083  -3.614  0.00  0.00     0.049 A 
ATOM     10  C   UNL d   1       1.979  -4.041  -2.892  0.00  0.00     0.033 A 
BRANCH   7  11
ATOM     11  C   UNL d   1      -0.295  -7.604  -3.814  0.00  0.00     0.417 C 
ATOM     12  F   UNL d   1       0.370  -8.501  -4.593  0.00  0.00    -0.166 F 
ATOM     13  F   UNL d   1      -0.669  -8.285  -2.696  0.00  0.00    -0.166 F 
ATOM     14  F   UNL d   1      -1.444  -7.310  -4.481  0.00  0.00    -0.166 F 
ENDBRANCH   7  11
BRANCH   9  15
ATOM     15  C   UNL d   1       4.023  -4.934  -4.087  0.00  0.00     0.417 C 
ATOM     16  F   UNL d   1       4.457  -5.982  -4.840  0.00  0.00    -0.166 F 
ATOM     17  F   UNL d   1       4.204  -3.823  -4.850  0.00  0.00    -0.166 F 
ATOM     18  F   UNL d   1       4.900  -4.829  -3.051  0.00  0.00    -0.166 F 
ENDBRANCH   9  15
ENDBRANCH   1   5
BRANCH   2  19
ATOM     19  N   UNL d   1       0.152  -1.185  -0.325  0.00  0.00    -0.296 N 
ATOM     20  C   UNL d   1       0.720  -0.631   0.709  0.00  0.00     0.110 C 
ATOM     21  HN  UNL d   1      -0.703  -0.786  -0.710  1.00  0.00     0.187 HD
BRANCH  20  22
ATOM     22  C   UNL d   1       1.827  -1.154   1.588  0.00  0.00     0.176 C 
BRANCH  22  23
ATOM     23  C   UNL d   1       2.997  -1.829   0.948  0.00  0.00     0.264 C 
ATOM     24  O   UNL d   1       3.194  -1.918  -0.258  0.00  0.00    -0.265 OA
BRANCH  23  25
ATOM     25  O   UNL d   1       3.792  -2.384   1.903  0.00  0.00    -0.326 OA
ATOM     26  C   UNL d   1       4.884  -3.161   1.401  0.00  0.00     0.213 C 
ENDBRANCH  23  25
ENDBRANCH  22  23
ENDBRANCH  20  22
BRANCH  20  27
ATOM     27  C   UNL d   1       0.053   0.632   1.246  0.00  0.00     0.307 C 
ATOM     28  O   UNL d   1      -0.078   0.821   2.443  0.00  0.00    -0.258 OA
BRANCH  27  29
ATOM     29  O   UNL d   1      -0.293   1.457   0.241  0.00  0.00    -0.322 OA
ATOM     30  C   UNL d   1      -1.007   2.620   0.660  0.00  0.00     0.213 C 
ENDBRANCH  27  29
ENDBRANCH  20  27
ENDBRANCH   2  19
TORSDOF 9
