REMARK  3 active torsions:
REMARK  status: ('A' for Active; 'I' for Inactive)
REMARK    1  A    between atoms: C_2  and  N_1 
REMARK    2  A    between atoms: O_10  and  C_6 
REMARK    3  A    between atoms: C_11  and  O_10 
ROOT
ATOM      1  C   UNL d   1       0.516  -1.260  -0.353  0.00  0.00     0.118 A 
ATOM      2  N   UNL d   1      -0.447  -3.466  -0.366  0.00  0.00    -0.344 N 
ATOM      3  HN  UNL d   1      -0.665  -4.340   0.112  1.00  0.00     0.167 HD
ATOM      4  C   UNL d   1      -0.815  -3.254  -1.654  0.00  0.00     0.148 A 
ATOM      5  C   UNL d   1       0.221  -2.468   0.259  0.00  0.00     0.126 A 
ATOM      6  C   UNL d   1       0.090  -1.041  -1.666  0.00  0.00     0.041 A 
ATOM      7  C   UNL d   1      -0.596  -2.060  -2.327  0.00  0.00     0.059 A 
ENDROOT
BRANCH   4   8
ATOM      8  O   UNL d   1      -1.457  -4.263  -2.357  0.00  0.00    -0.294 OA
BRANCH   8   9
ATOM      9  C   UNL d   1      -1.114  -5.565  -2.066  0.00  0.00     0.077 A 
ATOM     10  C   UNL d   1      -2.136  -6.514  -2.145  0.00  0.00     0.039 A 
ATOM     11  C   UNL d   1      -1.862  -7.860  -1.890  0.00  0.00     0.026 A 
ATOM     12  C   UNL d   1      -0.565  -8.255  -1.565  0.00  0.00     0.034 A 
ATOM     13  C   UNL d   1       0.465  -7.318  -1.511  0.00  0.00     0.026 A 
ATOM     14 CL   UNL d   1      -0.228  -9.909  -1.237  0.00  0.00    -0.084 Cl
ATOM     15  C   UNL d   1       0.194  -5.975  -1.779  0.00  0.00     0.039 A 
ENDBRANCH   8   9
ENDBRANCH   4   8
BRANCH   1  16
ATOM     16  N   UNL d   1       1.278  -0.252   0.371  0.00  0.00    -0.114 N 
ATOM     17  O   UNL d   1       1.653  -0.527   1.520  0.00  0.00    -0.532 OA
ATOM     18  O   UNL d   1       1.512   0.815  -0.209  0.00  0.00    -0.532 OA
ENDBRANCH   1  16
TORSDOF 3
