REMARK  2 active torsions:
REMARK  status: ('A' for Active; 'I' for Inactive)
REMARK    1  A    between atoms: C_7  and  C_8 
REMARK    2  A    between atoms: O_15  and  C_7 
ROOT
ATOM      1  N   UNL d   1      -0.035  -1.401   0.003  0.00  0.00    -0.353 N 
ATOM      2  HN  UNL d   1      -0.042  -2.421  -0.009  1.00  0.00     0.166 HD
ATOM      3  N   UNL d   1      -0.014   1.407   0.010  0.00  0.00    -0.353 N 
ATOM      4  HN  UNL d   1      -0.008   2.427   0.002  1.00  0.00     0.166 HD
ATOM      5  C   UNL d   1      -1.179  -0.696   0.013  0.00  0.00     0.060 A 
ATOM      6  C   UNL d   1      -1.167   0.716   0.019  0.00  0.00     0.059 A 
ATOM      7  C   UNL d   1      -3.608  -0.670   0.076  0.00  0.00     0.040 A 
ATOM      8  C   UNL d   1      -2.395  -1.366   0.032  0.00  0.00     0.050 A 
ATOM      9  C   UNL d   1       1.121  -0.712   0.012  0.00  0.00     0.059 A 
ATOM     10  C   UNL d   1       1.132   0.700   0.013  0.00  0.00     0.059 A 
ATOM     11  C   UNL d   1      -3.599   0.726   0.066  0.00  0.00     0.021 A 
ATOM     12  C   UNL d   1      -2.376   1.402   0.041  0.00  0.00     0.033 A 
ATOM     13  C   UNL d   1       2.330  -1.399   0.034  0.00  0.00     0.032 A 
ATOM     14  C   UNL d   1       2.353   1.365   0.031  0.00  0.00     0.032 A 
ATOM     15  C   UNL d   1       3.550  -0.721   0.067  0.00  0.00     0.002 A 
ATOM     16  C   UNL d   1       3.561   0.667   0.064  0.00  0.00     0.002 A 
ENDROOT
BRANCH   7  17
ATOM     17  C   UNL d   1      -4.867  -1.460   0.086  0.00  0.00     0.176 C 
ATOM     18  O   UNL d   1      -4.955  -2.560  -0.435  0.00  0.00    -0.646 OA
BRANCH  17  19
ATOM     19  O   UNL d   1      -5.881  -0.872   0.747  0.00  0.00    -0.773 OA
ATOM     20  H   UNL d   1      -5.648  -0.087   1.277  0.00  0.00     0.167 HD
ENDBRANCH  17  19
ENDBRANCH   7  17
TORSDOF 2
