REMARK  3 active torsions:
REMARK  status: ('A' for Active; 'I' for Inactive)
REMARK    1  A    between atoms: C_8  and  S_1 
REMARK    2  A    between atoms: N_9  and  S_1 
REMARK    3  A    between atoms: C_17  and  N_9 
ROOT
ATOM      1  C   UNL d   1      -0.752   5.078  -3.264  0.00  0.00     0.199 A 
ATOM      2  C   UNL d   1      -0.299   6.431  -3.588  0.00  0.00     0.066 A 
ATOM      3  C   UNL d   1       0.264   4.138  -2.779  0.00  0.00     0.051 A 
ATOM      4  C   UNL d   1       1.041   6.747  -3.446  0.00  0.00     0.162 A 
ATOM      5  O   UNL d   1       1.989   5.842  -3.023  0.00  0.00    -0.292 OA
ATOM      6  C   UNL d   1       1.582   4.577  -2.685  0.00  0.00     0.092 A 
ATOM      7  N   UNL d   1       1.533   7.978  -3.718  0.00  0.00    -0.346 N 
ATOM      8  HN  UNL d   1       2.524   8.192  -3.607  1.00  0.00     0.167 HD
ATOM      9  C   UNL d   1      -0.092   2.837  -2.411  0.00  0.00     0.048 A 
ATOM     10  C   UNL d   1       0.886   1.980  -1.919  0.00  0.00     0.043 A 
ATOM     11  O   UNL d   1      -1.922   4.741  -3.375  0.00  0.00    -0.286 OA
ATOM     12  C   UNL d   1       2.562   3.700  -2.220  0.00  0.00     0.040 A 
ATOM     13  C   UNL d   1       2.212   2.405  -1.825  0.00  0.00     0.033 A 
ATOM     14  C   UNL d   1      -1.190   7.407  -4.036  0.00  0.00     0.021 A 
ATOM     15  C   UNL d   1       0.652   8.913  -4.143  0.00  0.00     0.090 A 
ATOM     16  C   UNL d   1      -0.703   8.678  -4.318  0.00  0.00     0.018 A 
ENDROOT
BRANCH  10  17
ATOM     17  N   UNL d   1       0.536   0.675  -1.497  0.00  0.00    -0.281 N 
ATOM     18  H   UNL d   1       0.127   0.024  -2.165  0.00  0.00     0.179 HD
BRANCH  17  19
ATOM     19  S   UNL d   1       0.137   0.381   0.110  0.00  0.00     0.263 S 
ATOM     20  O   UNL d   1      -0.339  -0.985   0.164  0.00  0.00    -0.200 OA
ATOM     21  O   UNL d   1       1.216   0.838   0.957  0.00  0.00    -0.200 OA
BRANCH  19  22
ATOM     22  C   UNL d   1      -1.269   1.437   0.405  0.00  0.00     0.081 A 
ATOM     23  C   UNL d   1      -1.074   2.704   0.967  0.00  0.00     0.050 A 
ATOM     24  C   UNL d   1      -2.176   3.522   1.227  0.00  0.00     0.057 A 
ATOM     25 CL   UNL d   1      -1.871   5.087   1.895  0.00  0.00    -0.083 Cl
ATOM     26  C   UNL d   1      -3.472   3.066   0.950  0.00  0.00     0.055 A 
ATOM     27  C   UNL d   1      -3.659   1.788   0.407  0.00  0.00     0.027 A 
ATOM     28 CL   UNL d   1      -4.878   4.019   1.263  0.00  0.00    -0.083 Cl
ATOM     29  C   UNL d   1      -2.559   0.969   0.136  0.00  0.00     0.027 A 
ENDBRANCH  19  22
ENDBRANCH  17  19
ENDBRANCH  10  17
TORSDOF 3
