REMARK  8 active torsions:
REMARK  status: ('A' for Active; 'I' for Inactive)
REMARK    1  A    between atoms: N_2  and  C_1 
REMARK    2  A    between atoms: C_3  and  C_1 
REMARK    3  A    between atoms: C_4  and  C_1 
REMARK    4  A    between atoms: N_5  and  C_1 
REMARK       I    between atoms: C_6  and  N_2 
REMARK    5  A    between atoms: C_14  and  N_5 
REMARK    6  A    between atoms: O_15  and  C_6 
REMARK    7  A    between atoms: C_16  and  C_14 
REMARK    8  A    between atoms: C_17  and  O_15 
ROOT
ATOM      1  C   UNL d   1       0.903   0.093  -0.012  0.00  0.00     0.427 C 
ENDROOT
BRANCH   1   2
ATOM      2  N   UNL d   1       0.329   1.415   0.354  0.00  0.00    -0.286 N 
ATOM      3  C   UNL d   1       0.101   1.968   1.562  0.00  0.00     0.363 C 
ATOM      4  O   UNL d   1      -0.637   2.945   1.648  0.00  0.00    -0.238 OA
ATOM      5  H   UNL d   1      -0.151   1.919  -0.380  0.00  0.00     0.168 HD
BRANCH   3   6
ATOM      6  O   UNL d   1       0.746   1.383   2.590  0.00  0.00    -0.304 OA
BRANCH   6   7
ATOM      7  C   UNL d   1       0.530   2.019   3.860  0.00  0.00     0.176 C 
ATOM      8  C   UNL d   1       1.281   3.340   3.959  0.00  0.00     0.034 C 
ENDBRANCH   6   7
ENDBRANCH   3   6
ENDBRANCH   1   2
BRANCH   1   9
ATOM      9  C   UNL d   1       0.281  -0.318  -1.386  0.00  0.00     0.452 C 
ATOM     10  F   UNL d   1       0.201   0.771  -2.203  0.00  0.00    -0.166 F 
ATOM     11  F   UNL d   1       1.039  -1.229  -2.036  0.00  0.00    -0.166 F 
ATOM     12  F   UNL d   1      -0.974  -0.802  -1.284  0.00  0.00    -0.166 F 
ENDBRANCH   1   9
BRANCH   1  13
ATOM     13  C   UNL d   1       0.454  -1.094   0.915  0.00  0.00     0.452 C 
ATOM     14  F   UNL d   1      -0.774  -0.890   1.450  0.00  0.00    -0.166 F 
ATOM     15  F   UNL d   1       0.410  -2.274   0.250  0.00  0.00    -0.166 F 
ATOM     16  F   UNL d   1       1.310  -1.288   1.949  0.00  0.00    -0.166 F 
ENDBRANCH   1  13
BRANCH   1  17
ATOM     17  N   UNL d   1       2.393   0.265   0.005  0.00  0.00     0.136 N 
ATOM     18  H   UNL d   1       2.826  -0.650  -0.151  0.00  0.00     0.320 HD
BRANCH  17  19
ATOM     19  C   UNL d   1       2.948   1.199  -0.968  0.00  0.00     0.312 C 
BRANCH  19  20
ATOM     20  C   UNL d   1       4.462   1.117  -0.965  0.00  0.00    -0.030 A 
ATOM     21  C   UNL d   1       5.165   0.823  -2.143  0.00  0.00     0.009 A 
ATOM     22  C   UNL d   1       6.561   0.755  -2.141  0.00  0.00     0.001 A 
ATOM     23  C   UNL d   1       7.271   0.978  -0.962  0.00  0.00     0.000 A 
ATOM     24  C   UNL d   1       6.586   1.269   0.216  0.00  0.00     0.001 A 
ATOM     25  C   UNL d   1       5.191   1.342   0.215  0.00  0.00     0.009 A 
ENDBRANCH  19  20
ENDBRANCH  17  19
ENDBRANCH   1  17
TORSDOF 8
