REMARK  4 active torsions:
REMARK  status: ('A' for Active; 'I' for Inactive)
REMARK    1  A    between atoms: C_8  and  C_3 
REMARK    2  A    between atoms: C_10  and  C_7 
REMARK    3  A    between atoms: O_21  and  C_9 
REMARK    4  A    between atoms: O_23  and  C_13 
ROOT
ATOM      1  N   UNL d   1       1.589  -0.058   0.001  0.00  0.00    -0.331 N 
ATOM      2  HN  UNL d   1       2.535  -0.436  -0.046  1.00  0.00     0.168 HD
ATOM      3  C   UNL d   1       1.215   1.181   0.040  0.00  0.00     0.162 A 
ATOM      4  C   UNL d   1       0.396  -0.734   0.040  0.00  0.00     0.111 A 
ATOM      5  O   UNL d   1      -0.111   1.437   0.104  0.00  0.00    -0.256 OA
ATOM      6  C   UNL d   1      -0.742   0.230   0.115  0.00  0.00     0.316 A 
ATOM      7  C   UNL d   1       0.301  -2.069   0.006  0.00  0.00     0.047 C 
ATOM      8  O   UNL d   1      -1.936   0.043   0.181  0.00  0.00    -0.257 OA
ENDROOT
BRANCH   7   9
ATOM      9  C   UNL d   1      -0.950  -2.826   0.024  0.00  0.00    -0.031 A 
ATOM     10  C   UNL d   1      -1.547  -3.175   1.242  0.00  0.00     0.051 A 
ATOM     11  C   UNL d   1      -2.724  -3.940   1.280  0.00  0.00     0.102 A 
ATOM     12  C   UNL d   1      -3.321  -4.324   0.065  0.00  0.00     0.101 A 
ATOM     13  C   UNL d   1      -2.719  -3.966  -1.149  0.00  0.00     0.040 A 
ATOM     14  C   UNL d   1      -1.542  -3.220  -1.174  0.00  0.00     0.014 A 
BRANCH  11  15
ATOM     15  O   UNL d   1      -3.302  -4.372   2.445  0.00  0.00    -0.353 OA
ATOM     16  C   UNL d   1      -2.679  -4.017   3.672  0.00  0.00     0.210 C 
ENDBRANCH  11  15
BRANCH  12  17
ATOM     17  O   UNL d   1      -4.441  -5.098  -0.105  0.00  0.00    -0.353 OA
ATOM     18  C   UNL d   1      -5.460  -4.979   0.879  0.00  0.00     0.210 C 
ENDBRANCH  12  17
ENDBRANCH   7   9
BRANCH   3  19
ATOM     19  C   UNL d   1       2.076   2.373   0.014  0.00  0.00     0.015 A 
ATOM     20  C   UNL d   1       3.460   2.214  -0.130  0.00  0.00     0.017 A 
ATOM     21  C   UNL d   1       4.294   3.334  -0.156  0.00  0.00     0.025 A 
ATOM     22  C   UNL d   1       3.747   4.611  -0.035  0.00  0.00     0.034 A 
ATOM     23  C   UNL d   1       2.370   4.778   0.109  0.00  0.00     0.025 A 
ATOM     24 CL   UNL d   1       4.773   5.991  -0.063  0.00  0.00    -0.084 Cl
ATOM     25  C   UNL d   1       1.533   3.660   0.133  0.00  0.00     0.017 A 
ENDBRANCH   3  19
TORSDOF 4
