REMARK  8 active torsions:
REMARK  status: ('A' for Active; 'I' for Inactive)
REMARK    1  A    between atoms: C_2  and  C_1 
REMARK    2  A    between atoms: O_20  and  C_2 
REMARK    3  A    between atoms: C_3  and  N_12 
REMARK    4  A    between atoms: S_19  and  C_3 
REMARK    5  A    between atoms: N_12  and  C_4 
REMARK    6  A    between atoms: N_7  and  N_9 
REMARK    7  A    between atoms: C_11  and  C_14 
REMARK    8  A    between atoms: C_22  and  O_20 
ROOT
ATOM      1  C   UNL d   1       0.848  -0.194  -2.215  0.00  0.00     0.135 C 
ATOM      2  C   UNL d   1       0.050  -0.450  -1.159  0.00  0.00     0.119 C 
ATOM      3  C   UNL d   1       0.476  -0.447  -3.562  0.00  0.00     0.107 C 
ATOM      4  N   UNL d   1       0.168  -0.614  -4.671  0.00  0.00    -0.191 NA
ENDROOT
BRANCH   1   5
ATOM      5  C   UNL d   1       2.127   0.503  -1.926  0.00  0.00     0.305 C 
ATOM      6  O   UNL d   1       2.504   0.807  -0.802  0.00  0.00    -0.258 OA
BRANCH   5   7
ATOM      7  O   UNL d   1       2.771   0.818  -3.077  0.00  0.00    -0.317 OA
BRANCH   7   8
ATOM      8  C   UNL d   1       3.847   1.760  -2.958  0.00  0.00     0.174 C 
ATOM      9  C   UNL d   1       3.273   3.160  -3.076  0.00  0.00     0.034 C 
ENDBRANCH   7   8
ENDBRANCH   5   7
ENDBRANCH   1   5
BRANCH   2  10
ATOM     10  N   UNL d   1      -1.189  -1.044  -1.054  0.00  0.00    -0.344 N 
ATOM     11  H   UNL d   1      -1.797  -0.637  -0.352  0.00  0.00     0.167 HD
BRANCH  10  12
ATOM     12  C   UNL d   1      -1.800  -2.052  -1.768  0.00  0.00     0.158 C 
ATOM     13  N   UNL d   1      -1.313  -3.053  -2.432  0.00  0.00    -0.280 N 
ATOM     14  HN  UNL d   1      -1.889  -3.704  -2.966  1.00  0.00     0.189 HD
BRANCH  13  15
ATOM     15  N   UNL d   1       0.074  -3.155  -2.344  0.00  0.00    -0.309 N 
ATOM     16  C   UNL d   1       0.566  -4.024  -3.170  0.00  0.00     0.126 C 
ATOM     17  HN  UNL d   1       0.641  -2.604  -1.699  1.00  0.00     0.186 HD
BRANCH  16  18
ATOM     18  C   UNL d   1       1.998  -4.191  -3.241  0.00  0.00     0.021 A 
ATOM     19  S   UNL d   1       2.667  -5.354  -4.299  0.00  0.00    -0.101 SA
ATOM     20  C   UNL d   1       4.266  -4.924  -3.859  0.00  0.00     0.050 A 
ATOM     21  C   UNL d   1       4.291  -3.915  -2.921  0.00  0.00     0.008 A 
ATOM     22  C   UNL d   1       2.979  -3.503  -2.554  0.00  0.00     0.021 A 
ENDBRANCH  16  18
ENDBRANCH  13  15
BRANCH  12  23
ATOM     23  S   UNL d   1      -3.558  -1.903  -1.636  0.00  0.00    -0.097 SA
ATOM     24  C   UNL d   1      -4.100  -2.978  -2.979  0.00  0.00     0.099 C 
ENDBRANCH  12  23
ENDBRANCH  10  12
ENDBRANCH   2  10
TORSDOF 8
