REMARK  7 active torsions:
REMARK  status: ('A' for Active; 'I' for Inactive)
REMARK    1  A    between atoms: C_7  and  C_1 
REMARK    2  A    between atoms: C_8  and  C_7 
REMARK    3  A    between atoms: C_12  and  C_18 
REMARK    4  A    between atoms: O_23  and  C_12 
REMARK    5  A    between atoms: O_17  and  C_16 
REMARK    6  A    between atoms: C_18  and  O_17 
REMARK    7  A    between atoms: C_27  and  O_23 
ROOT
ATOM      1  C   UNL d   1      -1.768  -0.915   0.024  0.00  0.00     0.029 A 
ATOM      2  C   UNL d   1      -1.975   0.560   0.095  0.00  0.00     0.295 A 
ATOM      3  C   UNL d   1      -0.531  -1.456  -0.055  0.00  0.00    -0.036 A 
ATOM      4  O   UNL d   1      -0.858   1.363  -0.033  0.00  0.00    -0.274 OA
ATOM      5  C   UNL d   1       0.433   0.816  -0.071  0.00  0.00     0.092 A 
ATOM      6  C   UNL d   1       0.639  -0.559  -0.048  0.00  0.00     0.005 A 
ATOM      7  C   UNL d   1       1.481   1.738  -0.106  0.00  0.00     0.075 A 
ATOM      8  C   UNL d   1       1.966  -1.006  -0.023  0.00  0.00     0.017 A 
ATOM      9  O   UNL d   1      -3.088   1.056   0.236  0.00  0.00    -0.259 OA
ATOM     10  C   UNL d   1       2.791   1.276  -0.103  0.00  0.00     0.072 A 
ATOM     11  C   UNL d   1       3.031  -0.096  -0.038  0.00  0.00     0.038 A 
ATOM     12  C   UNL d   1      -0.265  -2.940  -0.113  0.00  0.00     0.050 C 
ENDROOT
BRANCH   1  13
ATOM     13  C   UNL d   1      -3.055  -1.702   0.006  0.00  0.00     0.087 C 
BRANCH  13  14
ATOM     14  C   UNL d   1      -3.556  -2.397   1.267  0.00  0.00    -0.010 A 
ATOM     15  C   UNL d   1      -3.071  -2.222   2.579  0.00  0.00     0.042 A 
ATOM     16 CL   UNL d   1      -1.820  -1.118   3.034  0.00  0.00    -0.084 Cl
ATOM     17  C   UNL d   1      -3.606  -2.951   3.656  0.00  0.00     0.024 A 
ATOM     18  C   UNL d   1      -4.653  -3.845   3.467  0.00  0.00     0.003 A 
ATOM     19  C   UNL d   1      -5.183  -4.007   2.197  0.00  0.00     0.024 A 
ATOM     20  C   UNL d   1      -4.647  -3.295   1.116  0.00  0.00     0.042 A 
ATOM     21 CL   UNL d   1      -5.414  -3.570  -0.419  0.00  0.00    -0.084 Cl
ENDBRANCH  13  14
ENDBRANCH   1  13
BRANCH  10  22
ATOM     22  O   UNL d   1       3.910   2.058  -0.107  0.00  0.00    -0.341 OA
BRANCH  22  23
ATOM     23  C   UNL d   1       3.777   3.332  -0.726  0.00  0.00     0.286 C 
BRANCH  23  24
ATOM     24  C   UNL d   1       5.060   4.127  -0.564  0.00  0.00     0.283 C 
ATOM     25  O   UNL d   1       6.061   3.769   0.039  0.00  0.00    -0.263 OA
BRANCH  24  26
ATOM     26  O   UNL d   1       4.881   5.362  -1.125  0.00  0.00    -0.320 OA
BRANCH  26  27
ATOM     27  C   UNL d   1       5.824   6.361  -0.714  0.00  0.00     0.174 C 
ATOM     28  C   UNL d   1       5.288   7.024   0.543  0.00  0.00     0.034 C 
ENDBRANCH  26  27
ENDBRANCH  24  26
ENDBRANCH  23  24
ENDBRANCH  22  23
ENDBRANCH  10  22
TORSDOF 7
