REMARK  10 active torsions:
REMARK  status: ('A' for Active; 'I' for Inactive)
REMARK    1  A    between atoms: O_14  and  C_1 
REMARK    2  A    between atoms: O_15  and  C_2 
REMARK    3  A    between atoms: O_16  and  C_3 
REMARK    4  A    between atoms: O_17  and  C_4 
REMARK    5  A    between atoms: O_18  and  C_5 
REMARK    6  A    between atoms: O_19  and  C_6 
REMARK    7  A    between atoms: C_11  and  C_20 
REMARK    8  A    between atoms: C_21  and  C_12 
REMARK    9  A    between atoms: N_13  and  C_21 
REMARK   10  A    between atoms: C_20  and  N_13 
ROOT
ATOM      1  N   UNL d   1      -3.624  -0.799  -0.095  0.00  0.00     0.091 N 
ATOM      2  H   UNL d   1      -3.513  -1.210   0.831  0.00  0.00     0.316 HD
ENDROOT
BRANCH   1   3
ATOM      3  C   UNL d   1      -2.852   0.431  -0.177  0.00  0.00     0.308 C 
BRANCH   3   4
ATOM      4  C   UNL d   1      -1.404   0.155   0.144  0.00  0.00    -0.025 A 
ATOM      5  C   UNL d   1      -0.641  -0.684  -0.678  0.00  0.00     0.048 A 
ATOM      6  C   UNL d   1       0.691  -0.991  -0.372  0.00  0.00     0.104 A 
ATOM      7  C   UNL d   1       1.289  -0.425   0.766  0.00  0.00     0.135 A 
ATOM      8  C   UNL d   1       0.557   0.496   1.547  0.00  0.00     0.104 A 
ATOM      9  C   UNL d   1      -0.796   0.735   1.262  0.00  0.00     0.048 A 
BRANCH   6  10
ATOM     10  O   UNL d   1       1.282  -1.794  -1.313  0.00  0.00    -0.353 OA
ATOM     11  C   UNL d   1       2.248  -2.724  -0.848  0.00  0.00     0.210 C 
ENDBRANCH   6  10
BRANCH   7  12
ATOM     12  O   UNL d   1       2.620  -0.662   1.005  0.00  0.00    -0.351 OA
ATOM     13  C   UNL d   1       2.905  -1.161   2.312  0.00  0.00     0.210 C 
ENDBRANCH   7  12
BRANCH   8  14
ATOM     14  O   UNL d   1       1.227   1.139   2.560  0.00  0.00    -0.353 OA
ATOM     15  C   UNL d   1       0.663   2.361   3.024  0.00  0.00     0.210 C 
ENDBRANCH   8  14
ENDBRANCH   3   4
ENDBRANCH   1   3
BRANCH   1  16
ATOM     16  C   UNL d   1      -5.042  -0.580  -0.354  0.00  0.00     0.308 C 
BRANCH  16  17
ATOM     17  C   UNL d   1      -5.771  -1.901  -0.349  0.00  0.00    -0.025 A 
ATOM     18  C   UNL d   1      -6.807  -2.155   0.552  0.00  0.00     0.048 A 
ATOM     19  C   UNL d   1      -7.428  -3.411   0.606  0.00  0.00     0.104 A 
ATOM     20  C   UNL d   1      -7.020  -4.429  -0.274  0.00  0.00     0.135 A 
ATOM     21  C   UNL d   1      -6.042  -4.149  -1.255  0.00  0.00     0.104 A 
ATOM     22  C   UNL d   1      -5.399  -2.907  -1.250  0.00  0.00     0.048 A 
BRANCH  19  23
ATOM     23  O   UNL d   1      -8.433  -3.452   1.537  0.00  0.00    -0.353 OA
ATOM     24  C   UNL d   1      -8.729  -4.709   2.124  0.00  0.00     0.210 C 
ENDBRANCH  19  23
BRANCH  20  25
ATOM     25  O   UNL d   1      -7.673  -5.636  -0.241  0.00  0.00    -0.351 OA
ATOM     26  C   UNL d   1      -6.815  -6.773  -0.148  0.00  0.00     0.210 C 
ENDBRANCH  20  25
BRANCH  21  27
ATOM     27  O   UNL d   1      -5.773  -5.126  -2.183  0.00  0.00    -0.353 OA
ATOM     28  C   UNL d   1      -5.103  -4.710  -3.369  0.00  0.00     0.210 C 
ENDBRANCH  21  27
ENDBRANCH  16  17
ENDBRANCH   1  16
TORSDOF 10
