REMARK  2 active torsions:
REMARK  status: ('A' for Active; 'I' for Inactive)
REMARK    1  A    between atoms: C_7  and  N_1 
REMARK    2  A    between atoms: N_6  and  C_10 
ROOT
ATOM      1  N   UNL d   1      -2.475  -0.730   0.082  0.00  0.00    -0.244 N 
ATOM      2  C   UNL d   1      -1.450  -1.439   0.674  0.00  0.00     0.267 A 
ATOM      3  C   UNL d   1      -1.985   0.407  -0.534  0.00  0.00     0.266 A 
ATOM      4  C   UNL d   1      -0.239  -0.688   0.456  0.00  0.00     0.064 A 
ATOM      5  C   UNL d   1      -0.543   0.448  -0.252  0.00  0.00     0.051 A 
ATOM      6  O   UNL d   1      -1.414  -2.512   1.248  0.00  0.00    -0.267 OA
ATOM      7  O   UNL d   1      -2.537   1.276  -1.188  0.00  0.00    -0.267 OA
ATOM      8  N   UNL d   1       2.046  -0.105   0.533  0.00  0.00    -0.374 N 
ATOM      9  HN  UNL d   1       3.008  -0.301   0.808  1.00  0.00     0.164 HD
ATOM     10  C   UNL d   1       1.046  -0.965   0.827  0.00  0.00     0.105 A 
ATOM     11  C   UNL d   1       0.440   1.362  -0.569  0.00  0.00     0.035 A 
ATOM     12  C   UNL d   1       1.723   1.035  -0.144  0.00  0.00     0.088 A 
ENDROOT
BRANCH   1  13
ATOM     13  C   UNL d   1      -3.815  -1.205   0.047  0.00  0.00     0.046 A 
ATOM     14  C   UNL d   1      -4.254  -2.133   0.999  0.00  0.00     0.032 A 
ATOM     15  C   UNL d   1      -5.514  -2.731   0.915  0.00  0.00     0.031 A 
ATOM     16  C   UNL d   1      -6.396  -2.440  -0.126  0.00  0.00     0.030 A 
ATOM     17  C   UNL d   1      -5.980  -1.466  -1.043  0.00  0.00     0.031 A 
ATOM     18  C   UNL d   1      -4.722  -0.835  -0.948  0.00  0.00     0.032 A 
BRANCH  16  19
ATOM     19  N   UNL d   1      -7.573  -3.143  -0.251  0.00  0.00    -0.377 N 
ATOM     20  C   UNL d   1      -8.217  -3.395  -1.544  0.00  0.00     0.149 C 
ATOM     21  C   UNL d   1      -8.783  -4.827  -1.529  0.00  0.00     0.187 C 
ATOM     22  O   UNL d   1      -9.703  -5.022  -0.440  0.00  0.00    -0.388 OA
ATOM     23  C   UNL d   1      -9.049  -4.784   0.820  0.00  0.00     0.187 C 
ATOM     24  C   UNL d   1      -8.463  -3.365   0.900  0.00  0.00     0.149 C 
ENDBRANCH  16  19
ENDBRANCH   1  13
TORSDOF 2
