REMARK  7 active torsions:
REMARK  status: ('A' for Active; 'I' for Inactive)
REMARK    1  A    between atoms: C_5  and  C_1 
REMARK    2  A    between atoms: N_2  and  C_6 
REMARK    3  A    between atoms: S_7  and  C_3 
REMARK       I    between atoms: N_19  and  C_5 
REMARK    4  A    between atoms: C_8  and  S_7 
REMARK    5  A    between atoms: C_16  and  C_9 
REMARK    6  A    between atoms: C_12  and  O_17 
REMARK    7  A    between atoms: O_17  and  C_16 
ROOT
ATOM      1  C   UNL d   1       1.516  -0.086  -0.310  0.00  0.00     0.051 A 
ATOM      2  C   UNL d   1       0.761  -1.273  -0.363  0.00  0.00     0.021 A 
ATOM      3  C   UNL d   1       0.883   1.144  -0.032  0.00  0.00     0.054 A 
ATOM      4  C   UNL d   1      -0.500   1.197   0.166  0.00  0.00     0.103 A 
ATOM      5  C   UNL d   1      -0.627  -1.193  -0.125  0.00  0.00     0.022 A 
ATOM      6  C   UNL d   1      -1.259   0.027   0.135  0.00  0.00     0.037 A 
ENDROOT
BRANCH   2   7
ATOM      7  S   UNL d   1       1.326  -2.896  -0.845  0.00  0.00    -0.089 SA
BRANCH   7   8
ATOM      8  C   UNL d   1       2.720  -3.312   0.198  0.00  0.00     0.014 A 
ATOM      9  C   UNL d   1       3.805  -4.052  -0.329  0.00  0.00    -0.017 A 
ATOM     10  C   UNL d   1       4.857  -4.437   0.524  0.00  0.00     0.011 A 
ATOM     11  C   UNL d   1       4.841  -4.098   1.875  0.00  0.00     0.001 A 
ATOM     12  C   UNL d   1       3.771  -3.378   2.394  0.00  0.00     0.001 A 
ATOM     13  C   UNL d   1       2.714  -2.993   1.564  0.00  0.00     0.019 A 
BRANCH   9  14
ATOM     14  C   UNL d   1       3.882  -4.485  -1.778  0.00  0.00     0.218 C 
BRANCH  14  15
ATOM     15  O   UNL d   1       2.881  -5.468  -2.066  0.00  0.00    -0.317 OA
BRANCH  15  16
ATOM     16  C   UNL d   1       3.244  -6.760  -1.860  0.00  0.00     0.255 C 
ATOM     17  O   UNL d   1       4.357  -7.144  -1.530  0.00  0.00    -0.266 OA
ATOM     18  C   UNL d   1       2.086  -7.675  -2.119  0.00  0.00     0.126 C 
ENDBRANCH  15  16
ENDBRANCH  14  15
ENDBRANCH   9  14
ENDBRANCH   7   8
ENDBRANCH   2   7
BRANCH   1  19
ATOM     19  C   UNL d   1       2.979   0.013  -0.550  0.00  0.00     0.252 C 
ATOM     20  O   UNL d   1       3.650   0.741   0.171  0.00  0.00    -0.268 OA
ATOM     21  N   UNL d   1       3.478  -0.673  -1.631  0.00  0.00    -0.361 N 
ATOM     22  C   UNL d   1       4.884  -0.661  -1.949  0.00  0.00     0.149 C 
ATOM     23  H   UNL d   1       2.874  -1.320  -2.123  0.00  0.00     0.162 HD
ENDBRANCH   1  19
BRANCH   4  24
ATOM     24  N   UNL d   1      -1.167   2.491   0.363  0.00  0.00    -0.116 N 
ATOM     25  O   UNL d   1      -0.469   3.513   0.313  0.00  0.00    -0.532 OA
ATOM     26  O   UNL d   1      -2.391   2.483   0.550  0.00  0.00    -0.532 OA
ENDBRANCH   4  24
TORSDOF 7
