REMARK  4 active torsions:
REMARK  status: ('A' for Active; 'I' for Inactive)
REMARK    1  A    between atoms: C_9  and  C_3 
REMARK    2  A    between atoms: C_8  and  C_4 
REMARK    3  A    between atoms: O_15  and  C_9 
REMARK    4  A    between atoms: C_16  and  O_15 
ROOT
ATOM      1  N   UNL d   1       1.212   0.118  -0.256  0.00  0.00    -0.314 N 
ATOM      2  HN  UNL d   1       2.192   0.241  -0.511  1.00  0.00     0.170 HD
ATOM      3  C   UNL d   1       0.546  -1.002  -0.045  0.00  0.00     0.247 A 
ATOM      4  C   UNL d   1       0.250   1.077  -0.044  0.00  0.00     0.145 A 
ATOM      5  N   UNL d   1      -0.968   0.586   0.233  0.00  0.00    -0.241 N 
ATOM      6  HN  UNL d   1      -1.831   1.101   0.406  1.00  0.00     0.196 HD
ATOM      7  O   UNL d   1      -0.774  -0.795   0.229  0.00  0.00    -0.211 OA
ENDROOT
BRANCH   3   8
ATOM      8  C   UNL d   1       1.069  -2.341   0.039  0.00  0.00     0.337 C 
ATOM      9  O   UNL d   1       0.429  -3.349   0.324  0.00  0.00    -0.255 OA
BRANCH   8  10
ATOM     10  O   UNL d   1       2.423  -2.317  -0.147  0.00  0.00    -0.315 OA
BRANCH  10  11
ATOM     11  C   UNL d   1       3.143  -3.461   0.329  0.00  0.00     0.175 C 
ATOM     12  C   UNL d   1       3.506  -3.217   1.783  0.00  0.00     0.034 C 
ENDBRANCH  10  11
ENDBRANCH   8  10
ENDBRANCH   3   8
BRANCH   4  13
ATOM     13  C   UNL d   1       0.566   2.537  -0.073  0.00  0.00     0.050 A 
ATOM     14  S   UNL d   1      -0.546   3.772   0.320  0.00  0.00    -0.098 SA
ATOM     15  C   UNL d   1       0.629   4.992   0.077  0.00  0.00     0.050 A 
ATOM     16  C   UNL d   1       1.841   4.470  -0.317  0.00  0.00     0.009 A 
ATOM     17  C   UNL d   1       1.806   3.046  -0.400  0.00  0.00     0.023 A 
ENDBRANCH   4  13
TORSDOF 4
