REMARK  3 active torsions:
REMARK  status: ('A' for Active; 'I' for Inactive)
REMARK    1  A    between atoms: C_3  and  N_1 
REMARK       I    between atoms: C_4  and  N_5 
REMARK    2  A    between atoms: C_10  and  C_4 
REMARK    3  A    between atoms: N_5  and  C_6 
ROOT
ATOM      1  C   UNL d   1       0.591   1.483  -1.689  0.00  0.00    -0.002 A 
ATOM      2  C   UNL d   1       0.099   1.039  -0.430  0.00  0.00     0.111 A 
ATOM      3  C   UNL d   1       0.173   2.758  -2.130  0.00  0.00     0.043 A 
ATOM      4  C   UNL d   1       1.501   0.580  -2.474  0.00  0.00     0.053 C 
ATOM      5  C   UNL d   1      -0.803   1.771   0.350  0.00  0.00     0.037 A 
ATOM      6  C   UNL d   1      -0.740   3.486  -1.323  0.00  0.00     0.030 A 
ATOM      7  C   UNL d   1      -1.230   3.003  -0.109  0.00  0.00     0.005 A 
ENDROOT
BRANCH   3   8
ATOM      8  N   UNL d   1       0.552   3.472  -3.302  0.00  0.00    -0.326 N 
ATOM      9  C   UNL d   1       1.416   3.182  -4.342  0.00  0.00     0.226 C 
ATOM     10  O   UNL d   1       2.052   2.151  -4.509  0.00  0.00    -0.273 OA
ATOM     11  H   UNL d   1       0.139   4.394  -3.368  0.00  0.00     0.169 HD
BRANCH   9  12
ATOM     12  C   UNL d   1       1.556   4.352  -5.335  0.00  0.00     0.078 C 
ATOM     13  C   UNL d   1       0.251   4.647  -6.088  0.00  0.00     0.014 C 
ATOM     14  C   UNL d   1      -0.044   3.624  -7.182  0.00  0.00     0.001 C 
ATOM     15  C   UNL d   1       1.119   3.496  -8.159  0.00  0.00     0.000 C 
ATOM     16  C   UNL d   1       2.416   3.152  -7.439  0.00  0.00     0.001 C 
ATOM     17  C   UNL d   1       2.725   4.141  -6.314  0.00  0.00     0.014 C 
ENDBRANCH   9  12
ENDBRANCH   3   8
BRANCH   2  18
ATOM     18  N   UNL d   1       0.538  -0.223   0.146  0.00  0.00    -0.115 N 
ATOM     19  O   UNL d   1       1.711  -0.287   0.537  0.00  0.00    -0.532 OA
ATOM     20  O   UNL d   1      -0.309  -1.121   0.240  0.00  0.00    -0.532 OA
ENDBRANCH   2  18
TORSDOF 3
