REMARK  5 active torsions:
REMARK  status: ('A' for Active; 'I' for Inactive)
REMARK       I    between atoms: N_5  and  C_1 
REMARK    1  A    between atoms: C_7  and  C_1 
REMARK       I    between atoms: C_2  and  N_3 
REMARK    2  A    between atoms: C_11  and  C_2 
REMARK    3  A    between atoms: N_3  and  C_7 
REMARK    4  A    between atoms: N_10  and  N_5 
REMARK    5  A    between atoms: C_8  and  C_11 
ROOT
ATOM      1  C   UNL d   1       4.406  -1.023   1.267  0.00  0.00     0.221 C 
ATOM      2  N   UNL d   1       3.045  -0.931   1.113  0.00  0.00    -0.352 N 
ATOM      3  O   UNL d   1       5.195  -0.366   0.589  0.00  0.00    -0.273 OA
ATOM      4  H   UNL d   1       2.414  -1.413   1.747  0.00  0.00     0.162 HD
ENDROOT
BRANCH   2   5
ATOM      5  C   UNL d   1       2.467  -0.046   0.122  0.00  0.00     0.226 C 
BRANCH   5   6
ATOM      6  C   UNL d   1       0.941  -0.108   0.136  0.00  0.00     0.249 C 
ATOM      7  O   UNL d   1       0.301  -0.833   0.896  0.00  0.00    -0.270 OA
ATOM      8  N   UNL d   1       0.351   0.714  -0.822  0.00  0.00    -0.293 N 
ATOM      9  H   UNL d   1       0.902   1.441  -1.276  0.00  0.00     0.183 HD
BRANCH   8  10
ATOM     10  N   UNL d   1      -1.056   0.789  -0.899  0.00  0.00    -0.247 NA
ATOM     11  H   UNL d   1      -1.435   0.173  -0.165  0.00  0.00     0.143 HD
ATOM     12  H   UNL d   1      -1.353   0.348  -1.774  0.00  0.00     0.143 HD
ENDBRANCH   8  10
ENDBRANCH   5   6
ENDBRANCH   2   5
BRANCH   1  13
ATOM     13  C   UNL d   1       4.864  -1.992   2.349  0.00  0.00     0.129 C 
BRANCH  13  14
ATOM     14  C   UNL d   1       5.056  -1.274   3.652  0.00  0.00    -0.022 C 
ATOM     15  C   UNL d   1       4.416  -1.591   4.790  0.00  0.00    -0.034 C 
ATOM     16  C   UNL d   1       4.630  -0.886   6.090  0.00  0.00     0.036 C 
ENDBRANCH  13  14
ENDBRANCH   1  13
TORSDOF 5
