REMARK  1 active torsions:
REMARK  status: ('A' for Active; 'I' for Inactive)
REMARK    1  A    between atoms: C_16  and  N_4 
ROOT
ATOM      1  C   UNL d   1       2.721  -0.696  -0.015  0.00  0.00     0.139 A 
ATOM      2  C   UNL d   1       1.771   0.280   0.021  0.00  0.00     0.105 A 
ATOM      3  N   UNL d   1       4.076  -0.300  -0.118  0.00  0.00    -0.288 N 
ATOM      4  N   UNL d   1       2.299  -2.066  -0.005  0.00  0.00    -0.262 N 
ATOM      5  N   UNL d   1       3.532   1.984   0.082  0.00  0.00    -0.270 N 
ATOM      6  C   UNL d   1       4.503   1.024   0.036  0.00  0.00     0.332 C 
ATOM      7  C   UNL d   1       2.187   1.718  -0.014  0.00  0.00     0.267 C 
ATOM      8  C   UNL d   1       0.931  -2.434  -0.019  0.00  0.00     0.266 A 
ATOM      9  C   UNL d   1      -0.070  -1.375  -0.009  0.00  0.00     0.061 A 
ATOM     10  C   UNL d   1       0.332  -0.063   0.030  0.00  0.00     0.068 A 
ATOM     11  N   UNL d   1      -0.586   0.935   0.057  0.00  0.00    -0.354 N 
ATOM     12  HN  UNL d   1      -0.275   1.906   0.095  1.00  0.00     0.166 HD
ATOM     13  C   UNL d   1      -1.434  -1.687  -0.018  0.00  0.00     0.033 A 
ATOM     14  C   UNL d   1      -2.381  -0.663   0.001  0.00  0.00    -0.008 A 
ATOM     15  C   UNL d   1      -1.905   0.656   0.033  0.00  0.00     0.043 A 
ATOM     16  O   UNL d   1       5.702   1.317   0.092  0.00  0.00    -0.246 OA
ATOM     17  O   UNL d   1       1.381   2.641  -0.130  0.00  0.00    -0.267 OA
ATOM     18  O   UNL d   1       0.502  -3.589  -0.008  0.00  0.00    -0.267 OA
ATOM     19  C   UNL d   1      -3.763  -0.931  -0.011  0.00  0.00     0.020 A 
ATOM     20  C   UNL d   1       5.183  -1.190  -0.439  0.00  0.00     0.163 C 
ATOM     21  C   UNL d   1       3.929   3.385   0.072  0.00  0.00     0.164 C 
ATOM     22  C   UNL d   1      -2.840   1.682   0.038  0.00  0.00     0.031 A 
ATOM     23  C   UNL d   1      -4.689   0.114   0.003  0.00  0.00    -0.061 A 
ATOM     24  C   UNL d   1      -4.218   1.427   0.022  0.00  0.00     0.009 A 
ATOM     25  C   UNL d   1      -6.164  -0.164  -0.002  0.00  0.00     0.048 C 
ENDROOT
BRANCH   4  26
ATOM     26  C   UNL d   1       3.163  -3.210   0.093  0.00  0.00     0.044 A 
ATOM     27  C   UNL d   1       3.133  -4.184  -0.920  0.00  0.00     0.030 A 
ATOM     28  C   UNL d   1       3.989  -5.284  -0.876  0.00  0.00     0.002 A 
ATOM     29  C   UNL d   1       4.873  -5.428   0.189  0.00  0.00     0.000 A 
ATOM     30  C   UNL d   1       4.879  -4.491   1.224  0.00  0.00     0.002 A 
ATOM     31  C   UNL d   1       4.013  -3.393   1.189  0.00  0.00     0.030 A 
ENDBRANCH   4  26
TORSDOF 1
