REMARK  3 active torsions:
REMARK  status: ('A' for Active; 'I' for Inactive)
REMARK    1  A    between atoms: C_5  and  C_1 
REMARK    2  A    between atoms: C_8  and  C_2 
REMARK    3  A    between atoms: N_7  and  C_6 
ROOT
ATOM      1  C   UNL d   1       2.546   0.059  -0.035  0.00  0.00     0.055 C 
ATOM      2  C   UNL d   1       3.274  -1.080  -0.025  0.00  0.00     0.034 C 
ATOM      3  C   UNL d   1       3.203   1.338  -0.036  0.00  0.00     0.100 C 
ATOM      4  N   UNL d   1       3.708   2.382  -0.022  0.00  0.00    -0.191 NA
ENDROOT
BRANCH   1   5
ATOM      5  C   UNL d   1       1.050   0.016  -0.006  0.00  0.00    -0.015 A 
ATOM      6  C   UNL d   1       0.321   1.045   0.618  0.00  0.00     0.013 A 
ATOM      7  C   UNL d   1      -1.081   1.046   0.627  0.00  0.00     0.007 A 
ATOM      8  C   UNL d   1      -1.801   0.019   0.014  0.00  0.00    -0.062 A 
ATOM      9  C   UNL d   1      -1.092  -1.014  -0.606  0.00  0.00     0.007 A 
ATOM     10  C   UNL d   1      -3.301   0.044   0.018  0.00  0.00     0.048 C 
ATOM     11  C   UNL d   1       0.312  -1.012  -0.619  0.00  0.00     0.013 A 
ENDBRANCH   1   5
BRANCH   2  12
ATOM     12  C   UNL d   1       4.744  -1.151  -0.009  0.00  0.00    -0.035 A 
ATOM     13  C   UNL d   1       5.428  -1.212   1.203  0.00  0.00     0.013 A 
ATOM     14  C   UNL d   1       6.830  -1.301   1.227  0.00  0.00     0.030 A 
ATOM     15  C   UNL d   1       7.599  -1.336   0.053  0.00  0.00     0.029 A 
ATOM     16  C   UNL d   1       6.884  -1.260  -1.153  0.00  0.00     0.030 A 
ATOM     17  C   UNL d   1       5.481  -1.171  -1.192  0.00  0.00     0.013 A 
BRANCH  15  18
ATOM     18  N   UNL d   1       8.978  -1.462   0.080  0.00  0.00    -0.390 N 
ATOM     19  C   UNL d   1       9.830  -0.838  -0.926  0.00  0.00     0.149 C 
ATOM     20  C   UNL d   1       9.676  -2.115   1.181  0.00  0.00     0.149 C 
ENDBRANCH  15  18
ENDBRANCH   2  12
TORSDOF 3
