REMARK  7 active torsions:
REMARK  status: ('A' for Active; 'I' for Inactive)
REMARK    1  A    between atoms: C_17  and  C_2 
REMARK    2  A    between atoms: C_9  and  C_14 
REMARK    3  A    between atoms: O_16  and  C_9 
REMARK    4  A    between atoms: O_13  and  C_12 
REMARK    5  A    between atoms: C_14  and  O_13 
REMARK    6  A    between atoms: C_18  and  O_16 
REMARK    7  A    between atoms: C_19  and  C_17 
ROOT
ATOM      1  C   UNL d   1       0.328   0.575  -0.068  0.00  0.00     0.092 A 
ATOM      2  C   UNL d   1      -0.539  -1.736  -0.030  0.00  0.00    -0.039 A 
ATOM      3  O   UNL d   1      -0.991   1.070  -0.092  0.00  0.00    -0.275 OA
ATOM      4  C   UNL d   1      -2.075   0.213  -0.052  0.00  0.00     0.288 A 
ATOM      5  C   UNL d   1       0.591  -0.796  -0.005  0.00  0.00     0.004 A 
ATOM      6  C   UNL d   1      -1.781  -1.227  -0.060  0.00  0.00     0.090 A 
ATOM      7  C   UNL d   1       1.339   1.538  -0.096  0.00  0.00     0.075 A 
ATOM      8  C   UNL d   1       1.931  -1.188   0.074  0.00  0.00     0.017 A 
ATOM      9  O   UNL d   1      -3.232   0.617  -0.028  0.00  0.00    -0.260 OA
ATOM     10  C   UNL d   1       2.666   1.127  -0.047  0.00  0.00     0.072 A 
ATOM     11  C   UNL d   1       2.954  -0.235   0.060  0.00  0.00     0.038 A 
ENDROOT
BRANCH  10  12
ATOM     12  O   UNL d   1       3.758   1.945  -0.041  0.00  0.00    -0.341 OA
BRANCH  12  13
ATOM     13  C   UNL d   1       3.612   3.203  -0.688  0.00  0.00     0.286 C 
BRANCH  13  14
ATOM     14  C   UNL d   1       4.877   4.020  -0.497  0.00  0.00     0.283 C 
ATOM     15  O   UNL d   1       5.864   3.682   0.139  0.00  0.00    -0.263 OA
BRANCH  14  16
ATOM     16  O   UNL d   1       4.700   5.248  -1.074  0.00  0.00    -0.320 OA
BRANCH  16  17
ATOM     17  C   UNL d   1       5.599   6.266  -0.616  0.00  0.00     0.174 C 
ATOM     18  C   UNL d   1       4.979   6.913   0.610  0.00  0.00     0.034 C 
ENDBRANCH  16  17
ENDBRANCH  14  16
ENDBRANCH  13  14
ENDBRANCH  12  13
ENDBRANCH  10  12
BRANCH   2  19
ATOM     19  C   UNL d   1      -0.318  -3.228  -0.078  0.00  0.00     0.039 C 
BRANCH  19  20
ATOM     20  C   UNL d   1      -0.210  -3.844   1.319  0.00  0.00     0.000 C 
ATOM     21  C   UNL d   1       0.036  -5.343   1.244  0.00  0.00     0.005 C 
ENDBRANCH  19  20
ENDBRANCH   2  19
TORSDOF 7
