REMARK  7 active torsions:
REMARK  status: ('A' for Active; 'I' for Inactive)
REMARK    1  A    between atoms: C_2  and  C_1 
REMARK    2  A    between atoms: C_11  and  C_1 
REMARK    3  A    between atoms: C_12  and  C_2 
REMARK    4  A    between atoms: C_3  and  S_7 
REMARK    5  A    between atoms: C_4  and  S_8 
REMARK    6  A    between atoms: S_7  and  C_11 
REMARK    7  A    between atoms: S_8  and  C_12 
ROOT
ATOM      1  C   UNL d   1       0.989  -0.091  -0.039  0.00  0.00    -0.095 C 
ENDROOT
BRANCH   1   2
ATOM      2  C   UNL d   1      -0.315  -0.091  -0.039  0.00  0.00    -0.095 C 
BRANCH   2   3
ATOM      3  C   UNL d   1      -1.835  -0.091  -0.039  0.00  0.00     0.173 C 
BRANCH   3   4
ATOM      4  S   UNL d   1      -2.373   0.817  -1.541  0.00  0.00    -0.118 SA
BRANCH   4   5
ATOM      5  C   UNL d   1      -4.144   0.709  -1.419  0.00  0.00     0.001 A 
ATOM      6  C   UNL d   1      -4.885   1.895  -1.357  0.00  0.00     0.020 A 
ATOM      7  C   UNL d   1      -6.282   1.859  -1.375  0.00  0.00     0.025 A 
ATOM      8  C   UNL d   1      -6.940   0.636  -1.467  0.00  0.00     0.034 A 
ATOM      9  C   UNL d   1      -6.212  -0.551  -1.533  0.00  0.00     0.025 A 
ATOM     10 CL   UNL d   1      -8.658   0.591  -1.525  0.00  0.00    -0.084 Cl
ATOM     11  C   UNL d   1      -4.813  -0.515  -1.511  0.00  0.00     0.020 A 
ENDBRANCH   4   5
ENDBRANCH   3   4
ENDBRANCH   2   3
ENDBRANCH   1   2
BRANCH   1  12
ATOM     12  C   UNL d   1       2.509  -0.091  -0.039  0.00  0.00     0.173 C 
BRANCH  12  13
ATOM     13  S   UNL d   1       3.047  -0.741   1.591  0.00  0.00    -0.118 SA
BRANCH  13  14
ATOM     14  C   UNL d   1       4.819  -0.684   1.454  0.00  0.00     0.001 A 
ATOM     15  C   UNL d   1       5.509   0.508   1.210  0.00  0.00     0.020 A 
ATOM     16  C   UNL d   1       6.908   0.527   1.221  0.00  0.00     0.025 A 
ATOM     17  C   UNL d   1       7.618  -0.643   1.482  0.00  0.00     0.034 A 
ATOM     18  C   UNL d   1       6.943  -1.835   1.728  0.00  0.00     0.025 A 
ATOM     19 CL   UNL d   1       9.337  -0.611   1.523  0.00  0.00    -0.084 Cl
ATOM     20  C   UNL d   1       5.545  -1.853   1.719  0.00  0.00     0.020 A 
ENDBRANCH  13  14
ENDBRANCH  12  13
ENDBRANCH   1  12
TORSDOF 7
