REMARK  5 active torsions:
REMARK  status: ('A' for Active; 'I' for Inactive)
REMARK    1  A    between atoms: C_8  and  N_1 
REMARK    2  A    between atoms: C_18  and  C_8 
REMARK    3  A    between atoms: C_10  and  O_19 
REMARK    4  A    between atoms: C_20  and  C_18 
REMARK    5  A    between atoms: O_19  and  C_20 
ROOT
ATOM      1  N   UNL d   1       3.570  -0.789  -1.310  0.00  0.00    -0.280 N 
ATOM      2  C   UNL d   1       4.613  -1.659  -1.470  0.00  0.00     0.261 A 
ATOM      3  C   UNL d   1       2.750  -0.776  -2.406  0.00  0.00     0.261 A 
ATOM      4  C   UNL d   1       3.300  -1.748  -3.350  0.00  0.00     0.048 A 
ATOM      5  C   UNL d   1       4.438  -2.288  -2.778  0.00  0.00     0.048 A 
ATOM      6  O   UNL d   1       5.538  -1.891  -0.713  0.00  0.00    -0.267 OA
ATOM      7  O   UNL d   1       1.748  -0.118  -2.607  0.00  0.00    -0.267 OA
ATOM      8  C   UNL d   1       5.190  -3.255  -3.416  0.00  0.00     0.018 A 
ATOM      9  C   UNL d   1       2.847  -2.146  -4.592  0.00  0.00     0.018 A 
ATOM     10  C   UNL d   1       4.750  -3.677  -4.675  0.00  0.00     0.001 A 
ATOM     11  C   UNL d   1       3.589  -3.127  -5.258  0.00  0.00     0.001 A 
ENDROOT
BRANCH   1  12
ATOM     12  C   UNL d   1       3.353   0.015  -0.122  0.00  0.00     0.138 C 
BRANCH  12  13
ATOM     13  C   UNL d   1       3.978   1.407  -0.205  0.00  0.00     0.047 C 
BRANCH  13  14
ATOM     14  C   UNL d   1       5.501   1.370  -0.275  0.00  0.00     0.177 C 
BRANCH  14  15
ATOM     15  O   UNL d   1       5.980   2.717  -0.300  0.00  0.00    -0.351 OA
BRANCH  15  16
ATOM     16  C   UNL d   1       7.335   2.852  -0.445  0.00  0.00     0.068 A 
ATOM     17  C   UNL d   1       7.760   4.043  -1.040  0.00  0.00     0.038 A 
ATOM     18  C   UNL d   1       9.121   4.295  -1.224  0.00  0.00     0.026 A 
ATOM     19  C   UNL d   1      10.060   3.359  -0.795  0.00  0.00     0.034 A 
ATOM     20  C   UNL d   1       9.646   2.176  -0.187  0.00  0.00     0.026 A 
ATOM     21 CL   UNL d   1      11.738   3.665  -1.010  0.00  0.00    -0.084 Cl
ATOM     22  C   UNL d   1       8.283   1.923  -0.011  0.00  0.00     0.038 A 
ENDBRANCH  15  16
ENDBRANCH  14  15
ENDBRANCH  13  14
ENDBRANCH  12  13
ENDBRANCH   1  12
TORSDOF 5
