REMARK  6 active torsions:
REMARK  status: ('A' for Active; 'I' for Inactive)
REMARK    1  A    between atoms: C_3  and  C_1 
REMARK    2  A    between atoms: N_2  and  C_7 
REMARK    3  A    between atoms: O_8  and  C_3 
REMARK    4  A    between atoms: N_4  and  O_8 
REMARK    5  A    between atoms: C_9  and  C_6 
REMARK    6  A    between atoms: N_18  and  C_6 
ROOT
ATOM      1  N   UNL d   1      -4.862   2.423   0.069  0.00  0.00    -0.246 N 
ATOM      2  HN  UNL d   1      -5.706   2.930   0.336  1.00  0.00     0.196 HD
ATOM      3  C   UNL d   1      -3.719   2.997  -0.165  0.00  0.00     0.109 C 
ENDROOT
BRANCH   3   4
ATOM      4  C   UNL d   1      -3.646   4.495  -0.081  0.00  0.00     0.006 A 
ATOM      5  C   UNL d   1      -2.730   5.196  -0.885  0.00  0.00     0.044 A 
ATOM      6  C   UNL d   1      -2.595   6.592  -0.775  0.00  0.00     0.039 A 
ATOM      7  C   UNL d   1      -3.412   7.277   0.137  0.00  0.00     0.030 A 
ATOM      8  C   UNL d   1      -4.342   6.580   0.919  0.00  0.00     0.003 A 
ATOM      9  C   UNL d   1      -4.462   5.194   0.811  0.00  0.00     0.015 A 
BRANCH   6  10
ATOM     10  N   UNL d   1      -1.626   7.293  -1.563  0.00  0.00    -0.333 N 
ATOM     11  C   UNL d   1      -0.789   6.746  -2.522  0.00  0.00     0.096 A 
ATOM     12  C   UNL d   1       0.045   7.724  -3.019  0.00  0.00     0.019 A 
ATOM     13  C   UNL d   1      -0.291   8.925  -2.366  0.00  0.00     0.019 A 
ATOM     14  C   UNL d   1      -1.320   8.642  -1.497  0.00  0.00     0.096 A 
ENDBRANCH   6  10
ENDBRANCH   3   4
BRANCH   3  15
ATOM     15  N   UNL d   1      -2.561   2.314  -0.464  0.00  0.00    -0.286 NA
ATOM     16  H   UNL d   1      -2.627   1.328  -0.237  0.00  0.00     0.125 HD
ATOM     17  H   UNL d   1      -1.708   2.734  -0.108  0.00  0.00     0.125 HD
ENDBRANCH   3  15
BRANCH   1  18
ATOM     18  O   UNL d   1      -4.805   1.015  -0.090  0.00  0.00    -0.193 OA
BRANCH  18  19
ATOM     19  C   UNL d   1      -6.040   0.479   0.167  0.00  0.00     0.321 C 
ATOM     20  O   UNL d   1      -7.024   1.072   0.591  0.00  0.00    -0.257 OA
BRANCH  19  21
ATOM     21  C   UNL d   1      -6.069  -0.972  -0.114  0.00  0.00     0.118 A 
ATOM     22  C   UNL d   1      -5.304  -1.562  -1.119  0.00  0.00     0.135 A 
ATOM     23  F   UNL d   1      -4.451  -0.837  -1.856  0.00  0.00    -0.205 F 
ATOM     24  C   UNL d   1      -5.420  -2.927  -1.411  0.00  0.00     0.043 A 
ATOM     25  C   UNL d   1      -6.312  -3.724  -0.695  0.00  0.00     0.006 A 
ATOM     26  C   UNL d   1      -7.080  -3.148   0.314  0.00  0.00     0.043 A 
ATOM     27  C   UNL d   1      -6.958  -1.786   0.596  0.00  0.00     0.135 A 
ATOM     28  F   UNL d   1      -7.716  -1.290   1.584  0.00  0.00    -0.205 F 
ENDBRANCH  19  21
ENDBRANCH  18  19
ENDBRANCH   1  18
TORSDOF 6
