REMARK  4 active torsions:
REMARK  status: ('A' for Active; 'I' for Inactive)
REMARK    1  A    between atoms: C_2  and  S_1 
REMARK    2  A    between atoms: C_11  and  S_1 
REMARK    3  A    between atoms: C_5  and  C_3 
REMARK    4  A    between atoms: N_6  and  C_7 
ROOT
ATOM      1  C   UNL d   1       0.928  -1.645  -1.481  0.00  0.00     0.144 C 
ATOM      2  C   UNL d   1      -0.390  -1.850  -1.306  0.00  0.00     0.049 C 
ATOM      3  C   UNL d   1       1.897  -1.824  -0.467  0.00  0.00     0.112 C 
ATOM      4  N   UNL d   1       2.701  -2.004   0.351  0.00  0.00    -0.191 NA
ENDROOT
BRANCH   1   5
ATOM      5  S   UNL d   1       1.431  -1.047  -3.026  0.00  0.00     0.216 S 
ATOM      6  O   UNL d   1       1.452   0.403  -2.983  0.00  0.00    -0.216 OA
ATOM      7  O   UNL d   1       0.667  -1.711  -4.072  0.00  0.00    -0.216 OA
BRANCH   5   8
ATOM      8  C   UNL d   1       3.118  -1.585  -3.236  0.00  0.00     0.065 A 
ATOM      9  C   UNL d   1       3.380  -2.813  -3.855  0.00  0.00     0.024 A 
ATOM     10  C   UNL d   1       4.702  -3.205  -4.069  0.00  0.00     0.002 A 
ATOM     11  C   UNL d   1       5.751  -2.373  -3.676  0.00  0.00     0.000 A 
ATOM     12  C   UNL d   1       5.485  -1.140  -3.079  0.00  0.00     0.002 A 
ATOM     13  C   UNL d   1       4.166  -0.737  -2.864  0.00  0.00     0.024 A 
ENDBRANCH   5   8
ENDBRANCH   1   5
BRANCH   2  14
ATOM     14  C   UNL d   1      -0.996  -2.273  -0.036  0.00  0.00    -0.007 A 
ATOM     15  C   UNL d   1      -1.375  -1.354   0.980  0.00  0.00     0.040 A 
ATOM     16  C   UNL d   1      -1.838  -1.911   2.187  0.00  0.00     0.030 A 
ATOM     17  C   UNL d   1      -1.912  -3.296   2.389  0.00  0.00     0.002 A 
ATOM     18  C   UNL d   1      -1.534  -4.171   1.381  0.00  0.00     0.001 A 
ATOM     19  C   UNL d   1      -1.085  -3.663   0.169  0.00  0.00     0.014 A 
BRANCH  15  20
ATOM     20  N   UNL d   1      -1.211   0.032   0.819  0.00  0.00    -0.376 N 
ATOM     21  C   UNL d   1      -1.173   0.890   2.029  0.00  0.00     0.149 C 
ATOM     22  C   UNL d   1      -0.631   2.285   1.664  0.00  0.00     0.187 C 
ATOM     23  O   UNL d   1      -1.385   2.895   0.604  0.00  0.00    -0.388 OA
ATOM     24  C   UNL d   1      -1.369   2.052  -0.562  0.00  0.00     0.187 C 
ATOM     25  C   UNL d   1      -2.002   0.684  -0.254  0.00  0.00     0.149 C 
ENDBRANCH  15  20
ENDBRANCH   2  14
TORSDOF 4
