REMARK  3 active torsions:
REMARK  status: ('A' for Active; 'I' for Inactive)
REMARK    1  A    between atoms: C_6  and  C_1 
REMARK    2  A    between atoms: C_5  and  C_2 
REMARK       I    between atoms: N_13  and  C_5 
REMARK    3  A    between atoms: C_21  and  N_13 
ROOT
ATOM      1  C   UNL d   1       3.477  -6.803  -1.243  0.00  0.00     0.072 A 
ATOM      2  C   UNL d   1       2.197  -6.188  -1.179  0.00  0.00     0.015 A 
ATOM      3  N   UNL d   1       2.260  -7.528  -2.956  0.00  0.00    -0.364 N 
ATOM      4  C   UNL d   1       3.503  -7.584  -2.381  0.00  0.00     0.112 A 
ATOM      5  C   UNL d   1       4.568  -6.631  -0.335  0.00  0.00     0.102 C 
ATOM      6  N   UNL d   1       5.449  -6.520   0.414  0.00  0.00    -0.191 NA
ATOM      7  C   UNL d   1       1.425  -6.727  -2.209  0.00  0.00     0.044 A 
ATOM      8  C   UNL d   1       1.622  -5.198  -0.360  0.00  0.00     0.044 C 
ATOM      9  C   UNL d   1       0.324  -4.757  -0.632  0.00  0.00     0.035 C 
ATOM     10  C   UNL d   1       0.069  -6.420  -2.379  0.00  0.00     0.033 C 
ATOM     11  C   UNL d   1      -0.477  -5.436  -1.552  0.00  0.00     0.032 C 
ATOM     12  H   UNL d   1       1.997  -7.980  -3.822  0.00  0.00     0.165 HD
ENDROOT
BRANCH   9  13
ATOM     13  N   UNL d   1      -0.175  -3.559  -0.088  0.00  0.00    -0.323 N 
ATOM     14  C   UNL d   1       0.621  -2.429   0.103  0.00  0.00     0.261 C 
ATOM     15  O   UNL d   1       1.842  -2.398   0.042  0.00  0.00    -0.267 OA
ATOM     16  H   UNL d   1      -1.175  -3.421  -0.134  0.00  0.00     0.169 HD
BRANCH  14  17
ATOM     17  C   UNL d   1      -0.135  -1.222   0.362  0.00  0.00     0.093 C 
ATOM     18  C   UNL d   1       0.203  -0.125   1.224  0.00  0.00     0.086 C 
ATOM     19  N   UNL d   1      -0.803   0.771   1.223  0.00  0.00    -0.259 N 
ATOM     20  O   UNL d   1      -1.692   0.372   0.258  0.00  0.00    -0.241 OA
ATOM     21  HN  UNL d   1      -0.886   1.591   1.824  1.00  0.00     0.195 HD
ATOM     22  C   UNL d   1      -1.284  -0.803  -0.283  0.00  0.00     0.090 C 
ATOM     23  C   UNL d   1      -2.091  -1.284  -1.424  0.00  0.00     0.080 C 
BRANCH  18  24
ATOM     24  C   UNL d   1       1.418   0.109   2.017  0.00  0.00     0.037 A 
ATOM     25  C   UNL d   1       2.122   1.331   1.917  0.00  0.00     0.048 A 
ATOM     26 CL   UNL d   1       1.632   2.640   0.886  0.00  0.00    -0.083 Cl
ATOM     27  C   UNL d   1       3.302   1.554   2.645  0.00  0.00     0.025 A 
ATOM     28  C   UNL d   1       3.831   0.555   3.451  0.00  0.00     0.003 A 
ATOM     29  C   UNL d   1       3.156  -0.655   3.568  0.00  0.00     0.025 A 
ATOM     30  C   UNL d   1       1.945  -0.867   2.888  0.00  0.00     0.048 A 
ATOM     31 CL   UNL d   1       1.123  -2.348   3.265  0.00  0.00    -0.083 Cl
ENDBRANCH  18  24
ENDBRANCH  14  17
ENDBRANCH   9  13
TORSDOF 3
