REMARK  4 active torsions:
REMARK  status: ('A' for Active; 'I' for Inactive)
REMARK    1  A    between atoms: C_5  and  N_1 
REMARK       I    between atoms: C_3  and  N_2 
REMARK    2  A    between atoms: O_13  and  C_3 
REMARK    3  A    between atoms: N_6  and  C_5 
REMARK    4  A    between atoms: C_16  and  O_13 
ROOT
ATOM      1  N   UNL d   1      -3.677  -0.720  -0.292  0.00  0.00    -0.325 N 
ATOM      2  C   UNL d   1      -4.268  -1.961  -0.470  0.00  0.00     0.362 C 
ATOM      3  N   UNL d   1      -2.675   2.042   0.003  0.00  0.00     0.109 N 
ATOM      4  O   UNL d   1      -4.549  -2.424  -1.572  0.00  0.00    -0.238 OA
ATOM      5  C   UNL d   1      -3.248   0.030  -1.468  0.00  0.00     0.158 C 
ATOM      6  C   UNL d   1      -3.110  -0.283   0.982  0.00  0.00     0.158 C 
ATOM      7  C   UNL d   1      -3.303   1.553  -1.246  0.00  0.00     0.294 C 
ATOM      8  C   UNL d   1      -3.166   1.249   1.147  0.00  0.00     0.294 C 
ENDROOT
BRANCH   3   9
ATOM      9  C   UNL d   1      -1.217   2.046  -0.078  0.00  0.00     0.400 C 
BRANCH   9  10
ATOM     10  N   UNL d   1      -0.797   3.112  -0.978  0.00  0.00    -0.326 N 
ATOM     11  C   UNL d   1       0.200   2.838  -1.898  0.00  0.00     0.221 C 
ATOM     12  O   UNL d   1       0.618   1.695  -2.100  0.00  0.00    -0.273 OA
ATOM     13  C   UNL d   1       0.748   3.984  -2.739  0.00  0.00     0.103 C 
ATOM     14  C   UNL d   1       0.317   5.392  -2.361  0.00  0.00     0.011 C 
ATOM     15  C   UNL d   1      -1.097   5.407  -1.818  0.00  0.00     0.020 C 
ATOM     16  C   UNL d   1      -1.153   4.480  -0.618  0.00  0.00     0.127 C 
ENDBRANCH   9  10
ENDBRANCH   3   9
BRANCH   2  17
ATOM     17  O   UNL d   1      -4.538  -2.588   0.705  0.00  0.00    -0.304 OA
BRANCH  17  18
ATOM     18  C   UNL d   1      -5.312  -3.796   0.629  0.00  0.00     0.176 C 
ATOM     19  C   UNL d   1      -4.460  -4.984   1.041  0.00  0.00     0.034 C 
ENDBRANCH  17  18
ENDBRANCH   2  17
TORSDOF 4
