REMARK  4 active torsions:
REMARK  status: ('A' for Active; 'I' for Inactive)
REMARK    1  A    between atoms: C_3  and  N_1 
REMARK    2  A    between atoms: N_4  and  C_3 
REMARK    3  A    between atoms: C_6  and  N_4 
REMARK    4  A    between atoms: N_10  and  C_7 
ROOT
ATOM      1  N   UNL d   1       1.212   1.848  -1.382  0.00  0.00    -0.333 N 
ATOM      2  H   UNL d   1       0.632   2.626  -1.674  0.00  0.00     0.168 HD
ENDROOT
BRANCH   1   3
ATOM      3  C   UNL d   1       0.529   0.916  -0.620  0.00  0.00     0.177 C 
ATOM      4  S   UNL d   1       1.219  -0.052   0.578  0.00  0.00    -0.040 SA
BRANCH   3   5
ATOM      5  N   UNL d   1      -0.830   0.924  -0.803  0.00  0.00    -0.329 N 
ATOM      6  C   UNL d   1      -1.265   0.669  -1.992  0.00  0.00     0.179 C 
ATOM      7  HN  UNL d   1      -1.469   1.122  -0.034  1.00  0.00     0.169 HD
BRANCH   6   8
ATOM      8  N   UNL d   1      -2.586   0.505  -2.337  0.00  0.00    -0.386 N 
ATOM      9  C   UNL d   1      -2.997   0.400  -3.728  0.00  0.00     0.149 C 
ATOM     10  C   UNL d   1      -3.506  -0.094  -1.375  0.00  0.00     0.149 C 
ENDBRANCH   6   8
ENDBRANCH   3   5
ENDBRANCH   1   3
BRANCH   1  11
ATOM     11  C   UNL d   1       2.554   1.827  -1.826  0.00  0.00     0.042 A 
ATOM     12  C   UNL d   1       3.211   3.021  -2.194  0.00  0.00    -0.013 A 
ATOM     13  C   UNL d   1       4.513   2.931  -2.737  0.00  0.00     0.042 A 
ATOM     14  C   UNL d   1       2.590   4.381  -1.997  0.00  0.00     0.052 C 
ATOM     15 CL   UNL d   1       5.392   4.337  -3.241  0.00  0.00    -0.084 Cl
ATOM     16  C   UNL d   1       5.152   1.699  -2.898  0.00  0.00     0.024 A 
ATOM     17  C   UNL d   1       4.500   0.531  -2.535  0.00  0.00     0.004 A 
ATOM     18  C   UNL d   1       3.209   0.597  -2.015  0.00  0.00     0.030 A 
ENDBRANCH   1  11
TORSDOF 4
