REMARK  8 active torsions:
REMARK  status: ('A' for Active; 'I' for Inactive)
REMARK    1  A    between atoms: C_12  and  N_1 
REMARK    2  A    between atoms: C_2  and  N_5 
REMARK    3  A    between atoms: C_3  and  N_13 
REMARK    4  A    between atoms: N_5  and  C_3 
REMARK    5  A    between atoms: C_6  and  C_17 
REMARK       I    between atoms: N_11  and  C_6 
REMARK    6  A    between atoms: O_24  and  C_8 
REMARK    7  A    between atoms: O_25  and  C_10 
REMARK    8  A    between atoms: N_13  and  N_11 
ROOT
ATOM      1  C   UNL d   1      -4.344   2.394  -4.531  0.00  0.00     0.191 C 
ATOM      2  S   UNL d   1      -3.583   3.883  -4.382  0.00  0.00    -0.039 SA
ENDROOT
BRANCH   1   3
ATOM      3  N   UNL d   1      -4.318   1.378  -3.605  0.00  0.00    -0.273 N 
ATOM      4  H   UNL d   1      -5.215   0.911  -3.489  0.00  0.00     0.189 HD
BRANCH   3   5
ATOM      5  N   UNL d   1      -3.590   1.501  -2.401  0.00  0.00    -0.264 N 
ATOM      6  C   UNL d   1      -4.153   2.171  -1.330  0.00  0.00     0.270 C 
ATOM      7  O   UNL d   1      -5.278   2.671  -1.360  0.00  0.00    -0.266 OA
ATOM      8  H   UNL d   1      -2.617   1.213  -2.429  0.00  0.00     0.190 HD
BRANCH   6   9
ATOM      9  C   UNL d   1      -3.352   2.246  -0.078  0.00  0.00     0.033 A 
ATOM     10  C   UNL d   1      -2.446   1.236   0.291  0.00  0.00     0.019 A 
ATOM     11  C   UNL d   1      -1.871   1.244   1.566  0.00  0.00     0.037 A 
ATOM     12  C   UNL d   1      -2.194   2.260   2.476  0.00  0.00     0.102 A 
ATOM     13  C   UNL d   1      -3.047   3.301   2.094  0.00  0.00     0.037 A 
ATOM     14  C   UNL d   1      -3.623   3.288   0.821  0.00  0.00     0.019 A 
BRANCH  12  15
ATOM     15  N   UNL d   1      -1.684   2.199   3.852  0.00  0.00    -0.116 N 
ATOM     16  O   UNL d   1      -1.995   3.119   4.624  0.00  0.00    -0.532 OA
ATOM     17  O   UNL d   1      -0.990   1.223   4.164  0.00  0.00    -0.532 OA
ENDBRANCH  12  15
ENDBRANCH   6   9
ENDBRANCH   3   5
ENDBRANCH   1   3
BRANCH   1  18
ATOM     18  N   UNL d   1      -5.027   2.166  -5.692  0.00  0.00    -0.330 N 
ATOM     19  H   UNL d   1      -5.158   3.013  -6.246  0.00  0.00     0.168 HD
BRANCH  18  20
ATOM     20  C   UNL d   1      -5.231   0.989  -6.459  0.00  0.00     0.070 A 
ATOM     21  C   UNL d   1      -4.935  -0.309  -6.034  0.00  0.00     0.071 A 
ATOM     22  C   UNL d   1      -5.052  -1.406  -6.906  0.00  0.00     0.092 A 
ATOM     23  C   UNL d   1      -5.475  -1.194  -8.223  0.00  0.00     0.070 A 
ATOM     24  C   UNL d   1      -5.783   0.102  -8.657  0.00  0.00     0.065 A 
ATOM     25 CL   UNL d   1      -5.706  -2.455  -9.381  0.00  0.00    -0.081 Cl
ATOM     26  C   UNL d   1      -5.684   1.186  -7.781  0.00  0.00     0.096 A 
BRANCH  22  27
ATOM     27  O   UNL d   1      -4.801  -2.609  -6.299  0.00  0.00    -0.354 OA
ATOM     28  C   UNL d   1      -4.009  -3.544  -7.023  0.00  0.00     0.210 C 
ENDBRANCH  22  27
BRANCH  26  29
ATOM     29  O   UNL d   1      -5.959   2.490  -8.126  0.00  0.00    -0.354 OA
ATOM     30  C   UNL d   1      -6.649   2.706  -9.352  0.00  0.00     0.210 C 
ENDBRANCH  26  29
ENDBRANCH  18  20
ENDBRANCH   1  18
TORSDOF 8
