REMARK  5 active torsions:
REMARK  status: ('A' for Active; 'I' for Inactive)
REMARK       I    between atoms: N_3  and  C_1 
REMARK    1  A    between atoms: C_5  and  C_1 
REMARK    2  A    between atoms: C_2  and  O_7 
REMARK    3  A    between atoms: C_6  and  C_2 
REMARK    4  A    between atoms: C_4  and  N_3 
REMARK    5  A    between atoms: O_7  and  C_8 
ROOT
ATOM      1  C   UNL d   1       2.582  -2.514  -0.454  0.00  0.00     0.069 A 
ATOM      2  C   UNL d   1       3.049  -3.455   0.469  0.00  0.00     0.106 A 
ATOM      3  C   UNL d   1       1.517  -2.888  -1.293  0.00  0.00     0.039 A 
ATOM      4  C   UNL d   1       2.404  -4.695   0.603  0.00  0.00     0.040 A 
ATOM      5  C   UNL d   1       0.857  -4.116  -1.158  0.00  0.00    -0.060 A 
ATOM      6  C   UNL d   1       1.309  -5.020  -0.200  0.00  0.00     0.009 A 
ATOM      7  C   UNL d   1      -0.329  -4.437  -2.019  0.00  0.00     0.048 C 
ENDROOT
BRANCH   1   8
ATOM      8  N   UNL d   1       3.099  -1.200  -0.548  0.00  0.00    -0.320 N 
ATOM      9  C   UNL d   1       2.288  -0.105  -0.802  0.00  0.00     0.256 C 
ATOM     10  O   UNL d   1       1.059  -0.165  -0.878  0.00  0.00    -0.267 OA
ATOM     11  H   UNL d   1       4.055  -1.063  -0.226  0.00  0.00     0.169 HD
BRANCH   9  12
ATOM     12  C   UNL d   1       2.899   1.242  -0.958  0.00  0.00     0.035 A 
ATOM     13  C   UNL d   1       2.064   2.239  -1.496  0.00  0.00     0.041 A 
ATOM     14  C   UNL d   1       2.521   3.542  -1.653  0.00  0.00     0.036 A 
ATOM     15 CL   UNL d   1       1.477   4.737  -2.314  0.00  0.00    -0.084 Cl
ATOM     16  C   UNL d   1       3.813   3.878  -1.272  0.00  0.00     0.047 A 
ATOM     17  C   UNL d   1       4.644   2.892  -0.742  0.00  0.00     0.036 A 
ATOM     18  C   UNL d   1       4.202   1.574  -0.585  0.00  0.00     0.041 A 
ATOM     19 CL   UNL d   1       6.242   3.314  -0.256  0.00  0.00    -0.084 Cl
ENDBRANCH   9  12
ENDBRANCH   1   8
BRANCH   2  20
ATOM     20  O   UNL d   1       4.053  -3.264   1.456  0.00  0.00    -0.273 OA
BRANCH  20  21
ATOM     21  C   UNL d   1       5.122  -2.382   1.472  0.00  0.00     0.298 C 
ATOM     22  O   UNL d   1       5.413  -1.574   0.607  0.00  0.00    -0.259 OA
BRANCH  21  23
ATOM     23  C   UNL d   1       5.907  -2.571   2.725  0.00  0.00     0.043 A 
ATOM     24  C   UNL d   1       7.128  -1.896   2.844  0.00  0.00     0.041 A 
ATOM     25  C   UNL d   1       7.901  -2.050   3.995  0.00  0.00     0.036 A 
ATOM     26 CL   UNL d   1       9.403  -1.223   4.129  0.00  0.00    -0.084 Cl
ATOM     27  C   UNL d   1       7.471  -2.869   5.035  0.00  0.00     0.047 A 
ATOM     28  C   UNL d   1       6.252  -3.532   4.920  0.00  0.00     0.036 A 
ATOM     29  C   UNL d   1       5.465  -3.389   3.776  0.00  0.00     0.041 A 
ATOM     30 CL   UNL d   1       5.709  -4.543   6.202  0.00  0.00    -0.084 Cl
ENDBRANCH  21  23
ENDBRANCH  20  21
ENDBRANCH   2  20
TORSDOF 5
