REMARK  2 active torsions:
REMARK  status: ('A' for Active; 'I' for Inactive)
REMARK    1  A    between atoms: C_2  and  C_1 
REMARK       I    between atoms: N_9  and  C_2 
REMARK    2  A    between atoms: C_12  and  N_9 
ROOT
ATOM      1  C   UNL d   1       2.761  -4.470  -0.038  0.00  0.00    -0.086 C 
ATOM      2  C   UNL d   1       3.230  -5.578  -0.045  0.00  0.00     0.015 C 
ATOM      3  C   UNL d   1       2.145  -3.088   0.008  0.00  0.00     0.088 C 
ATOM      4  C   UNL d   1       2.506  -2.288  -1.264  0.00  0.00     0.053 C 
ATOM      5  C   UNL d   1       2.698  -2.336   1.237  0.00  0.00     0.053 C 
ENDROOT
BRANCH   3   6
ATOM      6  N   UNL d   1       0.684  -3.269   0.105  0.00  0.00    -0.337 N 
ATOM      7  C   UNL d   1      -0.244  -2.246   0.147  0.00  0.00     0.263 C 
ATOM      8  O   UNL d   1       0.114  -1.070   0.154  0.00  0.00    -0.267 OA
ATOM      9  H   UNL d   1       0.347  -4.220   0.068  0.00  0.00     0.164 HD
BRANCH   7  10
ATOM     10  C   UNL d   1      -1.652  -2.612   0.173  0.00  0.00     0.114 A 
ATOM     11  C   UNL d   1      -2.785  -1.799   0.180  0.00  0.00     0.046 A 
ATOM     12  N   UNL d   1      -3.997  -2.487   0.216  0.00  0.00    -0.298 N 
ATOM     13  C   UNL d   1      -2.868  -0.315   0.154  0.00  0.00     0.071 C 
ATOM     14  N   UNL d   1      -3.824  -3.795   0.232  0.00  0.00    -0.269 N 
ATOM     15  HN  UNL d   1      -4.911  -2.033   0.228  1.00  0.00     0.187 HD
ATOM     16  S   UNL d   1      -2.214  -4.232   0.203  0.00  0.00     0.009 SA
ATOM     17  HN  UNL d   1      -4.591  -4.466   0.258  1.00  0.00     0.195 HD
ENDBRANCH   7  10
ENDBRANCH   3   6
TORSDOF 2
