REMARK  7 active torsions:
REMARK  status: ('A' for Active; 'I' for Inactive)
REMARK    1  A    between atoms: C_3  and  C_1 
REMARK    2  A    between atoms: N_5  and  C_2 
REMARK    3  A    between atoms: O_12  and  C_3 
REMARK       I    between atoms: C_8  and  N_5 
REMARK    4  A    between atoms: C_18  and  C_8 
REMARK    5  A    between atoms: S_11  and  C_18 
REMARK    6  A    between atoms: C_21  and  S_11 
REMARK    7  A    between atoms: C_14  and  C_21 
ROOT
ATOM      1  N   UNL d   1       1.686   3.537   0.737  0.00  0.00    -0.325 N 
ATOM      2  C   UNL d   1       2.934   2.969   0.599  0.00  0.00     0.231 C 
ATOM      3  O   UNL d   1       3.218   1.810   0.906  0.00  0.00    -0.272 OA
ATOM      4  H   UNL d   1       1.511   4.395   0.213  0.00  0.00     0.169 HD
ENDROOT
BRANCH   2   5
ATOM      5  C   UNL d   1       4.012   3.869   0.005  0.00  0.00     0.177 C 
BRANCH   5   6
ATOM      6  S   UNL d   1       3.413   5.503  -0.529  0.00  0.00    -0.155 SA
BRANCH   6   7
ATOM      7  C   UNL d   1       5.006   6.222  -1.038  0.00  0.00     0.112 C 
BRANCH   7   8
ATOM      8  C   UNL d   1       4.813   7.630  -1.544  0.00  0.00    -0.049 A 
ATOM      9  C   UNL d   1       4.833   8.716  -0.656  0.00  0.00     0.009 A 
ATOM     10  C   UNL d   1       4.613  10.015  -1.121  0.00  0.00     0.024 A 
ATOM     11  C   UNL d   1       4.367  10.234  -2.474  0.00  0.00     0.034 A 
ATOM     12  C   UNL d   1       4.343   9.166  -3.369  0.00  0.00     0.024 A 
ATOM     13 CL   UNL d   1       4.085  11.832  -3.045  0.00  0.00    -0.084 Cl
ATOM     14  C   UNL d   1       4.562   7.867  -2.905  0.00  0.00     0.009 A 
ENDBRANCH   7   8
ENDBRANCH   6   7
ENDBRANCH   5   6
ENDBRANCH   2   5
BRANCH   1  15
ATOM     15  C   UNL d   1       0.592   2.924   1.343  0.00  0.00     0.058 A 
ATOM     16  C   UNL d   1      -0.722   3.278   1.070  0.00  0.00     0.106 A 
ATOM     17  S   UNL d   1      -1.827   2.342   2.008  0.00  0.00    -0.094 SA
ATOM     18  C   UNL d   1      -0.572   1.481   2.767  0.00  0.00     0.053 A 
ATOM     19  C   UNL d   1       0.664   1.888   2.326  0.00  0.00     0.038 A 
BRANCH  16  20
ATOM     20  C   UNL d   1      -1.290   4.214   0.112  0.00  0.00     0.302 C 
ATOM     21  O   UNL d   1      -2.485   4.374  -0.124  0.00  0.00    -0.259 OA
BRANCH  20  22
ATOM     22  O   UNL d   1      -0.298   4.888  -0.545  0.00  0.00    -0.322 OA
ATOM     23  C   UNL d   1      -0.746   5.744  -1.598  0.00  0.00     0.213 C 
ENDBRANCH  20  22
ENDBRANCH  16  20
ENDBRANCH   1  15
TORSDOF 7
