REMARK  6 active torsions:
REMARK  status: ('A' for Active; 'I' for Inactive)
REMARK    1  A    between atoms: C_3  and  C_1 
REMARK    2  A    between atoms: S_21  and  C_6 
REMARK    3  A    between atoms: C_23  and  C_13 
REMARK    4  A    between atoms: C_16  and  C_27 
REMARK    5  A    between atoms: C_27  and  S_21 
REMARK    6  A    between atoms: C_22  and  C_26 
ROOT
ATOM      1  N   UNL d   1       1.973  -5.359  -0.342  0.00  0.00    -0.322 N 
ATOM      2  HN  UNL d   1       0.969  -5.428  -0.507  1.00  0.00     0.169 HD
ATOM      3  C   UNL d   1       2.894  -6.381  -0.182  0.00  0.00     0.137 A 
ATOM      4  N   UNL d   1       4.148  -5.943   0.010  0.00  0.00    -0.242 N 
ATOM      5  HN  UNL d   1       4.994  -6.499   0.132  1.00  0.00     0.196 HD
ATOM      6  C   UNL d   1       2.712  -4.277  -0.227  0.00  0.00     0.158 A 
ATOM      7  O   UNL d   1       4.029  -4.560   0.003  0.00  0.00    -0.222 OA
ENDROOT
BRANCH   6   8
ATOM      8  C   UNL d   1       2.314  -2.839  -0.242  0.00  0.00     0.169 C 
BRANCH   8   9
ATOM      9  S   UNL d   1       3.599  -1.765  -0.964  0.00  0.00    -0.084 SA
BRANCH   9  10
ATOM     10  C   UNL d   1       2.902  -0.198  -0.758  0.00  0.00     0.163 A 
ATOM     11  N   UNL d   1       3.561   0.964  -1.074  0.00  0.00    -0.314 N 
ATOM     12  C   UNL d   1       2.647   1.970  -0.872  0.00  0.00     0.151 A 
ATOM     13  C   UNL d   1       4.940   1.072  -1.469  0.00  0.00     0.160 C 
ATOM     14  N   UNL d   1       1.543   1.443  -0.368  0.00  0.00    -0.281 N 
ATOM     15  N   UNL d   1       1.701   0.077  -0.309  0.00  0.00    -0.278 N 
ATOM     16  HN  UNL d   1       0.715   1.961  -0.073  1.00  0.00     0.188 HD
ATOM     17  HN  UNL d   1       1.012  -0.598   0.023  1.00  0.00     0.189 HD
BRANCH  12  18
ATOM     18  C   UNL d   1       2.805   3.426  -1.174  0.00  0.00     0.085 A 
ATOM     19  N   UNL d   1       3.912   3.933  -1.834  0.00  0.00    -0.351 N 
ATOM     20  C   UNL d   1       3.784   5.232  -2.003  0.00  0.00     0.047 A 
ATOM     21  HN  UNL d   1       4.711   3.381  -2.145  1.00  0.00     0.166 HD
ATOM     22  C   UNL d   1       4.784   6.087  -2.700  0.00  0.00     0.076 C 
ATOM     23  S   UNL d   1       2.350   5.922  -1.355  0.00  0.00    -0.087 SA
ATOM     24  C   UNL d   1       1.848   4.363  -0.843  0.00  0.00     0.084 A 
ENDBRANCH  12  18
ENDBRANCH   9  10
ENDBRANCH   8   9
ENDBRANCH   6   8
BRANCH   3  25
ATOM     25  C   UNL d   1       2.530  -7.797  -0.195  0.00  0.00     0.010 A 
ATOM     26  C   UNL d   1       1.196  -8.194  -0.347  0.00  0.00     0.016 A 
ATOM     27  C   UNL d   1       0.848  -9.551  -0.336  0.00  0.00     0.010 A 
ATOM     28  C   UNL d   1       1.823 -10.551  -0.176  0.00  0.00    -0.035 A 
ATOM     29  C   UNL d   1       3.160 -10.149  -0.031  0.00  0.00     0.010 A 
ATOM     30  C   UNL d   1       3.506  -8.791  -0.039  0.00  0.00     0.016 A 
BRANCH  28  31
ATOM     31  C   UNL d   1       1.410 -12.008  -0.172  0.00  0.00     0.141 C 
ATOM     32  S   UNL d   1       1.855 -12.890   1.352  0.00  0.00    -0.148 SA
ATOM     33  C   UNL d   1       1.744 -14.531   0.606  0.00  0.00     0.085 C 
ATOM     34  C   UNL d   1       2.487 -14.470  -0.717  0.00  0.00     0.085 C 
ATOM     35  S   UNL d   1       2.055 -12.940  -1.602  0.00  0.00    -0.148 SA
ENDBRANCH  28  31
ENDBRANCH   3  25
TORSDOF 6
