REMARK  4 active torsions:
REMARK  status: ('A' for Active; 'I' for Inactive)
REMARK    1  A    between atoms: C_4  and  C_1 
REMARK    2  A    between atoms: C_5  and  C_1 
REMARK    3  A    between atoms: C_9  and  C_4 
REMARK    4  A    between atoms: C_8  and  C_5 
ROOT
ATOM      1  C   UNL d   1      -0.105   0.958   0.053  0.00  0.00     0.102 A 
ATOM      2  C   UNL d   1       0.796  -0.320   0.142  0.00  0.00    -0.020 A 
ATOM      3  C   UNL d   1      -0.690  -0.475  -0.057  0.00  0.00     0.016 A 
ATOM      4  C   UNL d   1       1.716  -0.704  -1.001  0.00  0.00     0.017 C 
ATOM      5  C   UNL d   1       1.341  -0.775   1.478  0.00  0.00     0.017 C 
ATOM      6  C   UNL d   1      -1.281  -1.053  -1.297  0.00  0.00     0.012 C 
ENDROOT
BRANCH   1   7
ATOM      7  C   UNL d   1      -0.510   1.693   1.314  0.00  0.00     0.177 C 
ATOM      8  O   UNL d   1      -1.626   1.488   1.787  0.00  0.00    -0.291 OA
BRANCH   7   9
ATOM      9  C   UNL d   1       0.376   2.690   1.968  0.00  0.00     0.011 A 
ATOM     10  C   UNL d   1       1.759   2.729   1.783  0.00  0.00     0.015 A 
ATOM     11  C   UNL d   1       2.534   3.631   2.522  0.00  0.00     0.001 A 
ATOM     12  C   UNL d   1       1.930   4.514   3.420  0.00  0.00     0.000 A 
ATOM     13  C   UNL d   1       0.548   4.507   3.579  0.00  0.00     0.001 A 
ATOM     14  C   UNL d   1      -0.224   3.595   2.860  0.00  0.00     0.015 A 
ENDBRANCH   7   9
ENDBRANCH   1   7
BRANCH   1  15
ATOM     15  C   UNL d   1      -0.005   1.826  -1.179  0.00  0.00     0.177 C 
ATOM     16  O   UNL d   1       1.099   2.206  -1.556  0.00  0.00    -0.291 OA
BRANCH  15  17
ATOM     17  C   UNL d   1      -1.236   2.260  -1.903  0.00  0.00     0.011 A 
ATOM     18  C   UNL d   1      -2.523   2.120  -1.365  0.00  0.00     0.015 A 
ATOM     19  C   UNL d   1      -3.643   2.534  -2.090  0.00  0.00     0.001 A 
ATOM     20  C   UNL d   1      -3.490   3.089  -3.357  0.00  0.00     0.000 A 
ATOM     21  C   UNL d   1      -2.219   3.236  -3.902  0.00  0.00     0.001 A 
ATOM     22  C   UNL d   1      -1.094   2.827  -3.179  0.00  0.00     0.015 A 
ENDBRANCH  15  17
ENDBRANCH   1  15
TORSDOF 4
