REMARK  5 active torsions:
REMARK  status: ('A' for Active; 'I' for Inactive)
REMARK    1  A    between atoms: N_6  and  C_1 
REMARK    2  A    between atoms: S_16  and  C_4 
REMARK    3  A    between atoms: C_14  and  C_5 
REMARK       I    between atoms: C_8  and  N_6 
REMARK    4  A    between atoms: C_7  and  C_9 
REMARK       I    between atoms: N_12  and  C_8 
REMARK    5  A    between atoms: C_11  and  N_12 
ROOT
ATOM      1  C   UNL d   1       1.159  -1.321  -0.715  0.00  0.00     0.091 A 
ATOM      2  C   UNL d   1      -0.933  -0.288  -0.599  0.00  0.00     0.082 A 
ATOM      3  S   UNL d   1       1.518   0.290  -1.090  0.00  0.00    -0.063 SA
ATOM      4  C   UNL d   1      -0.116   0.783  -0.914  0.00  0.00     0.064 A 
ATOM      5  C   UNL d   1      -0.199  -1.533  -0.506  0.00  0.00     0.031 A 
ATOM      6  C   UNL d   1      -2.354  -0.168  -0.421  0.00  0.00     0.102 C 
ATOM      7  N   UNL d   1      -3.490  -0.070  -0.215  0.00  0.00    -0.191 NA
ENDROOT
BRANCH   5   8
ATOM      8  C   UNL d   1      -0.746  -2.889  -0.319  0.00  0.00    -0.021 A 
ATOM      9  C   UNL d   1      -0.304  -3.946  -1.137  0.00  0.00     0.014 A 
ATOM     10  C   UNL d   1      -0.801  -5.241  -0.975  0.00  0.00     0.024 A 
ATOM     11  C   UNL d   1      -1.783  -5.485  -0.022  0.00  0.00     0.034 A 
ATOM     12  C   UNL d   1      -2.255  -4.448   0.780  0.00  0.00     0.024 A 
ATOM     13 CL   UNL d   1      -2.421  -7.072   0.159  0.00  0.00    -0.084 Cl
ATOM     14  C   UNL d   1      -1.728  -3.157   0.643  0.00  0.00     0.014 A 
ENDBRANCH   5   8
BRANCH   4  15
ATOM     15  S   UNL d   1      -0.541   2.468  -1.223  0.00  0.00    -0.126 SA
ATOM     16  C   UNL d   1      -1.384   2.956   0.299  0.00  0.00     0.096 C 
ENDBRANCH   4  15
BRANCH   1  17
ATOM     17  N   UNL d   1       2.171  -2.250  -0.555  0.00  0.00    -0.302 N 
ATOM     18  C   UNL d   1       3.364  -2.416  -1.189  0.00  0.00     0.325 C 
ATOM     19  N   UNL d   1       3.717  -1.531  -2.171  0.00  0.00    -0.308 N 
ATOM     20  O   UNL d   1       4.032  -3.406  -0.891  0.00  0.00    -0.247 OA
ATOM     21  H   UNL d   1       3.438  -0.582  -1.958  0.00  0.00     0.170 HD
ATOM     22  H   UNL d   1       1.937  -3.088  -0.033  0.00  0.00     0.171 HD
BRANCH  19  23
ATOM     23  C   UNL d   1       4.911  -1.692  -2.912  0.00  0.00     0.051 A 
ATOM     24  C   UNL d   1       5.286  -2.881  -3.566  0.00  0.00     0.074 A 
ATOM     25  C   UNL d   1       6.575  -2.953  -4.140  0.00  0.00     0.018 A 
ATOM     26  C   UNL d   1       7.447  -1.867  -4.107  0.00  0.00     0.001 A 
ATOM     27  C   UNL d   1       7.034  -0.673  -3.528  0.00  0.00     0.002 A 
ATOM     28  C   UNL d   1       5.768  -0.581  -2.949  0.00  0.00     0.030 A 
BRANCH  24  29
ATOM     29  C   UNL d   1       4.384  -4.075  -3.786  0.00  0.00     0.419 C 
ATOM     30  F   UNL d   1       3.079  -3.925  -3.420  0.00  0.00    -0.166 F 
ATOM     31  F   UNL d   1       4.323  -4.401  -5.117  0.00  0.00    -0.166 F 
ATOM     32  F   UNL d   1       4.831  -5.207  -3.173  0.00  0.00    -0.166 F 
ENDBRANCH  24  29
ENDBRANCH  19  23
ENDBRANCH   1  17
TORSDOF 5
