REMARK  8 active torsions:
REMARK  status: ('A' for Active; 'I' for Inactive)
REMARK    1  A    between atoms: N_2  and  C_1 
REMARK    2  A    between atoms: C_3  and  C_1 
REMARK    3  A    between atoms: C_5  and  C_1 
REMARK    4  A    between atoms: N_6  and  C_1 
REMARK       I    between atoms: C_4  and  N_2 
REMARK    5  A    between atoms: C_8  and  C_4 
REMARK    6  A    between atoms: O_14  and  C_5 
REMARK    7  A    between atoms: C_13  and  N_6 
REMARK    8  A    between atoms: C_23  and  O_14 
ROOT
ATOM      1  C   UNL d   1       0.819   0.050  -0.018  0.00  0.00     0.297 C 
ENDROOT
BRANCH   1   2
ATOM      2  N   UNL d   1       0.190   0.436  -1.292  0.00  0.00    -0.315 N 
ATOM      3  C   UNL d   1       0.073  -0.424  -2.351  0.00  0.00     0.254 C 
ATOM      4  O   UNL d   1       0.455  -1.585  -2.320  0.00  0.00    -0.268 OA
ATOM      5  H   UNL d   1      -0.279   1.332  -1.320  0.00  0.00     0.166 HD
BRANCH   3   6
ATOM      6  C   UNL d   1      -0.571   0.133  -3.568  0.00  0.00     0.032 A 
ATOM      7  C   UNL d   1      -0.185   1.383  -4.063  0.00  0.00     0.017 A 
ATOM      8  C   UNL d   1      -0.729   1.852  -5.261  0.00  0.00     0.001 A 
ATOM      9  C   UNL d   1      -1.662   1.080  -5.956  0.00  0.00     0.000 A 
ATOM     10  C   UNL d   1      -2.061  -0.159  -5.451  0.00  0.00     0.001 A 
ATOM     11  C   UNL d   1      -1.512  -0.637  -4.259  0.00  0.00     0.017 A 
ENDBRANCH   3   6
ENDBRANCH   1   2
BRANCH   1  12
ATOM     12  C   UNL d   1       0.334  -1.321   0.595  0.00  0.00     0.442 C 
ATOM     13  F   UNL d   1      -0.812  -1.775   0.026  0.00  0.00    -0.166 F 
ATOM     14  F   UNL d   1       1.272  -2.293   0.450  0.00  0.00    -0.166 F 
ATOM     15  F   UNL d   1       0.074  -1.251   1.927  0.00  0.00    -0.166 F 
ENDBRANCH   1  12
BRANCH   1  16
ATOM     16  C   UNL d   1       0.380   1.064   1.067  0.00  0.00     0.318 C 
ATOM     17  O   UNL d   1      -0.653   1.720   0.998  0.00  0.00    -0.260 OA
BRANCH  16  18
ATOM     18  O   UNL d   1       1.305   1.179   2.070  0.00  0.00    -0.318 OA
BRANCH  18  19
ATOM     19  C   UNL d   1       1.050   2.175   3.065  0.00  0.00     0.174 C 
ATOM     20  C   UNL d   1       1.366   3.567   2.545  0.00  0.00     0.034 C 
ENDBRANCH  18  19
ENDBRANCH  16  18
ENDBRANCH   1  16
BRANCH   1  21
ATOM     21  N   UNL d   1       2.292   0.119  -0.259  0.00  0.00    -0.348 N 
ATOM     22  H   UNL d   1       2.655  -0.753  -0.643  0.00  0.00     0.163 HD
BRANCH  21  23
ATOM     23  C   UNL d   1       3.034   1.248  -0.574  0.00  0.00     0.030 A 
ATOM     24  C   UNL d   1       2.495   2.533  -0.730  0.00  0.00     0.032 A 
ATOM     25  C   UNL d   1       3.307   3.651  -0.946  0.00  0.00     0.044 A 
ATOM     26  C   UNL d   1       4.682   3.499  -0.986  0.00  0.00     0.116 A 
ATOM     27  C   UNL d   1       5.257   2.251  -0.812  0.00  0.00     0.044 A 
ATOM     28  F   UNL d   1       5.459   4.572  -1.181  0.00  0.00    -0.206 F 
ATOM     29  C   UNL d   1       4.435   1.135  -0.603  0.00  0.00     0.032 A 
ENDBRANCH  21  23
ENDBRANCH   1  21
TORSDOF 8
