REMARK  5 active torsions:
REMARK  status: ('A' for Active; 'I' for Inactive)
REMARK    1  A    between atoms: C_2  and  S_1 
REMARK    2  A    between atoms: N_7  and  S_1 
REMARK    3  A    between atoms: C_8  and  C_3 
REMARK    4  A    between atoms: C_11  and  N_7 
REMARK    5  A    between atoms: O_13  and  C_8 
ROOT
ATOM      1  C   UNL d   1       0.395  -1.738   0.048  0.00  0.00     0.127 A 
ATOM      2  C   UNL d   1       1.077  -2.914  -0.412  0.00  0.00     0.094 A 
ATOM      3  C   UNL d   1      -0.768  -2.161   0.661  0.00  0.00     0.073 A 
ATOM      4  C   UNL d   1       0.344  -3.976   0.098  0.00  0.00     0.067 A 
ATOM      5  O   UNL d   1      -0.780  -3.522   0.714  0.00  0.00    -0.318 OA
ATOM      6  C   UNL d   1       0.524  -5.442   0.173  0.00  0.00     0.078 C 
ATOM      7  C   UNL d   1      -1.948  -1.523   1.283  0.00  0.00     0.078 C 
ENDROOT
BRANCH   1   8
ATOM      8  S   UNL d   1       0.959  -0.122  -0.129  0.00  0.00     0.263 S 
ATOM      9  O   UNL d   1      -0.060   0.721   0.442  0.00  0.00    -0.200 OA
ATOM     10  O   UNL d   1       1.288  -0.021  -1.535  0.00  0.00    -0.200 OA
BRANCH   8  11
ATOM     11  N   UNL d   1       2.381   0.065   0.739  0.00  0.00    -0.306 N 
ATOM     12  H   UNL d   1       3.119   0.500   0.184  0.00  0.00     0.173 HD
BRANCH  11  13
ATOM     13  C   UNL d   1       2.497   0.083   2.216  0.00  0.00     0.029 C 
ATOM     14  C   UNL d   1       2.130  -1.280   2.805  0.00  0.00     0.038 C 
ATOM     15  C   UNL d   1       3.971   0.369   2.568  0.00  0.00     0.038 C 
ATOM     16  C   UNL d   1       1.643   1.186   2.844  0.00  0.00     0.038 C 
ENDBRANCH  11  13
ENDBRANCH   8  11
ENDBRANCH   1   8
BRANCH   2  17
ATOM     17  C   UNL d   1       2.294  -2.998  -1.200  0.00  0.00     0.297 C 
ATOM     18  O   UNL d   1       3.195  -2.167  -1.153  0.00  0.00    -0.259 OA
BRANCH  17  19
ATOM     19  O   UNL d   1       2.309  -4.095  -2.013  0.00  0.00    -0.322 OA
ATOM     20  C   UNL d   1       3.425  -4.166  -2.906  0.00  0.00     0.213 C 
ENDBRANCH  17  19
ENDBRANCH   2  17
TORSDOF 5
