REMARK  4 active torsions:
REMARK  status: ('A' for Active; 'I' for Inactive)
REMARK    1  A    between atoms: C_9  and  N_1 
REMARK    2  A    between atoms: C_7  and  C_2 
REMARK    3  A    between atoms: N_14  and  C_12 
REMARK    4  A    between atoms: C_13  and  N_14 
ROOT
ATOM      1  N   UNL d   1       7.018  -4.674  -0.990  0.00  0.00    -0.191 NA
ATOM      2  C   UNL d   1       6.290  -4.765  -0.091  0.00  0.00     0.101 C 
ATOM      3  C   UNL d   1       5.401  -4.835   1.034  0.00  0.00     0.066 A 
ATOM      4  C   UNL d   1       4.179  -4.133   1.045  0.00  0.00     0.033 A 
ATOM      5  C   UNL d   1       5.787  -5.606   2.144  0.00  0.00     0.024 A 
ATOM      6  C   UNL d   1       3.349  -4.268   2.174  0.00  0.00     0.025 A 
ATOM      7  C   UNL d   1       4.962  -5.693   3.265  0.00  0.00     0.002 A 
ATOM      8  C   UNL d   1       3.743  -5.026   3.279  0.00  0.00     0.002 A 
ENDROOT
BRANCH   4   9
ATOM      9  N   UNL d   1       3.780  -3.340  -0.075  0.00  0.00    -0.268 NA
ATOM     10  H   UNL d   1       4.574  -2.780  -0.394  0.00  0.00     0.133 HD
BRANCH   9  11
ATOM     11  C   UNL d   1       2.590  -2.643  -0.080  0.00  0.00     0.066 C 
ATOM     12  C   UNL d   1       2.437  -1.315  -0.023  0.00  0.00     0.063 C 
BRANCH  12  13
ATOM     13  C   UNL d   1       1.141  -0.749   0.071  0.00  0.00     0.139 C 
ATOM     14  N   UNL d   1       0.891   0.605  -0.145  0.00  0.00    -0.225 N 
ATOM     15  N   UNL d   1      -0.347   0.876   0.338  0.00  0.00     0.001 NA
ATOM     16  N   UNL d   1      -0.886  -0.292   0.643  0.00  0.00    -0.007 NA
ATOM     17  N   UNL d   1       0.015  -1.305   0.481  0.00  0.00    -0.270 N 
ATOM     18  HN  UNL d   1      -0.150  -2.298   0.645  1.00  0.00     0.185 HD
BRANCH  14  19
ATOM     19  C   UNL d   1       1.644   1.618  -0.799  0.00  0.00     0.056 A 
ATOM     20  C   UNL d   1       2.645   1.301  -1.731  0.00  0.00     0.034 A 
ATOM     21  C   UNL d   1       3.324   2.321  -2.402  0.00  0.00     0.044 A 
ATOM     22  C   UNL d   1       3.002   3.648  -2.148  0.00  0.00     0.116 A 
ATOM     23  C   UNL d   1       2.013   3.980  -1.232  0.00  0.00     0.044 A 
ATOM     24  F   UNL d   1       3.641   4.619  -2.813  0.00  0.00    -0.206 F 
ATOM     25  C   UNL d   1       1.326   2.967  -0.559  0.00  0.00     0.034 A 
ENDBRANCH  14  19
ENDBRANCH  12  13
ENDBRANCH   9  11
ENDBRANCH   4   9
TORSDOF 4
