REMARK  2 active torsions:
REMARK  status: ('A' for Active; 'I' for Inactive)
REMARK    1  A    between atoms: N_3  and  C_1 
REMARK    2  A    between atoms: C_7  and  C_2 
ROOT
ATOM      1  C   UNL d   1      -2.720  -1.673  -0.025  0.00  0.00     0.115 C 
ATOM      2  C   UNL d   1      -3.450  -0.419  -0.363  0.00  0.00     0.219 C 
ATOM      3  C   UNL d   1      -1.404  -1.741   0.212  0.00  0.00     0.049 C 
ATOM      4  O   UNL d   1      -2.733   0.775   0.039  0.00  0.00    -0.334 OA
ATOM      5  C   UNL d   1      -0.636  -0.490   0.105  0.00  0.00     0.011 A 
ATOM      6  C   UNL d   1      -1.365   0.711   0.041  0.00  0.00     0.081 A 
ATOM      7  C   UNL d   1       0.790  -0.448   0.070  0.00  0.00    -0.013 A 
ATOM      8  C   UNL d   1      -0.720   1.942   0.012  0.00  0.00     0.038 A 
ATOM      9  C   UNL d   1       1.430   0.819   0.008  0.00  0.00    -0.025 A 
ATOM     10  C   UNL d   1       0.668   1.995  -0.007  0.00  0.00     0.015 A 
ATOM     11  C   UNL d   1       1.628  -1.592   0.077  0.00  0.00     0.013 A 
ATOM     12  C   UNL d   1       2.831   0.906  -0.044  0.00  0.00     0.012 A 
ATOM     13  C   UNL d   1       3.021  -1.488   0.023  0.00  0.00     0.001 A 
ATOM     14  C   UNL d   1       3.622  -0.240  -0.038  0.00  0.00     0.001 A 
ENDROOT
BRANCH   2  15
ATOM     15  C   UNL d   1      -4.856  -0.221   0.198  0.00  0.00    -0.012 A 
ATOM     16  C   UNL d   1      -5.175  -0.242   1.591  0.00  0.00    -0.017 A 
ATOM     17  C   UNL d   1      -6.515   0.023   1.982  0.00  0.00    -0.025 A 
ATOM     18  C   UNL d   1      -4.244  -0.501   2.627  0.00  0.00     0.013 A 
ATOM     19  C   UNL d   1      -6.873   0.014   3.340  0.00  0.00     0.012 A 
ATOM     20  C   UNL d   1      -7.492   0.303   1.018  0.00  0.00     0.012 A 
ATOM     21  C   UNL d   1      -5.934  -0.266   4.330  0.00  0.00     0.001 A 
ATOM     22  C   UNL d   1      -4.620  -0.527   3.973  0.00  0.00     0.001 A 
ATOM     23  C   UNL d   1      -7.177   0.317  -0.336  0.00  0.00     0.002 A 
ATOM     24  C   UNL d   1      -5.875   0.058  -0.741  0.00  0.00     0.011 A 
ENDBRANCH   2  15
BRANCH   1  25
ATOM     25  N   UNL d   1      -3.463  -2.910  -0.081  0.00  0.00    -0.117 N 
ATOM     26  O   UNL d   1      -3.111  -3.830   0.672  0.00  0.00    -0.532 OA
ATOM     27  O   UNL d   1      -4.373  -2.988  -0.914  0.00  0.00    -0.532 OA
ENDBRANCH   1  25
TORSDOF 2
