REMARK  7 active torsions:
REMARK  status: ('A' for Active; 'I' for Inactive)
REMARK    1  A    between atoms: C_9  and  S_1 
REMARK    2  A    between atoms: C_15  and  S_1 
REMARK    3  A    between atoms: C_10  and  C_4 
REMARK    4  A    between atoms: C_5  and  C_9 
REMARK    5  A    between atoms: C_17  and  C_6 
REMARK    6  A    between atoms: C_16  and  C_7 
REMARK    7  A    between atoms: O_20  and  C_8 
ROOT
ATOM      1  C   UNL d   1       3.588  -1.772   6.009  0.00  0.00    -0.016 A 
ATOM      2  C   UNL d   1       1.931  -0.772   7.590  0.00  0.00    -0.016 A 
ATOM      3  C   UNL d   1       2.905  -1.748   7.250  0.00  0.00     0.079 A 
ATOM      4  C   UNL d   1       2.123   0.077   5.294  0.00  0.00    -0.008 A 
ATOM      5  C   UNL d   1       1.544   0.117   6.565  0.00  0.00     0.024 A 
ATOM      6  C   UNL d   1       3.156  -0.838   5.052  0.00  0.00     0.024 A 
ENDROOT
BRANCH   4   7
ATOM      7  C   UNL d   1       1.679   0.987   4.242  0.00  0.00     0.049 A 
ATOM      8  N   UNL d   1       1.164   2.247   4.519  0.00  0.00    -0.352 N 
ATOM      9  C   UNL d   1       0.871   2.876   3.394  0.00  0.00     0.065 A 
ATOM     10  HN  UNL d   1       1.030   2.630   5.455  1.00  0.00     0.166 HD
ATOM     11  S   UNL d   1       1.279   2.020   1.956  0.00  0.00    -0.085 SA
ATOM     12  C   UNL d   1       1.744   0.676   2.897  0.00  0.00     0.081 A 
BRANCH   9  13
ATOM     13  C   UNL d   1       0.385   4.284   3.329  0.00  0.00     0.206 C 
BRANCH  13  14
ATOM     14  S   UNL d   1      -1.254   4.333   2.608  0.00  0.00     0.157 S 
ATOM     15  O   UNL d   1      -2.181   3.690   3.521  0.00  0.00    -0.227 OA
ATOM     16  O   UNL d   1      -1.168   3.881   1.223  0.00  0.00    -0.227 OA
BRANCH  14  17
ATOM     17  C   UNL d   1      -1.698   6.103   2.536  0.00  0.00     0.053 C 
ATOM     18  C   UNL d   1      -0.680   6.878   1.685  0.00  0.00     0.031 C 
ATOM     19  C   UNL d   1      -3.085   6.218   1.878  0.00  0.00     0.031 C 
ATOM     20  C   UNL d   1      -1.764   6.702   3.947  0.00  0.00     0.031 C 
ENDBRANCH  14  17
ENDBRANCH  13  14
ENDBRANCH   9  13
ENDBRANCH   4   7
BRANCH   2  21
ATOM     21  C   UNL d   1       1.262  -0.659   8.986  0.00  0.00    -0.021 C 
ATOM     22  C   UNL d   1       0.005  -1.548   9.006  0.00  0.00     0.019 C 
ATOM     23  C   UNL d   1       2.193  -1.064  10.156  0.00  0.00     0.019 C 
ATOM     24  C   UNL d   1       0.823   0.792   9.329  0.00  0.00     0.019 C 
ENDBRANCH   2  21
BRANCH   1  25
ATOM     25  C   UNL d   1       4.775  -2.716   5.683  0.00  0.00    -0.021 C 
ATOM     26  C   UNL d   1       5.324  -2.534   4.239  0.00  0.00     0.019 C 
ATOM     27  C   UNL d   1       5.966  -2.411   6.620  0.00  0.00     0.019 C 
ATOM     28  C   UNL d   1       4.402  -4.208   5.801  0.00  0.00     0.019 C 
ENDBRANCH   1  25
BRANCH   3  29
ATOM     29  O   UNL d   1       3.147  -2.755   8.140  0.00  0.00    -0.360 OA
ATOM     30  H   UNL d   1       3.993  -2.551   8.565  0.00  0.00     0.217 HD
ENDBRANCH   3  29
TORSDOF 7
