REMARK  4 active torsions:
REMARK  status: ('A' for Active; 'I' for Inactive)
REMARK    1  A    between atoms: C_6  and  N_1 
REMARK    2  A    between atoms: C_5  and  C_2 
REMARK    3  A    between atoms: C_11  and  C_6 
REMARK    4  A    between atoms: C_14  and  C_11 
ROOT
ATOM      1  N   UNL d   1      -0.551  -1.098   0.158  0.00  0.00    -0.334 N 
ATOM      2  C   UNL d   1       0.856  -1.267  -0.161  0.00  0.00     0.184 C 
ATOM      3  S   UNL d   1       1.602   0.379  -0.080  0.00  0.00    -0.129 SA
ATOM      4  C   UNL d   1      -1.045   0.193   0.144  0.00  0.00     0.230 C 
ATOM      5  C   UNL d   1       0.009   1.212  -0.222  0.00  0.00     0.179 C 
ATOM      6  O   UNL d   1      -2.213   0.498   0.368  0.00  0.00    -0.273 OA
ENDROOT
BRANCH   1   7
ATOM      7  C   UNL d   1      -1.413  -2.272   0.320  0.00  0.00     0.133 C 
BRANCH   7   8
ATOM      8  C   UNL d   1      -2.655  -2.346  -0.574  0.00  0.00     0.077 C 
BRANCH   8   9
ATOM      9  C   UNL d   1      -2.417  -2.319  -2.065  0.00  0.00     0.010 A 
ATOM     10  N   UNL d   1      -1.151  -2.405  -2.538  0.00  0.00    -0.369 N 
ATOM     11  C   UNL d   1      -0.984  -2.345  -3.880  0.00  0.00     0.088 A 
ATOM     12  HN  UNL d   1      -0.355  -2.510  -1.909  1.00  0.00     0.165 HD
ATOM     13  C   UNL d   1      -2.024  -2.221  -4.783  0.00  0.00     0.017 A 
ATOM     14  C   UNL d   1      -3.319  -2.166  -4.286  0.00  0.00     0.003 A 
ATOM     15  C   UNL d   1      -3.521  -2.217  -2.911  0.00  0.00     0.025 A 
ENDBRANCH   8   9
ENDBRANCH   7   8
ENDBRANCH   1   7
BRANCH   2  16
ATOM     16  C   UNL d   1       1.558  -2.260   0.733  0.00  0.00    -0.010 A 
ATOM     17  C   UNL d   1       2.248  -3.332   0.172  0.00  0.00     0.097 A 
ATOM     18  N   UNL d   1       2.813  -4.333   0.885  0.00  0.00    -0.375 N 
ATOM     19  C   UNL d   1       2.692  -4.265   2.227  0.00  0.00     0.087 A 
ATOM     20  HN  UNL d   1       3.305  -5.102   0.430  1.00  0.00     0.164 HD
ATOM     21  C   UNL d   1       2.054  -3.231   2.891  0.00  0.00     0.018 A 
ATOM     22  C   UNL d   1       1.485  -2.212   2.132  0.00  0.00     0.013 A 
ENDBRANCH   2  16
TORSDOF 4
