REMARK  6 active torsions:
REMARK  status: ('A' for Active; 'I' for Inactive)
REMARK    1  A    between atoms: C_7  and  C_1 
REMARK    2  A    between atoms: C_2  and  C_4 
REMARK    3  A    between atoms: C_3  and  C_5 
REMARK    4  A    between atoms: C_14  and  C_9 
REMARK    5  A    between atoms: C_15  and  C_16 
REMARK    6  A    between atoms: O_24  and  C_15 
ROOT
ATOM      1  C   UNL d   1      -0.406   4.672  -1.064  0.00  0.00     0.049 A 
ATOM      2  C   UNL d   1      -1.508   4.408   1.096  0.00  0.00     0.049 A 
ATOM      3  C   UNL d   1      -0.498   2.464  -0.003  0.00  0.00    -0.001 A 
ATOM      4  C   UNL d   1      -1.106   5.217   0.023  0.00  0.00     0.032 A 
ATOM      5  C   UNL d   1      -0.118   3.296  -1.067  0.00  0.00     0.030 A 
ATOM      6  C   UNL d   1      -1.211   3.034   1.062  0.00  0.00     0.030 A 
ENDROOT
BRANCH   3   7
ATOM      7  C   UNL d   1      -0.105   1.057   0.039  0.00  0.00     0.086 A 
ATOM      8  O   UNL d   1       0.771   0.645  -0.923  0.00  0.00    -0.310 OA
ATOM      9  C   UNL d   1       1.114  -0.668  -0.688  0.00  0.00     0.076 A 
ATOM     10  C   UNL d   1       0.409  -1.084   0.434  0.00  0.00     0.040 A 
ATOM     11  C   UNL d   1      -0.370   0.006   0.889  0.00  0.00     0.041 A 
BRANCH   9  12
ATOM     12  C   UNL d   1       2.041  -1.405  -1.473  0.00  0.00     0.044 C 
ATOM     13  C   UNL d   1       2.634  -0.855  -2.541  0.00  0.00     0.084 C 
BRANCH  13  14
ATOM     14  C   UNL d   1       3.603  -1.657  -3.309  0.00  0.00     0.165 C 
ATOM     15  O   UNL d   1       3.913  -2.805  -3.045  0.00  0.00    -0.647 OA
BRANCH  14  16
ATOM     16  O   UNL d   1       4.115  -0.974  -4.351  0.00  0.00    -0.773 OA
ATOM     17  H   UNL d   1       3.788  -0.064  -4.462  0.00  0.00     0.167 HD
ENDBRANCH  14  16
ENDBRANCH  13  14
ENDBRANCH   9  12
ENDBRANCH   3   7
BRANCH   1  18
ATOM     18  C   UNL d   1       0.079   5.540  -2.201  0.00  0.00     0.417 C 
ATOM     19  F   UNL d   1      -0.210   6.860  -2.038  0.00  0.00    -0.166 F 
ATOM     20  F   UNL d   1       1.430   5.472  -2.362  0.00  0.00    -0.166 F 
ATOM     21  F   UNL d   1      -0.459   5.181  -3.399  0.00  0.00    -0.166 F 
ENDBRANCH   1  18
BRANCH   2  22
ATOM     22  C   UNL d   1      -2.213   4.991   2.299  0.00  0.00     0.417 C 
ATOM     23  F   UNL d   1      -2.335   6.346   2.253  0.00  0.00    -0.166 F 
ATOM     24  F   UNL d   1      -3.473   4.503   2.452  0.00  0.00    -0.166 F 
ATOM     25  F   UNL d   1      -1.558   4.714   3.461  0.00  0.00    -0.166 F 
ENDBRANCH   2  22
TORSDOF 6
