REMARK  5 active torsions:
REMARK  status: ('A' for Active; 'I' for Inactive)
REMARK    1  A    between atoms: C_2  and  C_1 
REMARK    2  A    between atoms: C_16  and  C_7 
REMARK    3  A    between atoms: C_9  and  C_13 
REMARK    4  A    between atoms: C_17  and  O_22 
REMARK    5  A    between atoms: O_22  and  C_29 
ROOT
ATOM      1  C   UNL d   1       7.112  -0.846  -1.397  0.00  0.00    -0.002 A 
ATOM      2  C   UNL d   1       8.194  -1.518  -0.804  0.00  0.00     0.017 A 
ATOM      3  C   UNL d   1       7.241  -0.428  -2.729  0.00  0.00     0.017 A 
ATOM      4  C   UNL d   1       9.518  -1.255  -2.812  0.00  0.00     0.077 A 
ATOM      5  C   UNL d   1       9.386  -1.728  -1.507  0.00  0.00     0.038 A 
ATOM      6  C   UNL d   1       8.422  -0.656  -3.438  0.00  0.00     0.038 A 
ENDROOT
BRANCH   1   7
ATOM      7  C   UNL d   1       5.904  -0.567  -0.604  0.00  0.00     0.084 A 
ATOM      8  N   UNL d   1       5.895  -0.405   0.705  0.00  0.00    -0.348 N 
ATOM      9  C   UNL d   1       4.619  -0.131   1.161  0.00  0.00     0.057 A 
ATOM     10  HN  UNL d   1       6.720  -0.472   1.301  1.00  0.00     0.166 HD
ATOM     11  C   UNL d   1       3.655  -0.122   0.171  0.00  0.00     0.082 A 
ATOM     12  S   UNL d   1       4.357  -0.451  -1.351  0.00  0.00    -0.081 SA
BRANCH   9  13
ATOM     13  C   UNL d   1       4.308   0.124   2.620  0.00  0.00     0.039 A 
ATOM     14  S   UNL d   1       2.695   0.324   3.159  0.00  0.00    -0.087 SA
ATOM     15  C   UNL d   1       3.153   0.520   4.790  0.00  0.00     0.016 A 
ATOM     16  C   UNL d   1       2.287   0.727   5.883  0.00  0.00     0.021 A 
ATOM     17  C   UNL d   1       4.535   0.458   4.940  0.00  0.00    -0.010 A 
ATOM     18  C   UNL d   1       2.833   0.878   7.158  0.00  0.00     0.025 A 
ATOM     19  C   UNL d   1       4.205   0.828   7.336  0.00  0.00     0.035 A 
ATOM     20  C   UNL d   1       5.061   0.621   6.249  0.00  0.00     0.037 A 
ATOM     21 CL   UNL d   1       4.867   1.023   8.913  0.00  0.00    -0.084 Cl
ATOM     22  C   UNL d   1       5.217   0.227   3.666  0.00  0.00    -0.031 A 
ATOM     23  C   UNL d   1       6.713   0.135   3.600  0.00  0.00     0.050 C 
ENDBRANCH   9  13
ENDBRANCH   1   7
BRANCH   4  24
ATOM     24  O   UNL d   1      10.739  -1.448  -3.424  0.00  0.00    -0.294 OA
BRANCH  24  25
ATOM     25  C   UNL d   1      11.149  -0.492  -4.346  0.00  0.00     0.147 A 
ATOM     26  N   UNL d   1      10.786   0.801  -4.174  0.00  0.00    -0.346 N 
ATOM     27  C   UNL d   1      11.068   1.661  -5.175  0.00  0.00     0.106 A 
ATOM     28  HN  UNL d   1      10.319   1.113  -3.323  1.00  0.00     0.167 HD
ATOM     29  C   UNL d   1      11.726   1.297  -6.340  0.00  0.00     0.063 A 
ATOM     30  C   UNL d   1      12.173  -0.027  -6.444  0.00  0.00     0.022 A 
ATOM     31  C   UNL d   1      11.883  -0.939  -5.431  0.00  0.00     0.057 A 
BRANCH  29  32
ATOM     32  C   UNL d   1      11.914   2.286  -7.446  0.00  0.00     0.418 C 
ATOM     33  F   UNL d   1      11.320   3.489  -7.211  0.00  0.00    -0.166 F 
ATOM     34  F   UNL d   1      13.224   2.556  -7.691  0.00  0.00    -0.166 F 
ATOM     35  F   UNL d   1      11.396   1.843  -8.626  0.00  0.00    -0.166 F 
ENDBRANCH  29  32
ENDBRANCH  24  25
ENDBRANCH   4  24
TORSDOF 5
