REMARK  2 active torsions:
REMARK  status: ('A' for Active; 'I' for Inactive)
REMARK    1  A    between atoms: C_3  and  C_2 
REMARK    2  A    between atoms: O_9  and  C_3 
ROOT
ATOM      1  O   UNL d   1      -1.133   1.343   0.065  0.00  0.00    -0.335 OA
ATOM      2  C   UNL d   1      -2.284   0.589   0.472  0.00  0.00     0.226 C 
ATOM      3  C   UNL d   1       0.034   0.626  -0.007  0.00  0.00     0.076 A 
ATOM      4  C   UNL d   1       0.087  -0.771  -0.006  0.00  0.00    -0.025 A 
ATOM      5  C   UNL d   1      -2.387  -0.742  -0.262  0.00  0.00     0.048 C 
ATOM      6  C   UNL d   1      -1.164  -1.599   0.030  0.00  0.00     0.044 C 
ATOM      7  C   UNL d   1       1.207   1.379  -0.073  0.00  0.00     0.037 A 
ATOM      8  C   UNL d   1       1.337  -1.404  -0.010  0.00  0.00     0.010 A 
ATOM      9  C   UNL d   1       2.446   0.740  -0.089  0.00  0.00     0.003 A 
ATOM     10  C   UNL d   1       2.511  -0.651  -0.047  0.00  0.00     0.001 A 
ENDROOT
BRANCH   2  11
ATOM     11  C   UNL d   1      -2.345   0.446   1.997  0.00  0.00     0.170 C 
ATOM     12  O   UNL d   1      -2.981  -0.412   2.594  0.00  0.00    -0.648 OA
BRANCH  11  13
ATOM     13  O   UNL d   1      -1.652   1.417   2.645  0.00  0.00    -0.774 OA
ATOM     14  H   UNL d   1      -1.166   1.975   1.999  0.00  0.00     0.167 HD
ENDBRANCH  11  13
ENDBRANCH   2  11
TORSDOF 2
