REMARK  5 active torsions:
REMARK  status: ('A' for Active; 'I' for Inactive)
REMARK       I    between atoms: N_3  and  C_1 
REMARK    1  A    between atoms: C_10  and  C_1 
REMARK    2  A    between atoms: C_2  and  O_5 
REMARK    3  A    between atoms: C_11  and  C_2 
REMARK    4  A    between atoms: C_6  and  N_3 
REMARK    5  A    between atoms: O_5  and  C_4 
ROOT
ATOM      1  C   UNL d   1       3.039  -3.492   0.458  0.00  0.00     0.106 A 
ATOM      2  C   UNL d   1       2.618  -2.566  -0.513  0.00  0.00     0.069 A 
ATOM      3  C   UNL d   1       2.351  -4.701   0.627  0.00  0.00     0.046 A 
ATOM      4  C   UNL d   1       1.527  -2.901  -1.328  0.00  0.00     0.033 A 
ATOM      5  C   UNL d   1       1.260  -5.023  -0.191  0.00  0.00    -0.059 A 
ATOM      6  C   UNL d   1       0.871  -4.126  -1.187  0.00  0.00     0.009 A 
ATOM      7  C   UNL d   1       0.512  -6.304   0.030  0.00  0.00     0.048 C 
ENDROOT
BRANCH   2   8
ATOM      8  N   UNL d   1       3.154  -1.268  -0.704  0.00  0.00    -0.320 N 
ATOM      9  C   UNL d   1       4.486  -0.918  -0.559  0.00  0.00     0.256 C 
ATOM     10  O   UNL d   1       5.398  -1.714  -0.361  0.00  0.00    -0.267 OA
ATOM     11  H   UNL d   1       2.541  -0.616  -1.169  0.00  0.00     0.169 HD
BRANCH   9  12
ATOM     12  C   UNL d   1       4.835   0.535  -0.716  0.00  0.00     0.032 A 
ATOM     13  C   UNL d   1       6.132   0.915  -0.336  0.00  0.00     0.017 A 
ATOM     14  C   UNL d   1       6.556   2.241  -0.433  0.00  0.00     0.001 A 
ATOM     15  C   UNL d   1       5.685   3.211  -0.919  0.00  0.00     0.000 A 
ATOM     16  C   UNL d   1       4.395   2.852  -1.307  0.00  0.00     0.001 A 
ATOM     17  C   UNL d   1       3.964   1.522  -1.207  0.00  0.00     0.017 A 
ENDBRANCH   9  12
ENDBRANCH   2   8
BRANCH   1  18
ATOM     18  O   UNL d   1       4.016  -3.102   1.408  0.00  0.00    -0.273 OA
BRANCH  18  19
ATOM     19  C   UNL d   1       4.928  -4.000   1.964  0.00  0.00     0.298 C 
ATOM     20  O   UNL d   1       5.021  -5.194   1.730  0.00  0.00    -0.259 OA
BRANCH  19  21
ATOM     21  C   UNL d   1       5.757  -3.298   2.984  0.00  0.00     0.039 A 
ATOM     22  C   UNL d   1       6.626  -4.064   3.776  0.00  0.00     0.017 A 
ATOM     23  C   UNL d   1       7.401  -3.455   4.768  0.00  0.00     0.001 A 
ATOM     24  C   UNL d   1       7.315  -2.079   4.974  0.00  0.00     0.000 A 
ATOM     25  C   UNL d   1       6.461  -1.309   4.186  0.00  0.00     0.001 A 
ATOM     26  C   UNL d   1       5.684  -1.912   3.194  0.00  0.00     0.017 A 
ENDBRANCH  19  21
ENDBRANCH  18  19
ENDBRANCH   1  18
TORSDOF 5
