REMARK  2 active torsions:
REMARK  status: ('A' for Active; 'I' for Inactive)
REMARK    1  A    between atoms: C_2  and  O_6 
REMARK    2  A    between atoms: O_6  and  C_10 
ROOT
ATOM      1  N   UNL d   1       4.171  -1.349  -1.372  0.00  0.00    -0.195 NA
ATOM      2  C   UNL d   1       4.560  -0.653  -0.526  0.00  0.00     0.091 C 
ATOM      3  C   UNL d   1       5.109   0.238   0.518  0.00  0.00     0.231 C 
ATOM      4  C   UNL d   1       6.104  -0.526   1.386  0.00  0.00     0.056 C 
ENDROOT
BRANCH   3   5
ATOM      5  O   UNL d   1       4.049   0.708   1.369  0.00  0.00    -0.330 OA
BRANCH   5   6
ATOM      6  C   UNL d   1       3.941   2.064   1.532  0.00  0.00     0.092 A 
ATOM      7  C   UNL d   1       2.654   2.613   1.647  0.00  0.00     0.069 A 
ATOM      8  C   UNL d   1       2.478   3.992   1.788  0.00  0.00     0.050 A 
ATOM      9 CL   UNL d   1       1.248   1.611   1.613  0.00  0.00    -0.081 Cl
ATOM     10  C   UNL d   1       3.591   4.822   1.849  0.00  0.00     0.035 A 
ATOM     11  C   UNL d   1       4.876   4.286   1.797  0.00  0.00     0.026 A 
ATOM     12 CL   UNL d   1       3.386   6.523   2.002  0.00  0.00    -0.084 Cl
ATOM     13  C   UNL d   1       5.051   2.907   1.649  0.00  0.00     0.040 A 
ENDBRANCH   5   6
ENDBRANCH   3   5
TORSDOF 2
