REMARK  3 active torsions:
REMARK  status: ('A' for Active; 'I' for Inactive)
REMARK    1  A    between atoms: C_8  and  C_4 
REMARK    2  A    between atoms: O_14  and  C_7 
REMARK    3  A    between atoms: O_15  and  C_11 
ROOT
ATOM      1  C   UNL d   1       1.874   0.492   0.096  0.00  0.00    -0.002 A 
ATOM      2  C   UNL d   1       0.828   1.549   0.248  0.00  0.00     0.189 A 
ATOM      3  C   UNL d   1      -0.432   0.854   0.538  0.00  0.00     0.021 A 
ATOM      4  C   UNL d   1       3.168   0.782  -0.097  0.00  0.00     0.023 C 
ATOM      5  C   UNL d   1      -0.211  -0.524   0.544  0.00  0.00    -0.040 A 
ATOM      6  C   UNL d   1       1.215  -0.859   0.236  0.00  0.00     0.082 A 
ATOM      7  O   UNL d   1       0.983   2.749   0.157  0.00  0.00    -0.287 OA
ATOM      8  C   UNL d   1      -1.673   1.408   0.794  0.00  0.00     0.016 A 
ATOM      9  C   UNL d   1      -1.252  -1.397   0.815  0.00  0.00     0.008 A 
ATOM     10  C   UNL d   1      -2.725   0.531   1.070  0.00  0.00     0.001 A 
ATOM     11  C   UNL d   1      -2.515  -0.859   1.082  0.00  0.00     0.001 A 
ENDROOT
BRANCH   4  12
ATOM     12  C   UNL d   1       4.164  -0.282  -0.210  0.00  0.00    -0.033 A 
ATOM     13  C   UNL d   1       4.459  -0.838  -1.458  0.00  0.00     0.051 A 
ATOM     14  C   UNL d   1       5.331  -1.930  -1.558  0.00  0.00     0.099 A 
ATOM     15  C   UNL d   1       5.924  -2.471  -0.411  0.00  0.00     0.101 A 
ATOM     16  C   UNL d   1       5.632  -1.893   0.831  0.00  0.00     0.040 A 
ATOM     17  C   UNL d   1       4.758  -0.809   0.936  0.00  0.00     0.014 A 
BRANCH  14  18
ATOM     18  O   UNL d   1       5.567  -2.452  -2.800  0.00  0.00    -0.358 OA
ATOM     19  H   UNL d   1       5.079  -1.938  -3.463  0.00  0.00     0.217 HD
ENDBRANCH  14  18
BRANCH  15  20
ATOM     20  O   UNL d   1       6.781  -3.533  -0.312  0.00  0.00    -0.353 OA
ATOM     21  C   UNL d   1       7.139  -4.222  -1.501  0.00  0.00     0.210 C 
ENDBRANCH  15  20
ENDBRANCH   4  12
TORSDOF 3
