REMARK  8 active torsions:
REMARK  status: ('A' for Active; 'I' for Inactive)
REMARK    1  A    between atoms: C_2  and  S_1 
REMARK    2  A    between atoms: N_3  and  S_1 
REMARK    3  A    between atoms: C_14  and  N_3 
REMARK    4  A    between atoms: C_15  and  N_3 
REMARK    5  A    between atoms: C_4  and  C_7 
REMARK    6  A    between atoms: O_13  and  C_4 
REMARK    7  A    between atoms: C_17  and  C_14 
REMARK    8  A    between atoms: C_16  and  C_15 
ROOT
ATOM      1  C   UNL d   1       1.482   1.795  -0.099  0.00  0.00     0.074 A 
ATOM      2  C   UNL d   1       2.086   4.524  -0.286  0.00  0.00     0.037 A 
ATOM      3  C   UNL d   1       2.817   2.213  -0.180  0.00  0.00     0.026 A 
ATOM      4  C   UNL d   1       0.449   2.737  -0.131  0.00  0.00     0.026 A 
ATOM      5  C   UNL d   1       0.754   4.099  -0.202  0.00  0.00     0.020 A 
ATOM      6  C   UNL d   1       3.120   3.578  -0.269  0.00  0.00     0.020 A 
ENDROOT
BRANCH   1   7
ATOM      7  S   UNL d   1       1.099   0.049  -0.083  0.00  0.00     0.243 S 
ATOM      8  O   UNL d   1       2.354  -0.652  -0.247  0.00  0.00    -0.206 OA
ATOM      9  O   UNL d   1       0.016  -0.149  -1.022  0.00  0.00    -0.206 OA
BRANCH   7  10
ATOM     10  N   UNL d   1       0.494  -0.204   1.531  0.00  0.00    -0.206 NA
BRANCH  10  11
ATOM     11  C   UNL d   1      -1.014  -0.128   1.572  0.00  0.00     0.107 C 
BRANCH  11  12
ATOM     12  C   UNL d   1      -1.645  -0.136   2.963  0.00  0.00     0.011 C 
ATOM     13  C   UNL d   1      -1.170   0.986   3.866  0.00  0.00     0.006 C 
ENDBRANCH  11  12
ENDBRANCH  10  11
BRANCH  10  14
ATOM     14  C   UNL d   1       1.046  -1.407   2.232  0.00  0.00     0.107 C 
BRANCH  14  15
ATOM     15  C   UNL d   1       2.501  -1.258   2.687  0.00  0.00     0.011 C 
ATOM     16  C   UNL d   1       2.773  -0.018   3.522  0.00  0.00     0.006 C 
ENDBRANCH  14  15
ENDBRANCH  10  14
ENDBRANCH   7  10
ENDBRANCH   1   7
BRANCH   2  17
ATOM     17  C   UNL d   1       2.344   5.986  -0.358  0.00  0.00     0.176 C 
ATOM     18  O   UNL d   1       1.621   6.808   0.173  0.00  0.00    -0.646 OA
BRANCH  17  19
ATOM     19  O   UNL d   1       3.428   6.317  -1.091  0.00  0.00    -0.773 OA
ATOM     20  H   UNL d   1       3.810   5.593  -1.619  0.00  0.00     0.167 HD
ENDBRANCH  17  19
ENDBRANCH   2  17
TORSDOF 8
