REMARK  4 active torsions:
REMARK  status: ('A' for Active; 'I' for Inactive)
REMARK    1  A    between atoms: N_2  and  S_1 
REMARK    2  A    between atoms: C_4  and  S_1 
REMARK    3  A    between atoms: N_3  and  N_2 
REMARK    4  A    between atoms: C_5  and  N_3 
ROOT
ATOM      1  N   UNL d   1       0.250   0.264  -1.464  0.00  0.00    -0.222 N 
ATOM      2  H   UNL d   1      -0.608  -0.249  -1.682  0.00  0.00     0.200 HD
ENDROOT
BRANCH   1   3
ATOM      3  S   UNL d   1       0.966   0.148   0.069  0.00  0.00     0.276 S 
ATOM      4  O   UNL d   1       0.823   1.442   0.708  0.00  0.00    -0.199 OA
ATOM      5  O   UNL d   1       2.277  -0.441  -0.106  0.00  0.00    -0.199 OA
BRANCH   3   6
ATOM      6  C   UNL d   1      -0.043  -1.014   0.953  0.00  0.00     0.081 A 
ATOM      7  C   UNL d   1       0.286  -2.374   0.926  0.00  0.00     0.027 A 
ATOM      8  C   UNL d   1      -0.385  -3.264   1.772  0.00  0.00     0.025 A 
ATOM      9  C   UNL d   1      -1.369  -2.790   2.641  0.00  0.00     0.034 A 
ATOM     10  C   UNL d   1      -1.701  -1.435   2.663  0.00  0.00     0.025 A 
ATOM     11 CL   UNL d   1      -2.152  -3.878   3.720  0.00  0.00    -0.084 Cl
ATOM     12  C   UNL d   1      -1.036  -0.541   1.819  0.00  0.00     0.027 A 
ENDBRANCH   3   6
ENDBRANCH   1   3
BRANCH   1  13
ATOM     13  N   UNL d   1       0.889   1.136  -2.446  0.00  0.00    -0.288 N 
ATOM     14  H   UNL d   1       1.739   1.601  -2.123  0.00  0.00     0.188 HD
BRANCH  13  15
ATOM     15  C   UNL d   1       0.516   1.334  -3.781  0.00  0.00     0.087 A 
ATOM     16  C   UNL d   1      -0.605   0.736  -4.373  0.00  0.00     0.147 A 
ATOM     17  C   UNL d   1      -0.927   0.951  -5.711  0.00  0.00     0.086 A 
ATOM     18  F   UNL d   1      -1.400  -0.073  -3.650  0.00  0.00    -0.204 F 
ATOM     19  C   UNL d   1      -0.117   1.778  -6.476  0.00  0.00     0.119 A 
ATOM     20  C   UNL d   1       0.997   2.396  -5.924  0.00  0.00     0.045 A 
ATOM     21  F   UNL d   1      -0.411   1.984  -7.766  0.00  0.00    -0.206 F 
ATOM     22  C   UNL d   1       1.308   2.176  -4.580  0.00  0.00     0.037 A 
ENDBRANCH  13  15
ENDBRANCH   1  13
TORSDOF 4
