REMARK  9 active torsions:
REMARK  status: ('A' for Active; 'I' for Inactive)
REMARK    1  A    between atoms: C_7  and  C_1 
REMARK    2  A    between atoms: C_10  and  C_2 
REMARK    3  A    between atoms: S_3  and  N_11 
REMARK    4  A    between atoms: C_12  and  S_3 
REMARK    5  A    between atoms: C_13  and  N_4 
REMARK    6  A    between atoms: C_9  and  C_16 
REMARK    7  A    between atoms: O_31  and  C_10 
REMARK    8  A    between atoms: N_11  and  C_28 
REMARK    9  A    between atoms: C_34  and  O_31 
ROOT
ATOM      1  C   UNL d   1       2.039   1.535  -0.037  0.00  0.00     0.057 A 
ATOM      2  C   UNL d   1       4.221   3.280  -0.122  0.00  0.00     0.042 A 
ATOM      3  C   UNL d   1       2.831   1.615  -1.190  0.00  0.00     0.034 A 
ATOM      4  C   UNL d   1       2.289   2.406   1.033  0.00  0.00     0.034 A 
ATOM      5  C   UNL d   1       3.924   2.488  -1.230  0.00  0.00     0.032 A 
ATOM      6  C   UNL d   1       3.393   3.260   0.997  0.00  0.00     0.032 A 
ENDROOT
BRANCH   1   7
ATOM      7  N   UNL d   1       0.986   0.587   0.090  0.00  0.00    -0.251 N 
ATOM      8  C   UNL d   1       0.851  -0.677  -0.447  0.00  0.00     0.158 C 
ATOM      9  C   UNL d   1      -0.449  -1.084  -0.176  0.00  0.00     0.089 C 
ATOM     10  C   UNL d   1      -0.955  -0.082   0.666  0.00  0.00     0.127 C 
ATOM     11  N   UNL d   1      -0.075   0.892   0.886  0.00  0.00    -0.303 N 
ATOM     12  HN  UNL d   1      -0.174   1.691   1.513  1.00  0.00     0.186 HD
BRANCH   8  13
ATOM     13  C   UNL d   1       1.970  -1.427  -1.038  0.00  0.00     0.435 C 
ATOM     14  F   UNL d   1       1.795  -2.769  -0.948  0.00  0.00    -0.165 F 
ATOM     15  F   UNL d   1       2.153  -1.136  -2.347  0.00  0.00    -0.165 F 
ATOM     16  F   UNL d   1       3.143  -1.174  -0.402  0.00  0.00    -0.165 F 
ENDBRANCH   8  13
BRANCH   9  17
ATOM     17  C   UNL d   1      -1.111  -2.286  -0.630  0.00  0.00     0.297 C 
ATOM     18  O   UNL d   1      -0.782  -2.886  -1.643  0.00  0.00    -0.259 OA
BRANCH  17  19
ATOM     19  O   UNL d   1      -2.174  -2.599   0.160  0.00  0.00    -0.318 OA
BRANCH  19  20
ATOM     20  C   UNL d   1      -3.079  -3.581  -0.361  0.00  0.00     0.174 C 
ATOM     21  C   UNL d   1      -4.165  -2.849  -1.126  0.00  0.00     0.034 C 
ENDBRANCH  19  20
ENDBRANCH  17  19
ENDBRANCH   9  17
ENDBRANCH   1   7
BRANCH   2  22
ATOM     22  N   UNL d   1       5.399   4.063  -0.082  0.00  0.00    -0.281 N 
ATOM     23  H   UNL d   1       6.300   3.590  -0.044  0.00  0.00     0.179 HD
BRANCH  22  24
ATOM     24  S   UNL d   1       5.447   5.560  -0.831  0.00  0.00     0.263 S 
ATOM     25  O   UNL d   1       6.811   6.035  -0.709  0.00  0.00    -0.200 OA
ATOM     26  O   UNL d   1       4.802   5.473  -2.126  0.00  0.00    -0.200 OA
BRANCH  24  27
ATOM     27  C   UNL d   1       4.436   6.548   0.242  0.00  0.00     0.079 A 
ATOM     28  C   UNL d   1       4.993   7.120   1.389  0.00  0.00     0.026 A 
ATOM     29  C   UNL d   1       4.186   7.885   2.235  0.00  0.00     0.018 A 
ATOM     30  C   UNL d   1       2.828   8.088   1.935  0.00  0.00     0.048 A 
ATOM     31  C   UNL d   1       2.291   7.516   0.769  0.00  0.00     0.018 A 
ATOM     32  C   UNL d   1       3.092   6.753  -0.080  0.00  0.00     0.026 A 
BRANCH  30  33
ATOM     33  C   UNL d   1       1.941   8.913   2.838  0.00  0.00     0.417 C 
ATOM     34  F   UNL d   1       2.573   9.367   3.955  0.00  0.00    -0.166 F 
ATOM     35  F   UNL d   1       1.445  10.015   2.213  0.00  0.00    -0.166 F 
ATOM     36  F   UNL d   1       0.859   8.214   3.281  0.00  0.00    -0.166 F 
ENDBRANCH  30  33
ENDBRANCH  24  27
ENDBRANCH  22  24
ENDBRANCH   2  22
TORSDOF 9
