REMARK  2 active torsions:
REMARK  status: ('A' for Active; 'I' for Inactive)
REMARK       I    between atoms: N_3  and  C_1 
REMARK       I    between atoms: N_4  and  C_1 
REMARK    1  A    between atoms: C_2  and  C_5 
REMARK    2  A    between atoms: C_11  and  N_4 
ROOT
ATOM      1  C   UNL d   1       1.623   4.291   2.571  0.00  0.00     0.048 A 
ATOM      2  C   UNL d   1       0.671   1.992   1.218  0.00  0.00     0.036 A 
ATOM      3  C   UNL d   1       0.288   4.210   2.153  0.00  0.00     0.018 A 
ATOM      4  C   UNL d   1       2.459   3.191   2.349  0.00  0.00     0.018 A 
ATOM      5  C   UNL d   1       1.988   2.056   1.683  0.00  0.00     0.030 A 
ATOM      6  C   UNL d   1      -0.182   3.068   1.486  0.00  0.00     0.030 A 
ENDROOT
BRANCH   2   7
ATOM      7  N   UNL d   1       0.155   0.924   0.447  0.00  0.00    -0.309 N 
ATOM      8  C   UNL d   1       0.846  -0.181  -0.004  0.00  0.00     0.323 C 
ATOM      9  N   UNL d   1       0.172  -0.996  -0.900  0.00  0.00    -0.330 N 
ATOM     10  O   UNL d   1       2.005  -0.440   0.312  0.00  0.00    -0.247 OA
ATOM     11  C   UNL d   1      -1.236  -0.949  -1.317  0.00  0.00     0.153 C 
ATOM     12  C   UNL d   1       0.890  -2.156  -1.446  0.00  0.00     0.153 C 
ATOM     13  C   UNL d   1      -1.352  -1.088  -2.841  0.00  0.00     0.187 C 
ATOM     14  O   UNL d   1      -0.696  -2.276  -3.306  0.00  0.00    -0.388 OA
ATOM     15  C   UNL d   1       0.699  -2.249  -2.962  0.00  0.00     0.187 C 
ATOM     16  H   UNL d   1      -0.802   1.025   0.165  0.00  0.00     0.170 HD
ENDBRANCH   2   7
BRANCH   1  17
ATOM     17  C   UNL d   1       2.183   5.534   3.216  0.00  0.00     0.417 C 
ATOM     18  F   UNL d   1       1.269   6.534   3.359  0.00  0.00    -0.166 F 
ATOM     19  F   UNL d   1       2.682   5.301   4.461  0.00  0.00    -0.166 F 
ATOM     20  F   UNL d   1       3.209   6.070   2.497  0.00  0.00    -0.166 F 
ENDBRANCH   1  17
TORSDOF 2
