REMARK  4 active torsions:
REMARK  status: ('A' for Active; 'I' for Inactive)
REMARK    1  A    between atoms: C_2  and  S_1 
REMARK    2  A    between atoms: N_5  and  S_1 
REMARK    3  A    between atoms: C_13  and  N_5 
REMARK    4  A    between atoms: C_11  and  C_12 
ROOT
ATOM      1  S   UNL d   1       0.313   2.359  -0.121  0.00  0.00     0.265 S 
ATOM      2  O   UNL d   1      -0.130   1.736  -1.347  0.00  0.00    -0.200 OA
ATOM      3  O   UNL d   1      -0.402   3.495   0.425  0.00  0.00    -0.200 OA
ENDROOT
BRANCH   1   4
ATOM      4  C   UNL d   1       2.003   2.843  -0.362  0.00  0.00     0.103 A 
ATOM      5  C   UNL d   1       2.334   4.195  -0.172  0.00  0.00     0.052 A 
ATOM      6  C   UNL d   1       3.644   4.635  -0.376  0.00  0.00     0.057 A 
ATOM      7 CL   UNL d   1       3.976   6.312  -0.136  0.00  0.00    -0.083 Cl
ATOM      8  C   UNL d   1       4.630   3.724  -0.765  0.00  0.00     0.057 A 
ATOM      9  C   UNL d   1       4.299   2.378  -0.951  0.00  0.00     0.051 A 
ATOM     10 CL   UNL d   1       6.270   4.193  -1.034  0.00  0.00    -0.082 Cl
ATOM     11  C   UNL d   1       2.985   1.932  -0.759  0.00  0.00     0.059 A 
ATOM     12 CL   UNL d   1       2.698   0.249  -1.013  0.00  0.00    -0.083 Cl
ENDBRANCH   1   4
BRANCH   1  13
ATOM     13  N   UNL d   1       0.379   1.172   1.050  0.00  0.00    -0.281 N 
ATOM     14  H   UNL d   1      -0.021   0.268   0.810  0.00  0.00     0.179 HD
BRANCH  13  15
ATOM     15  C   UNL d   1       0.737   1.461   2.385  0.00  0.00     0.042 A 
ATOM     16  C   UNL d   1      -0.223   1.852   3.309  0.00  0.00     0.030 A 
ATOM     17  C   UNL d   1       0.135   2.025   4.654  0.00  0.00     0.010 A 
ATOM     18  C   UNL d   1       1.455   1.810   5.099  0.00  0.00    -0.051 A 
ATOM     19  C   UNL d   1       2.404   1.435   4.133  0.00  0.00     0.010 A 
ATOM     20  C   UNL d   1       2.047   1.250   2.795  0.00  0.00     0.030 A 
BRANCH  18  21
ATOM     21  C   UNL d   1       1.817   1.964   6.589  0.00  0.00    -0.024 C 
ATOM     22  C   UNL d   1       3.302   1.659   6.896  0.00  0.00     0.019 C 
ATOM     23  C   UNL d   1       1.539   3.409   7.050  0.00  0.00     0.019 C 
ATOM     24  C   UNL d   1       0.973   0.992   7.442  0.00  0.00     0.019 C 
ENDBRANCH  18  21
ENDBRANCH  13  15
ENDBRANCH   1  13
TORSDOF 4
