REMARK  8 active torsions:
REMARK  status: ('A' for Active; 'I' for Inactive)
REMARK    1  A    between atoms: C_3  and  C_1 
REMARK    2  A    between atoms: O_7  and  C_1 
REMARK    3  A    between atoms: C_8  and  C_2 
REMARK    4  A    between atoms: O_15  and  C_3 
REMARK    5  A    between atoms: N_4  and  O_7 
REMARK    6  A    between atoms: C_9  and  C_6 
REMARK    7  A    between atoms: N_14  and  C_6 
REMARK    8  A    between atoms: O_17  and  C_8 
ROOT
ATOM      1  N   UNL d   1       3.303   0.519  -1.300  0.00  0.00    -0.249 N 
ATOM      2  HN  UNL d   1       2.939  -0.010  -0.508  1.00  0.00     0.196 HD
ATOM      3  C   UNL d   1       4.450   0.299  -1.875  0.00  0.00     0.109 C 
ENDROOT
BRANCH   1   4
ATOM      4  O   UNL d   1       2.642   1.581  -1.922  0.00  0.00    -0.230 OA
BRANCH   4   5
ATOM      5  C   UNL d   1       1.281   1.530  -1.711  0.00  0.00     0.179 C 
ATOM      6  C   UNL d   1       0.601   1.065  -0.646  0.00  0.00     0.128 C 
BRANCH   6   7
ATOM      7  C   UNL d   1       1.172   0.583   0.626  0.00  0.00     0.285 C 
ATOM      8  O   UNL d   1       2.149   1.032   1.194  0.00  0.00    -0.260 OA
BRANCH   7   9
ATOM      9  O   UNL d   1       0.331  -0.373   1.100  0.00  0.00    -0.323 OA
ATOM     10  C   UNL d   1       0.659  -0.886   2.392  0.00  0.00     0.213 C 
ENDBRANCH   7   9
ENDBRANCH   6   7
BRANCH   5  11
ATOM     11  C   UNL d   1       0.442   2.139  -2.786  0.00  0.00     0.319 C 
ATOM     12  O   UNL d   1      -0.779   2.178  -2.790  0.00  0.00    -0.257 OA
BRANCH  11  13
ATOM     13  O   UNL d   1       1.248   2.667  -3.750  0.00  0.00    -0.321 OA
ATOM     14  C   UNL d   1       0.548   3.360  -4.784  0.00  0.00     0.213 C 
ENDBRANCH  11  13
ENDBRANCH   5  11
ENDBRANCH   4   5
ENDBRANCH   1   4
BRANCH   3  15
ATOM     15  C   UNL d   1       5.395  -0.662  -1.225  0.00  0.00     0.004 A 
ATOM     16  C   UNL d   1       4.926  -1.580  -0.277  0.00  0.00     0.016 A 
ATOM     17  C   UNL d   1       5.812  -2.471   0.335  0.00  0.00     0.024 A 
ATOM     18  C   UNL d   1       7.168  -2.435   0.007  0.00  0.00     0.034 A 
ATOM     19  C   UNL d   1       7.647  -1.509  -0.916  0.00  0.00     0.024 A 
ATOM     20 CL   UNL d   1       8.257  -3.537   0.755  0.00  0.00    -0.084 Cl
ATOM     21  C   UNL d   1       6.762  -0.620  -1.531  0.00  0.00     0.016 A 
ENDBRANCH   3  15
BRANCH   3  22
ATOM     22  N   UNL d   1       4.826   0.894  -3.062  0.00  0.00    -0.286 NA
ATOM     23  H   UNL d   1       4.039   1.344  -3.522  0.00  0.00     0.125 HD
ATOM     24  H   UNL d   1       5.332   0.290  -3.701  0.00  0.00     0.125 HD
ENDBRANCH   3  22
TORSDOF 8
