REMARK  4 active torsions:
REMARK  status: ('A' for Active; 'I' for Inactive)
REMARK    1  A    between atoms: C_7  and  C_3 
REMARK    2  A    between atoms: C_13  and  C_4 
REMARK    3  A    between atoms: C_14  and  C_5 
REMARK    4  A    between atoms: O_15  and  C_6 
ROOT
ATOM      1  C   UNL d   1       3.796  -3.779   1.044  0.00  0.00    -0.016 A 
ATOM      2  C   UNL d   1       2.789  -4.492  -1.131  0.00  0.00    -0.016 A 
ATOM      3  C   UNL d   1       3.665  -4.693  -0.033  0.00  0.00     0.079 A 
ATOM      4  C   UNL d   1       2.043  -2.427  -0.022  0.00  0.00    -0.008 A 
ATOM      5  C   UNL d   1       2.960  -2.649   1.012  0.00  0.00     0.024 A 
ATOM      6  C   UNL d   1       1.986  -3.337  -1.084  0.00  0.00     0.024 A 
ENDROOT
BRANCH   4   7
ATOM      7  C   UNL d   1       1.155  -1.266  -0.022  0.00  0.00     0.049 A 
ATOM      8  N   UNL d   1       0.662  -0.737  -1.204  0.00  0.00    -0.353 N 
ATOM      9  C   UNL d   1      -0.122   0.286  -0.952  0.00  0.00     0.047 A 
ATOM     10  HN  UNL d   1       0.877  -1.091  -2.136  1.00  0.00     0.166 HD
ATOM     11  S   UNL d   1      -0.324   0.675   0.710  0.00  0.00    -0.087 SA
ATOM     12  C   UNL d   1      -0.818   1.092  -1.991  0.00  0.00     0.076 C 
ATOM     13  C   UNL d   1       0.710  -0.629   1.123  0.00  0.00     0.081 A 
ENDBRANCH   4   7
BRANCH   1  14
ATOM     14  C   UNL d   1       4.800  -3.977   2.208  0.00  0.00    -0.021 C 
ATOM     15  C   UNL d   1       4.806  -2.805   3.230  0.00  0.00     0.019 C 
ATOM     16  C   UNL d   1       4.457  -5.246   3.014  0.00  0.00     0.019 C 
ATOM     17  C   UNL d   1       6.248  -4.067   1.675  0.00  0.00     0.019 C 
ENDBRANCH   1  14
BRANCH   2  18
ATOM     18  C   UNL d   1       2.700  -5.457  -2.341  0.00  0.00    -0.021 C 
ATOM     19  C   UNL d   1       1.665  -5.017  -3.413  0.00  0.00     0.019 C 
ATOM     20  C   UNL d   1       4.057  -5.525  -3.077  0.00  0.00     0.019 C 
ATOM     21  C   UNL d   1       2.276  -6.873  -1.898  0.00  0.00     0.019 C 
ENDBRANCH   2  18
BRANCH   3  22
ATOM     22  O   UNL d   1       4.416  -5.834  -0.000  0.00  0.00    -0.360 OA
ATOM     23  H   UNL d   1       5.216  -5.635  -0.513  0.00  0.00     0.217 HD
ENDBRANCH   3  22
TORSDOF 4
