REMARK  3 active torsions:
REMARK  status: ('A' for Active; 'I' for Inactive)
REMARK    1  A    between atoms: C_7  and  C_1 
REMARK    2  A    between atoms: C_9  and  C_3 
REMARK    3  A    between atoms: C_8  and  C_7 
ROOT
ATOM      1  C   UNL d   1       0.049   1.296  -0.065  0.00  0.00     0.073 A 
ATOM      2  S   UNL d   1      -1.081   0.017  -0.195  0.00  0.00    -0.066 SA
ATOM      3  C   UNL d   1       0.196  -1.135  -0.068  0.00  0.00     0.085 A 
ATOM      4  N   UNL d   1       1.405  -0.607  -0.011  0.00  0.00    -0.358 N 
ATOM      5  HN  UNL d   1       2.273  -1.140   0.030  1.00  0.00     0.166 HD
ATOM      6  C   UNL d   1       1.324   0.770  -0.016  0.00  0.00     0.112 A 
ENDROOT
BRANCH   1   7
ATOM      7  C   UNL d   1      -0.401   2.672  -0.035  0.00  0.00     0.200 C 
ATOM      8  O   UNL d   1      -1.403   3.078  -0.624  0.00  0.00    -0.286 OA
BRANCH   7   9
ATOM      9  C   UNL d   1       0.381   3.672   0.753  0.00  0.00     0.015 A 
ATOM     10  C   UNL d   1       1.048   3.317   1.935  0.00  0.00     0.017 A 
ATOM     11  C   UNL d   1       1.775   4.274   2.646  0.00  0.00     0.025 A 
ATOM     12  C   UNL d   1       1.817   5.592   2.194  0.00  0.00     0.034 A 
ATOM     13  C   UNL d   1       1.130   5.964   1.039  0.00  0.00     0.025 A 
ATOM     14 CL   UNL d   1       2.715   6.765   3.072  0.00  0.00    -0.084 Cl
ATOM     15  C   UNL d   1       0.408   5.006   0.320  0.00  0.00     0.017 A 
ENDBRANCH   7   9
ENDBRANCH   1   7
BRANCH   3  16
ATOM     16  C   UNL d   1      -0.070  -2.583  -0.063  0.00  0.00    -0.002 A 
ATOM     17  C   UNL d   1       0.904  -3.458  -0.570  0.00  0.00     0.014 A 
ATOM     18  C   UNL d   1       0.700  -4.840  -0.572  0.00  0.00     0.001 A 
ATOM     19  C   UNL d   1      -0.480  -5.370  -0.054  0.00  0.00     0.000 A 
ATOM     20  C   UNL d   1      -1.453  -4.519   0.465  0.00  0.00     0.001 A 
ATOM     21  C   UNL d   1      -1.250  -3.136   0.462  0.00  0.00     0.014 A 
ENDBRANCH   3  16
TORSDOF 3
