REMARK  2 active torsions:
REMARK  status: ('A' for Active; 'I' for Inactive)
REMARK    1  A    between atoms: N_10  and  C_2 
REMARK    2  A    between atoms: O_14  and  C_11 
ROOT
ATOM      1  C   UNL d   1       1.201  -0.614   0.014  0.00  0.00     0.015 A 
ATOM      2  C   UNL d   1      -0.039  -1.312  -0.015  0.00  0.00     0.031 A 
ATOM      3  N   UNL d   1       0.005   1.483  -0.050  0.00  0.00    -0.355 N 
ATOM      4  HN  UNL d   1       0.021   2.502  -0.094  1.00  0.00     0.166 HD
ATOM      5  C   UNL d   1      -1.257  -0.576   0.017  0.00  0.00     0.013 A 
ATOM      6  C   UNL d   1       1.151   0.792  -0.023  0.00  0.00     0.044 A 
ATOM      7  C   UNL d   1      -1.162   0.829  -0.020  0.00  0.00     0.044 A 
ATOM      8  C   UNL d   1       2.474  -1.246   0.060  0.00  0.00     0.052 A 
ATOM      9  C   UNL d   1       2.339   1.508  -0.028  0.00  0.00     0.033 A 
ATOM     10  C   UNL d   1       3.659  -0.510   0.037  0.00  0.00     0.069 A 
ATOM     11  C   UNL d   1       3.584   0.875  -0.003  0.00  0.00     0.039 A 
ATOM     12  C   UNL d   1      -2.551  -1.160   0.062  0.00  0.00     0.015 A 
ATOM     13  C   UNL d   1      -2.327   1.586  -0.023  0.00  0.00     0.030 A 
ATOM     14  C   UNL d   1      -3.706  -0.379   0.050  0.00  0.00     0.001 A 
ATOM     15  C   UNL d   1      -3.593   1.001   0.006  0.00  0.00     0.002 A 
ENDROOT
BRANCH   2  16
ATOM     16  N   UNL d   1      -0.062  -2.728   0.134  0.00  0.00    -0.301 NA
ATOM     17  H   UNL d   1       0.751  -3.192  -0.252  0.00  0.00     0.124 HD
ATOM     18  H   UNL d   1      -0.908  -3.160  -0.218  0.00  0.00     0.124 HD
ENDBRANCH   2  16
BRANCH  10  19
ATOM     19  O   UNL d   1       4.924  -1.026   0.049  0.00  0.00    -0.356 OA
ATOM     20  C   UNL d   1       5.043  -2.443   0.031  0.00  0.00     0.210 C 
ENDBRANCH  10  19
TORSDOF 2
