REMARK  4 active torsions:
REMARK  status: ('A' for Active; 'I' for Inactive)
REMARK    1  A    between atoms: C_8  and  N_1 
REMARK    2  A    between atoms: C_9  and  C_4 
REMARK    3  A    between atoms: C_10  and  C_8 
REMARK    4  A    between atoms: C_13  and  C_10 
ROOT
ATOM      1  N   UNL d   1      -0.228  -1.021  -0.252  0.00  0.00    -0.209 N 
ATOM      2  N   UNL d   1       0.808  -0.366  -0.822  0.00  0.00    -0.268 N 
ATOM      3  HN  UNL d   1       1.472  -0.684  -1.528  1.00  0.00     0.190 HD
ATOM      4  C   UNL d   1       0.720   0.823  -0.197  0.00  0.00     0.144 A 
ATOM      5  N   UNL d   1      -0.358   0.893   0.650  0.00  0.00    -0.266 N 
ATOM      6  HN  UNL d   1      -0.644   1.701   1.202  1.00  0.00     0.186 HD
ATOM      7  N   UNL d   1      -0.955  -0.289   0.613  0.00  0.00    -0.002 NA
ENDROOT
BRANCH   4   8
ATOM      8  C   UNL d   1       1.729   1.869  -0.284  0.00  0.00     0.012 A 
ATOM      9  C   UNL d   1       2.629   1.910  -1.355  0.00  0.00     0.039 A 
ATOM     10  C   UNL d   1       3.658   2.858  -1.384  0.00  0.00     0.041 A 
ATOM     11 CL   UNL d   1       4.737   2.834  -2.734  0.00  0.00    -0.084 Cl
ATOM     12  C   UNL d   1       3.812   3.782  -0.340  0.00  0.00    -0.040 A 
ATOM     13  C   UNL d   1       2.897   3.753   0.721  0.00  0.00     0.009 A 
ATOM     14  C   UNL d   1       4.937   4.781  -0.322  0.00  0.00     0.050 C 
ATOM     15  C   UNL d   1       1.864   2.811   0.747  0.00  0.00     0.016 A 
ENDBRANCH   4   8
BRANCH   1  16
ATOM     16  C   UNL d   1      -0.229  -2.465  -0.190  0.00  0.00     0.246 C 
BRANCH  16  17
ATOM     17  C   UNL d   1      -1.381  -3.069  -0.943  0.00  0.00     0.155 C 
ATOM     18  O   UNL d   1      -2.495  -3.136  -0.417  0.00  0.00    -0.295 OA
BRANCH  17  19
ATOM     19  C   UNL d   1      -1.128  -3.707  -2.331  0.00  0.00     0.011 C 
ATOM     20  C   UNL d   1      -0.499  -5.093  -2.127  0.00  0.00     0.022 C 
ATOM     21  C   UNL d   1      -2.480  -3.872  -3.053  0.00  0.00     0.022 C 
ATOM     22  C   UNL d   1      -0.216  -2.849  -3.217  0.00  0.00     0.022 C 
ENDBRANCH  17  19
ENDBRANCH  16  17
ENDBRANCH   1  16
TORSDOF 4
