REMARK  0 active torsions:
REMARK  status: ('A' for Active; 'I' for Inactive)
ROOT
ATOM      1  C   UNL d   1      -1.425  -0.040  -0.023  0.00  0.00     0.103 A 
ATOM      2  C   UNL d   1      -0.619  -1.307  -0.010  0.00  0.00     0.267 A 
ATOM      3  C   UNL d   1      -0.800   1.148  -0.025  0.00  0.00     0.054 A 
ATOM      4  N   UNL d   1       0.751  -1.132   0.010  0.00  0.00    -0.331 N 
ATOM      5  C   UNL d   1       0.643   1.222  -0.021  0.00  0.00     0.051 A 
ATOM      6  C   UNL d   1       1.369   0.095  -0.000  0.00  0.00     0.115 A 
ATOM      7  O   UNL d   1      -1.117  -2.426  -0.016  0.00  0.00    -0.266 OA
ATOM      8 CL   UNL d   1      -3.140  -0.158  -0.034  0.00  0.00    -0.078 Cl
ATOM      9 CL   UNL d   1       1.393   2.768  -0.053  0.00  0.00    -0.083 Cl
ATOM     10  H   UNL d   1       1.301  -1.984   0.022  0.00  0.00     0.168 HD
ENDROOT
TORSDOF 0
