REMARK  3 active torsions:
REMARK  status: ('A' for Active; 'I' for Inactive)
REMARK    1  A    between atoms: C_4  and  N_1 
REMARK    2  A    between atoms: N_7  and  C_4 
REMARK    3  A    between atoms: C_13  and  N_7 
ROOT
ATOM      1  N   UNL d   1      -1.389   2.853  -0.352  0.00  0.00    -0.276 NA
ATOM      2  H   UNL d   1      -2.054   2.426   0.288  0.00  0.00     0.129 HD
ENDROOT
BRANCH   1   3
ATOM      3  C   UNL d   1      -0.048   2.329  -0.148  0.00  0.00     0.229 C 
BRANCH   3   4
ATOM      4  N   UNL d   1      -0.126   0.894  -0.177  0.00  0.00    -0.275 N 
ATOM      5  C   UNL d   1      -0.197   0.133   0.948  0.00  0.00     0.227 A 
ATOM      6  C   UNL d   1      -0.179  -1.316   0.561  0.00  0.00     0.112 A 
ATOM      7  O   UNL d   1      -0.240   0.532   2.100  0.00  0.00    -0.273 OA
ATOM      8  C   UNL d   1      -0.068  -1.301  -0.952  0.00  0.00     0.112 A 
ATOM      9  C   UNL d   1       0.038   0.152  -1.308  0.00  0.00     0.227 A 
ATOM     10  O   UNL d   1       0.270   0.559  -2.436  0.00  0.00    -0.273 OA
ENDBRANCH   3   4
ENDBRANCH   1   3
BRANCH   1  11
ATOM     11  C   UNL d   1      -1.568   4.243  -0.374  0.00  0.00     0.011 A 
ATOM     12  C   UNL d   1      -2.727   4.742  -0.980  0.00  0.00     0.047 A 
ATOM     13  C   UNL d   1      -2.976   6.119  -1.053  0.00  0.00     0.041 A 
ATOM     14 CL   UNL d   1      -4.405   6.640  -1.874  0.00  0.00    -0.084 Cl
ATOM     15  C   UNL d   1      -2.083   7.037  -0.488  0.00  0.00    -0.040 A 
ATOM     16  C   UNL d   1      -0.952   6.538   0.171  0.00  0.00     0.010 A 
ATOM     17  C   UNL d   1      -2.298   8.521  -0.576  0.00  0.00     0.050 C 
ATOM     18  C   UNL d   1      -0.702   5.161   0.228  0.00  0.00     0.024 A 
ENDBRANCH   1  11
TORSDOF 3
