REMARK  0 active torsions:
REMARK  status: ('A' for Active; 'I' for Inactive)
ROOT
ATOM      1  S   UNL d   1      -0.004  -1.963  -0.002  0.00  0.00    -0.085 SA
ATOM      2  O   UNL d   1       0.002   1.224  -0.002  0.00  0.00    -0.308 OA
ATOM      3  C   UNL d   1       1.359  -0.835  -0.001  0.00  0.00     0.039 A 
ATOM      4  C   UNL d   1      -1.363  -0.830  -0.001  0.00  0.00     0.039 A 
ATOM      5  C   UNL d   1      -1.196   0.555  -0.001  0.00  0.00     0.093 A 
ATOM      6  C   UNL d   1       1.198   0.550  -0.001  0.00  0.00     0.093 A 
ATOM      7  C   UNL d   1       2.655  -1.374  -0.001  0.00  0.00     0.021 A 
ATOM      8  C   UNL d   1      -2.661  -1.363  -0.000  0.00  0.00     0.021 A 
ATOM      9  C   UNL d   1      -2.322   1.390  -0.000  0.00  0.00     0.039 A 
ATOM     10  C   UNL d   1       2.327   1.381  -0.000  0.00  0.00     0.039 A 
ATOM     11  C   UNL d   1       3.612   0.838   0.000  0.00  0.00     0.003 A 
ATOM     12  C   UNL d   1       3.776  -0.543  -0.000  0.00  0.00     0.002 A 
ATOM     13  C   UNL d   1      -3.609   0.852   0.001  0.00  0.00     0.003 A 
ATOM     14  C   UNL d   1      -3.779  -0.528   0.001  0.00  0.00     0.002 A 
ENDROOT
TORSDOF 0
