REMARK  5 active torsions:
REMARK  status: ('A' for Active; 'I' for Inactive)
REMARK    1  A    between atoms: O_11  and  N_1 
REMARK    2  A    between atoms: C_13  and  C_2 
REMARK    3  A    between atoms: C_3  and  C_8 
REMARK    4  A    between atoms: C_19  and  C_4 
REMARK    5  A    between atoms: C_8  and  O_11 
ROOT
ATOM      1  N   UNL d   1       2.125  -0.907  -0.456  0.00  0.00    -0.157 N 
ATOM      2  C   UNL d   1       2.211   0.477  -0.438  0.00  0.00     0.148 C 
ATOM      3  C   UNL d   1       0.954  -1.567  -0.124  0.00  0.00     0.286 C 
ATOM      4  N   UNL d   1       1.161   1.243  -0.377  0.00  0.00    -0.339 N 
ATOM      5  HN  UNL d   1       1.252   2.259  -0.370  1.00  0.00     0.167 HD
ATOM      6  C   UNL d   1      -0.263  -0.753  -0.217  0.00  0.00     0.061 A 
ATOM      7  C   UNL d   1      -0.105   0.630  -0.319  0.00  0.00     0.049 A 
ATOM      8  O   UNL d   1       0.890  -2.703   0.344  0.00  0.00    -0.265 OA
ATOM      9  C   UNL d   1      -1.525  -1.347  -0.111  0.00  0.00     0.019 A 
ATOM     10  C   UNL d   1      -1.251   1.427  -0.305  0.00  0.00     0.030 A 
ATOM     11  C   UNL d   1      -2.657  -0.539  -0.109  0.00  0.00     0.001 A 
ATOM     12  C   UNL d   1      -2.522   0.846  -0.200  0.00  0.00     0.002 A 
ENDROOT
BRANCH   1  13
ATOM     13  O   UNL d   1       3.261  -1.582   0.046  0.00  0.00    -0.182 OA
BRANCH  13  14
ATOM     14  C   UNL d   1       3.577  -2.762  -0.578  0.00  0.00     0.320 C 
ATOM     15  O   UNL d   1       3.171  -3.102  -1.685  0.00  0.00    -0.257 OA
BRANCH  14  16
ATOM     16  C   UNL d   1       4.488  -3.531   0.244  0.00  0.00     0.102 C 
ATOM     17  C   UNL d   1       5.336  -4.646  -0.050  0.00  0.00     0.087 C 
ATOM     18  N   UNL d   1       6.077  -4.957   1.030  0.00  0.00    -0.259 N 
ATOM     19  O   UNL d   1       5.636  -4.165   2.058  0.00  0.00    -0.241 OA
ATOM     20  HN  UNL d   1       6.824  -5.649   1.074  1.00  0.00     0.195 HD
ATOM     21  C   UNL d   1       4.675  -3.328   1.603  0.00  0.00     0.091 C 
ATOM     22  C   UNL d   1       4.052  -2.449   2.616  0.00  0.00     0.080 C 
BRANCH  17  23
ATOM     23  C   UNL d   1       5.509  -5.437  -1.272  0.00  0.00     0.037 A 
ATOM     24  C   UNL d   1       5.892  -4.854  -2.494  0.00  0.00     0.048 A 
ATOM     25 CL   UNL d   1       6.227  -3.161  -2.667  0.00  0.00    -0.083 Cl
ATOM     26  C   UNL d   1       6.094  -5.646  -3.636  0.00  0.00     0.025 A 
ATOM     27  C   UNL d   1       5.966  -7.031  -3.572  0.00  0.00     0.003 A 
ATOM     28  C   UNL d   1       5.616  -7.630  -2.369  0.00  0.00     0.025 A 
ATOM     29  C   UNL d   1       5.371  -6.845  -1.234  0.00  0.00     0.048 A 
ATOM     30 CL   UNL d   1       4.877  -7.714   0.186  0.00  0.00    -0.083 Cl
ENDBRANCH  17  23
ENDBRANCH  14  16
ENDBRANCH  13  14
ENDBRANCH   1  13
BRANCH   2  31
ATOM     31  C   UNL d   1       3.566   1.092  -0.426  0.00  0.00     0.010 A 
ATOM     32  C   UNL d   1       4.548   0.696  -1.341  0.00  0.00     0.015 A 
ATOM     33  C   UNL d   1       5.840   1.219  -1.241  0.00  0.00     0.001 A 
ATOM     34  C   UNL d   1       6.147   2.141  -0.239  0.00  0.00     0.000 A 
ATOM     35  C   UNL d   1       5.160   2.563   0.652  0.00  0.00     0.001 A 
ATOM     36  C   UNL d   1       3.865   2.046   0.554  0.00  0.00     0.015 A 
ENDBRANCH   2  31
TORSDOF 5
