REMARK  2 active torsions:
REMARK  status: ('A' for Active; 'I' for Inactive)
REMARK    1  A    between atoms: C_6  and  C_1 
REMARK    2  A    between atoms: N_9  and  C_6 
ROOT
ATOM      1  C   UNL d   1      -0.300  -1.078   0.015  0.00  0.00     0.118 A 
ATOM      2  C   UNL d   1       1.116  -0.618  -0.130  0.00  0.00    -0.020 A 
ATOM      3  C   UNL d   1      -0.247   1.116  -0.655  0.00  0.00     0.306 A 
ATOM      4  C   UNL d   1       1.140   0.665  -0.488  0.00  0.00     0.114 A 
ATOM      5  O   UNL d   1      -1.079   0.063  -0.394  0.00  0.00    -0.299 OA
ATOM      6  O   UNL d   1      -0.618   2.227  -0.978  0.00  0.00    -0.258 OA
ATOM      7 CL   UNL d   1       2.479   1.655  -0.774  0.00  0.00    -0.077 Cl
ATOM      8  C   UNL d   1       2.294  -1.507   0.054  0.00  0.00     0.049 C 
ATOM      9  C   UNL d   1      -0.633  -2.201  -0.976  0.00  0.00     0.053 C 
ENDROOT
BRANCH   1  10
ATOM     10  C   UNL d   1      -0.717  -1.517   1.458  0.00  0.00     0.314 C 
BRANCH  10  11
ATOM     11  N   UNL d   1      -0.511  -0.576   2.589  0.00  0.00     0.083 N 
ATOM     12  C   UNL d   1      -1.420   0.578   2.531  0.00  0.00     0.309 C 
ATOM     13  C   UNL d   1      -0.765  -1.284   3.854  0.00  0.00     0.309 C 
ENDBRANCH  10  11
ENDBRANCH   1  10
TORSDOF 2
