REMARK  2 active torsions:
REMARK  status: ('A' for Active; 'I' for Inactive)
REMARK       I    between atoms: N_3  and  C_1 
REMARK       I    between atoms: N_4  and  C_1 
REMARK    1  A    between atoms: C_2  and  C_5 
REMARK    2  A    between atoms: C_7  and  N_4 
ROOT
ATOM      1  C   UNL d   1       2.062   3.270   2.862  0.00  0.00     0.050 A 
ATOM      2  C   UNL d   1       0.677   2.188   1.166  0.00  0.00     0.037 A 
ATOM      3  C   UNL d   1       1.764   2.166   2.044  0.00  0.00     0.045 A 
ATOM      4  C   UNL d   1       1.267   4.421   2.769  0.00  0.00     0.016 A 
ATOM      5  C   UNL d   1       0.191   4.462   1.886  0.00  0.00     0.003 A 
ATOM      6  C   UNL d   1      -0.106   3.350   1.096  0.00  0.00     0.029 A 
ENDROOT
BRANCH   2   7
ATOM      7  N   UNL d   1       0.284   1.093   0.363  0.00  0.00    -0.309 N 
ATOM      8  C   UNL d   1       0.949  -0.098   0.192  0.00  0.00     0.322 C 
ATOM      9  N   UNL d   1       0.276  -1.083  -0.528  0.00  0.00    -0.333 N 
ATOM     10  O   UNL d   1       2.071  -0.317   0.651  0.00  0.00    -0.247 OA
ATOM     11  C   UNL d   1       0.983  -2.356  -0.746  0.00  0.00     0.137 C 
ATOM     12  C   UNL d   1      -1.018  -0.973  -1.222  0.00  0.00     0.137 C 
ATOM     13  C   UNL d   1       0.198  -3.567  -0.246  0.00  0.00     0.093 C 
ATOM     14  S   UNL d   1      -1.382  -3.746  -1.135  0.00  0.00    -0.166 SA
ATOM     15  C   UNL d   1      -2.018  -2.068  -0.833  0.00  0.00     0.093 C 
ATOM     16  H   UNL d   1      -0.531   1.258  -0.200  0.00  0.00     0.170 HD
ENDBRANCH   2   7
BRANCH   1  17
ATOM     17  C   UNL d   1       3.203   3.216   3.848  0.00  0.00     0.417 C 
ATOM     18  F   UNL d   1       3.863   2.025   3.872  0.00  0.00    -0.166 F 
ATOM     19  F   UNL d   1       4.150   4.164   3.604  0.00  0.00    -0.166 F 
ATOM     20  F   UNL d   1       2.785   3.431   5.128  0.00  0.00    -0.166 F 
ENDBRANCH   1  17
TORSDOF 2
