REMARK  2 active torsions:
REMARK  status: ('A' for Active; 'I' for Inactive)
REMARK    1  A    between atoms: C_2  and  N_1 
REMARK    2  A    between atoms: C_4  and  C_3 
ROOT
ATOM      1  C   UNL d   1      -1.896  -0.139   0.136  0.00  0.00    -0.012 A 
ATOM      2  C   UNL d   1      -1.703  -1.242   0.985  0.00  0.00     0.045 A 
ATOM      3  C   UNL d   1      -2.440  -2.415   0.804  0.00  0.00     0.048 A 
ATOM      4  C   UNL d   1      -2.860  -0.223  -0.880  0.00  0.00     0.015 A 
ATOM      5  C   UNL d   1      -3.380  -2.486  -0.221  0.00  0.00     0.035 A 
ATOM      6 CL   UNL d   1      -0.552  -1.201   2.274  0.00  0.00    -0.083 Cl
ATOM      7  C   UNL d   1      -3.600  -1.394  -1.058  0.00  0.00     0.024 A 
ATOM      8 CL   UNL d   1      -4.272  -3.937  -0.463  0.00  0.00    -0.084 Cl
ENDROOT
BRANCH   1   9
ATOM      9  C   UNL d   1      -1.106   1.095   0.240  0.00  0.00     0.044 C 
ATOM     10  C   UNL d   1      -1.463   2.153   0.988  0.00  0.00     0.077 C 
ATOM     11  C   UNL d   1      -2.663   2.302   1.864  0.00  0.00     0.075 C 
BRANCH  10  12
ATOM     12  N   UNL d   1      -0.574   3.316   0.937  0.00  0.00    -0.120 N 
ATOM     13  O   UNL d   1       0.621   3.124   0.685  0.00  0.00    -0.532 OA
ATOM     14  O   UNL d   1      -1.085   4.425   1.136  0.00  0.00    -0.532 OA
ENDBRANCH  10  12
ENDBRANCH   1   9
TORSDOF 2
