REMARK  4 active torsions:
REMARK  status: ('A' for Active; 'I' for Inactive)
REMARK    1  A    between atoms: C_6  and  C_1 
REMARK    2  A    between atoms: C_3  and  C_5 
REMARK    3  A    between atoms: C_10  and  C_4 
REMARK    4  A    between atoms: O_11  and  C_6 
ROOT
ATOM      1  C   UNL d   1      -0.281  -1.002   0.028  0.00  0.00     0.150 A 
ATOM      2  O   UNL d   1       1.022  -0.561   0.059  0.00  0.00    -0.295 OA
ATOM      3  C   UNL d   1       0.971   0.797   0.059  0.00  0.00     0.130 A 
ATOM      4  C   UNL d   1      -1.138   0.084   0.009  0.00  0.00     0.048 A 
ATOM      5  C   UNL d   1      -0.328   1.244   0.030  0.00  0.00     0.050 A 
ENDROOT
BRANCH   3   6
ATOM      6  C   UNL d   1       2.192   1.512   0.072  0.00  0.00    -0.036 C 
ATOM      7  C   UNL d   1       3.188   2.184   0.057  0.00  0.00    -0.059 C 
BRANCH   7   8
ATOM      8  C   UNL d   1       4.337   3.037   0.000  0.00  0.00     0.018 A 
ATOM      9  C   UNL d   1       4.177   4.425   0.053  0.00  0.00     0.020 A 
ATOM     10  C   UNL d   1       5.290   5.263  -0.043  0.00  0.00     0.001 A 
ATOM     11  C   UNL d   1       6.564   4.715  -0.190  0.00  0.00     0.000 A 
ATOM     12  C   UNL d   1       6.727   3.330  -0.232  0.00  0.00     0.001 A 
ATOM     13  C   UNL d   1       5.614   2.490  -0.137  0.00  0.00     0.020 A 
ENDBRANCH   7   8
ENDBRANCH   3   6
BRANCH   1  14
ATOM     14  C   UNL d   1      -0.549  -2.420   0.017  0.00  0.00     0.201 C 
ATOM     15  O   UNL d   1      -1.653  -2.942  -0.008  0.00  0.00    -0.645 OA
BRANCH  14  16
ATOM     16  O   UNL d   1       0.603  -3.140   0.036  0.00  0.00    -0.771 OA
ATOM     17  H   UNL d   1       1.375  -2.537   0.053  0.00  0.00     0.167 HD
ENDBRANCH  14  16
ENDBRANCH   1  14
TORSDOF 4
