REMARK  3 active torsions:
REMARK  status: ('A' for Active; 'I' for Inactive)
REMARK    1  A    between atoms: C_2  and  C_1 
REMARK       I    between atoms: N_4  and  C_1 
REMARK    2  A    between atoms: C_3  and  N_6 
REMARK    3  A    between atoms: N_6  and  N_4 
ROOT
ATOM      1  C   UNL d   1       0.901   0.048   0.001  0.00  0.00     0.286 C 
ATOM      2  N   UNL d   1       0.257  -1.121   0.342  0.00  0.00    -0.262 N 
ATOM      3  O   UNL d   1       0.296   1.041  -0.398  0.00  0.00    -0.264 OA
ATOM      4  H   UNL d   1       0.754  -1.983   0.539  0.00  0.00     0.190 HD
ENDROOT
BRANCH   2   5
ATOM      5  N   UNL d   1      -1.137  -1.202   0.246  0.00  0.00    -0.274 N 
ATOM      6  H   UNL d   1      -1.586  -0.359  -0.106  0.00  0.00     0.189 HD
BRANCH   5   7
ATOM      7  C   UNL d   1      -1.758  -2.417   0.141  0.00  0.00     0.186 C 
ATOM      8  S   UNL d   1      -0.977  -3.898   0.153  0.00  0.00    -0.040 SA
ATOM      9  N   UNL d   1      -3.117  -2.412   0.073  0.00  0.00    -0.370 N 
ATOM     10  C   UNL d   1      -4.033  -1.308   0.265  0.00  0.00     0.148 C 
ATOM     11  H   UNL d   1      -3.527  -3.337   0.005  0.00  0.00     0.161 HD
ENDBRANCH   5   7
ENDBRANCH   2   5
BRANCH   1  12
ATOM     12  C   UNL d   1       2.341   0.007   0.145  0.00  0.00     0.102 A 
ATOM     13  N   UNL d   1       3.147   1.042  -0.281  0.00  0.00    -0.361 N 
ATOM     14  C   UNL d   1       4.461   0.754  -0.024  0.00  0.00     0.088 A 
ATOM     15  H   UNL d   1       2.797   1.886  -0.720  0.00  0.00     0.165 HD
ATOM     16  C   UNL d   1       4.514  -0.475   0.589  0.00  0.00     0.019 A 
ATOM     17  C   UNL d   1       3.183  -0.946   0.698  0.00  0.00     0.036 A 
ENDBRANCH   1  12
TORSDOF 3
