REMARK  2 active torsions:
REMARK  status: ('A' for Active; 'I' for Inactive)
REMARK    1  A    between atoms: N_2  and  S_1 
REMARK    2  A    between atoms: C_6  and  S_1 
ROOT
ATOM      1  N   UNL d   1       0.647   0.838   0.965  0.00  0.00    -0.293 N 
ATOM      2  C   UNL d   1       1.365   2.202   0.813  0.00  0.00     0.044 C 
ATOM      3  C   UNL d   1       0.896   0.081   2.215  0.00  0.00     0.175 C 
ATOM      4  C   UNL d   1       0.192   0.570   3.438  0.00  0.00    -0.033 A 
ATOM      5  C   UNL d   1       1.616   2.982   2.211  0.00  0.00     0.041 C 
ATOM      6  C   UNL d   1       0.690   1.666   4.143  0.00  0.00    -0.046 A 
ATOM      7  C   UNL d   1       1.882   2.428   3.623  0.00  0.00     0.017 C 
ATOM      8  C   UNL d   1       2.715   2.104   0.057  0.00  0.00     0.032 C 
ATOM      9  C   UNL d   1       0.407   3.233   0.100  0.00  0.00     0.032 C 
ATOM     10  C   UNL d   1      -0.949  -0.107   3.903  0.00  0.00     0.009 A 
ATOM     11  C   UNL d   1       3.234   1.758   3.866  0.00  0.00     0.015 C 
ATOM     12  C   UNL d   1       0.026   2.071   5.314  0.00  0.00     0.008 A 
ATOM     13  C   UNL d   1       0.404   3.360  -1.411  0.00  0.00     0.002 C 
ATOM     14  C   UNL d   1       2.678   2.284  -1.469  0.00  0.00     0.002 C 
ATOM     15  C   UNL d   1      -1.587   0.294   5.074  0.00  0.00     0.001 A 
ATOM     16  C   UNL d   1      -1.099   1.387   5.778  0.00  0.00     0.001 A 
ATOM     17  C   UNL d   1       1.810   3.416  -1.978  0.00  0.00     0.000 C 
ENDROOT
BRANCH   1  18
ATOM     18  S   UNL d   1       0.321  -0.289  -0.333  0.00  0.00     0.261 S 
ATOM     19  O   UNL d   1       0.089   0.413  -1.571  0.00  0.00    -0.200 OA
ATOM     20  O   UNL d   1      -0.667  -1.233   0.145  0.00  0.00    -0.200 OA
BRANCH  18  21
ATOM     21  C   UNL d   1       1.831  -1.240  -0.537  0.00  0.00     0.079 C 
ATOM     22  C   UNL d   1       2.241  -2.139   0.449  0.00  0.00     0.026 C 
ATOM     23  C   UNL d   1       3.546  -2.631   0.439  0.00  0.00     0.008 C 
ATOM     24  C   UNL d   1       4.421  -2.267  -0.586  0.00  0.00    -0.062 C 
ATOM     25  C   UNL d   1       3.921  -1.572  -1.691  0.00  0.00     0.008 C 
ATOM     26  C   UNL d   1       5.873  -2.631  -0.509  0.00  0.00     0.048 C 
ATOM     27  C   UNL d   1       2.613  -1.086  -1.680  0.00  0.00     0.026 C 
ENDBRANCH  18  21
ENDBRANCH   1  18
TORSDOF 2
