REMARK  7 active torsions:
REMARK  status: ('A' for Active; 'I' for Inactive)
REMARK    1  A    between atoms: N_7  and  C_1 
REMARK    2  A    between atoms: C_5  and  C_2 
REMARK       I    between atoms: C_11  and  N_9 
REMARK    3  A    between atoms: C_24  and  C_11 
REMARK    4  A    between atoms: C_12  and  C_25 
REMARK    5  A    between atoms: O_23  and  C_12 
REMARK    6  A    between atoms: S_22  and  C_24 
REMARK    7  A    between atoms: C_25  and  S_22 
ROOT
ATOM      1  C   UNL d   1      -1.133  -1.524  -0.071  0.00  0.00     0.045 A 
ATOM      2  C   UNL d   1      -1.266   0.722   0.834  0.00  0.00     0.119 A 
ATOM      3  N   UNL d   1      -1.077   1.275  -0.389  0.00  0.00    -0.352 N 
ATOM      4  HN  UNL d   1      -1.049   2.289  -0.500  1.00  0.00     0.166 HD
ATOM      5  C   UNL d   1      -1.310  -0.657   1.015  0.00  0.00     0.064 A 
ATOM      6  C   UNL d   1      -0.954  -0.941  -1.361  0.00  0.00     0.017 A 
ATOM      7  C   UNL d   1      -0.926   0.471  -1.450  0.00  0.00     0.045 A 
ATOM      8  C   UNL d   1      -0.741  -1.677  -2.556  0.00  0.00     0.016 A 
ATOM      9  C   UNL d   1      -0.696   1.075  -2.677  0.00  0.00     0.030 A 
ATOM     10  C   UNL d   1      -0.547  -1.050  -3.786  0.00  0.00     0.001 A 
ATOM     11  C   UNL d   1      -0.515   0.334  -3.844  0.00  0.00     0.002 A 
ENDROOT
BRANCH   1  12
ATOM     12  N   UNL d   1      -1.020  -2.899   0.135  0.00  0.00    -0.377 N 
ATOM     13  C   UNL d   1      -0.439  -3.398   1.393  0.00  0.00     0.143 C 
ATOM     14  C   UNL d   1       0.282  -4.728   1.113  0.00  0.00     0.145 C 
ATOM     15  N   UNL d   1      -0.625  -5.695   0.476  0.00  0.00    -0.348 N 
ATOM     16  C   UNL d   1      -1.318  -5.186  -0.723  0.00  0.00     0.145 C 
ATOM     17  C   UNL d   1      -0.802  -7.016   0.863  0.00  0.00     0.229 C 
ATOM     18  C   UNL d   1      -2.011  -3.829  -0.453  0.00  0.00     0.143 C 
ATOM     19  O   UNL d   1      -1.578  -7.755   0.263  0.00  0.00    -0.273 OA
BRANCH  17  20
ATOM     20  C   UNL d   1       0.008  -7.485   2.069  0.00  0.00     0.177 C 
BRANCH  20  21
ATOM     21  S   UNL d   1      -0.232  -9.248   2.503  0.00  0.00    -0.149 SA
BRANCH  21  22
ATOM     22  C   UNL d   1       0.430 -10.047   0.991  0.00  0.00     0.184 C 
BRANCH  22  23
ATOM     23  C   UNL d   1       1.910  -9.780   0.812  0.00  0.00     0.149 C 
ATOM     24  O   UNL d   1       2.468  -9.729  -0.275  0.00  0.00    -0.649 OA
BRANCH  23  25
ATOM     25  O   UNL d   1       2.594  -9.646   1.976  0.00  0.00    -0.776 OA
ATOM     26  H   UNL d   1       1.987  -9.723   2.744  0.00  0.00     0.167 HD
ENDBRANCH  23  25
ENDBRANCH  22  23
ENDBRANCH  21  22
ENDBRANCH  20  21
ENDBRANCH  17  20
ENDBRANCH   1  12
BRANCH   2  27
ATOM     27  C   UNL d   1      -1.402   1.624   2.051  0.00  0.00     0.432 C 
ATOM     28  F   UNL d   1      -1.262   2.954   1.791  0.00  0.00    -0.165 F 
ATOM     29  F   UNL d   1      -2.613   1.490   2.669  0.00  0.00    -0.165 F 
ATOM     30  F   UNL d   1      -0.474   1.338   3.014  0.00  0.00    -0.165 F 
ENDBRANCH   2  27
TORSDOF 7
