REMARK  3 active torsions:
REMARK  status: ('A' for Active; 'I' for Inactive)
REMARK    1  A    between atoms: N_2  and  S_1 
REMARK    2  A    between atoms: C_5  and  S_1 
REMARK    3  A    between atoms: N_3  and  N_2 
ROOT
ATOM      1  S   UNL d   1       0.998  -0.092   0.019  0.00  0.00     0.276 S 
ATOM      2  O   UNL d   1       0.351  -1.240  -0.584  0.00  0.00    -0.199 OA
ATOM      3  O   UNL d   1       2.441   0.015   0.092  0.00  0.00    -0.199 OA
ENDROOT
BRANCH   1   4
ATOM      4  N   UNL d   1       0.350   0.142   1.579  0.00  0.00    -0.223 N 
ATOM      5  H   UNL d   1      -0.262   0.943   1.709  0.00  0.00     0.200 HD
BRANCH   4   6
ATOM      6  N   UNL d   1       0.611  -0.859   2.567  0.00  0.00    -0.300 N 
ATOM      7  C   UNL d   1       0.133  -0.747   3.766  0.00  0.00    -0.004 C 
ATOM      8  C   UNL d   1      -0.717   0.379   4.296  0.00  0.00     0.064 C 
ATOM      9  C   UNL d   1       0.460  -1.855   4.741  0.00  0.00     0.064 C 
ATOM     10  HN  UNL d   1       1.181  -1.670   2.326  1.00  0.00     0.187 HD
ENDBRANCH   4   6
ENDBRANCH   1   4
BRANCH   1  11
ATOM     11  C   UNL d   1       0.409   1.354  -0.840  0.00  0.00     0.081 A 
ATOM     12  C   UNL d   1       1.182   2.518  -0.836  0.00  0.00     0.026 A 
ATOM     13  C   UNL d   1       0.792   3.606  -1.619  0.00  0.00     0.008 A 
ATOM     14  C   UNL d   1      -0.360   3.534  -2.415  0.00  0.00    -0.062 A 
ATOM     15  C   UNL d   1      -1.134   2.367  -2.397  0.00  0.00     0.008 A 
ATOM     16  C   UNL d   1      -0.722   4.685  -3.309  0.00  0.00     0.048 C 
ATOM     17  C   UNL d   1      -0.752   1.274  -1.615  0.00  0.00     0.026 A 
ENDBRANCH   1  11
TORSDOF 3
