REMARK  6 active torsions:
REMARK  status: ('A' for Active; 'I' for Inactive)
REMARK    1  A    between atoms: N_3  and  C_1 
REMARK    2  A    between atoms: N_5  and  C_1 
REMARK       I    between atoms: C_2  and  N_4 
REMARK    3  A    between atoms: O_8  and  C_2 
REMARK    4  A    between atoms: N_4  and  N_3 
REMARK    5  A    between atoms: C_9  and  N_5 
REMARK    6  A    between atoms: C_10  and  O_8 
ROOT
ATOM      1  C   UNL d   1       1.063  -0.004   0.130  0.00  0.00     0.191 C 
ATOM      2  S   UNL d   1       2.722   0.044  -0.095  0.00  0.00    -0.039 SA
ENDROOT
BRANCH   1   3
ATOM      3  N   UNL d   1       0.426   0.464   1.242  0.00  0.00    -0.272 N 
ATOM      4  H   UNL d   1      -0.522   0.165   1.469  0.00  0.00     0.189 HD
BRANCH   3   5
ATOM      5  N   UNL d   1       0.992   1.412   2.106  0.00  0.00    -0.243 N 
ATOM      6  C   UNL d   1       0.115   2.136   2.875  0.00  0.00     0.379 C 
ATOM      7  O   UNL d   1      -1.054   1.811   3.060  0.00  0.00    -0.237 OA
ATOM      8  H   UNL d   1       1.845   1.873   1.802  0.00  0.00     0.192 HD
BRANCH   6   9
ATOM      9  O   UNL d   1       0.695   3.278   3.317  0.00  0.00    -0.303 OA
BRANCH   9  10
ATOM     10  C   UNL d   1      -0.196   4.191   3.978  0.00  0.00     0.176 C 
ATOM     11  C   UNL d   1      -0.860   5.088   2.948  0.00  0.00     0.034 C 
ENDBRANCH   9  10
ENDBRANCH   6   9
ENDBRANCH   3   5
ENDBRANCH   1   3
BRANCH   1  12
ATOM     12  N   UNL d   1       0.289  -0.583  -0.838  0.00  0.00    -0.332 N 
ATOM     13  H   UNL d   1       0.822  -1.143  -1.496  0.00  0.00     0.168 HD
BRANCH  12  14
ATOM     14  C   UNL d   1      -1.060  -0.350  -1.193  0.00  0.00     0.034 A 
ATOM     15  C   UNL d   1      -1.841   0.692  -0.682  0.00  0.00     0.029 A 
ATOM     16  C   UNL d   1      -3.155   0.882  -1.122  0.00  0.00     0.002 A 
ATOM     17  C   UNL d   1      -3.695   0.048  -2.095  0.00  0.00     0.000 A 
ATOM     18  C   UNL d   1      -2.920  -0.976  -2.633  0.00  0.00     0.002 A 
ATOM     19  C   UNL d   1      -1.610  -1.172  -2.185  0.00  0.00     0.029 A 
ENDBRANCH  12  14
ENDBRANCH   1  12
TORSDOF 6
