REMARK  4 active torsions:
REMARK  status: ('A' for Active; 'I' for Inactive)
REMARK    1  A    between atoms: C_2  and  S_1 
REMARK    2  A    between atoms: O_8  and  S_1 
REMARK    3  A    between atoms: C_3  and  C_7 
REMARK    4  A    between atoms: C_14  and  O_8 
ROOT
ATOM      1  C   UNL d   1       0.341  -0.156  -1.680  0.00  0.00     0.128 A 
ATOM      2  S   UNL d   1       1.602  -0.594  -2.757  0.00  0.00    -0.074 SA
ATOM      3  C   UNL d   1       0.600  -0.423  -4.127  0.00  0.00     0.033 A 
ATOM      4  C   UNL d   1      -0.851   0.033  -2.359  0.00  0.00     0.035 A 
ATOM      5  C   UNL d   1      -0.692  -0.095  -3.772  0.00  0.00     0.023 A 
ENDROOT
BRANCH   1   6
ATOM      6  S   UNL d   1       0.795   0.073   0.041  0.00  0.00     0.309 S 
ATOM      7  O   UNL d   1      -0.237   0.939   0.562  0.00  0.00    -0.192 OA
ATOM      8  O   UNL d   1       2.190   0.459   0.008  0.00  0.00    -0.192 OA
BRANCH   6   9
ATOM      9  O   UNL d   1       0.606  -1.442   0.656  0.00  0.00    -0.228 OA
BRANCH   9  10
ATOM     10  C   UNL d   1       0.947  -1.708   1.971  0.00  0.00     0.095 A 
ATOM     11  C   UNL d   1       0.249  -2.694   2.684  0.00  0.00    -0.027 A 
ATOM     12  C   UNL d   1       0.588  -2.941   4.034  0.00  0.00     0.016 A 
ATOM     13  C   UNL d   1      -0.886  -3.499   2.110  0.00  0.00     0.051 C 
ATOM     14  C   UNL d   1       1.662  -2.285   4.648  0.00  0.00    -0.061 A 
ATOM     15  C   UNL d   1       2.383  -1.353   3.915  0.00  0.00     0.009 A 
ATOM     16  C   UNL d   1       2.036  -2.607   6.064  0.00  0.00     0.048 C 
ATOM     17  C   UNL d   1       2.030  -1.069   2.592  0.00  0.00     0.039 A 
ENDBRANCH   9  10
ENDBRANCH   6   9
ENDBRANCH   1   6
BRANCH   3  18
ATOM     18  C   UNL d   1       1.032  -0.601  -5.553  0.00  0.00     0.056 A 
ATOM     19  N   UNL d   1       0.143  -0.370  -6.592  0.00  0.00    -0.353 N 
ATOM     20  C   UNL d   1       0.736  -0.578  -7.748  0.00  0.00     0.047 A 
ATOM     21  HN  UNL d   1      -0.828  -0.081  -6.477  1.00  0.00     0.166 HD
ATOM     22  C   UNL d   1       0.081  -0.390  -9.072  0.00  0.00     0.076 C 
ATOM     23  S   UNL d   1       2.370  -1.100  -7.658  0.00  0.00    -0.087 SA
ATOM     24  C   UNL d   1       2.296  -0.993  -5.947  0.00  0.00     0.082 A 
ENDBRANCH   3  18
TORSDOF 4
