REMARK  6 active torsions:
REMARK  status: ('A' for Active; 'I' for Inactive)
REMARK    1  A    between atoms: C_2  and  S_1 
REMARK    2  A    between atoms: N_7  and  S_1 
REMARK    3  A    between atoms: C_8  and  C_3 
REMARK    4  A    between atoms: C_12  and  N_7 
REMARK    5  A    between atoms: O_13  and  C_8 
REMARK    6  A    between atoms: C_16  and  O_13 
ROOT
ATOM      1  C   UNL d   1       0.528   0.212  -1.715  0.00  0.00     0.127 A 
ATOM      2  C   UNL d   1       0.097  -0.651  -2.778  0.00  0.00     0.094 A 
ATOM      3  C   UNL d   1       0.413   1.504  -2.193  0.00  0.00     0.073 A 
ATOM      4  C   UNL d   1      -0.361   0.195  -3.779  0.00  0.00     0.067 A 
ATOM      5  O   UNL d   1      -0.142   1.492  -3.437  0.00  0.00    -0.318 OA
ATOM      6  C   UNL d   1      -0.967  -0.002  -5.118  0.00  0.00     0.078 C 
ATOM      7  C   UNL d   1       0.745   2.853  -1.685  0.00  0.00     0.078 C 
ENDROOT
BRANCH   1   8
ATOM      8  S   UNL d   1       1.041  -0.239  -0.127  0.00  0.00     0.266 S 
ATOM      9  O   UNL d   1       0.474  -1.552   0.078  0.00  0.00    -0.200 OA
ATOM     10  O   UNL d   1       0.649   0.865   0.710  0.00  0.00    -0.200 OA
BRANCH   8  11
ATOM     11  N   UNL d   1       2.720  -0.406  -0.061  0.00  0.00    -0.281 N 
ATOM     12  H   UNL d   1       3.025  -1.331  -0.369  0.00  0.00     0.179 HD
BRANCH  11  13
ATOM     13  C   UNL d   1       3.527   0.699  -0.445  0.00  0.00     0.042 A 
ATOM     14  C   UNL d   1       3.884   1.660   0.502  0.00  0.00     0.030 A 
ATOM     15  C   UNL d   1       4.652   2.765   0.122  0.00  0.00     0.002 A 
ATOM     16  C   UNL d   1       5.041   2.918  -1.208  0.00  0.00     0.000 A 
ATOM     17  C   UNL d   1       4.677   1.962  -2.155  0.00  0.00     0.002 A 
ATOM     18  C   UNL d   1       3.925   0.848  -1.774  0.00  0.00     0.030 A 
ENDBRANCH  11  13
ENDBRANCH   8  11
ENDBRANCH   1   8
BRANCH   2  19
ATOM     19  C   UNL d   1       0.101  -2.097  -2.887  0.00  0.00     0.297 C 
ATOM     20  O   UNL d   1      -0.733  -2.724  -3.529  0.00  0.00    -0.259 OA
BRANCH  19  21
ATOM     21  O   UNL d   1       1.210  -2.652  -2.318  0.00  0.00    -0.318 OA
BRANCH  21  22
ATOM     22  C   UNL d   1       1.343  -4.071  -2.495  0.00  0.00     0.174 C 
ATOM     23  C   UNL d   1       0.439  -4.834  -1.544  0.00  0.00     0.034 C 
ENDBRANCH  21  22
ENDBRANCH  19  21
ENDBRANCH   2  19
TORSDOF 6
