REMARK  2 active torsions:
REMARK  status: ('A' for Active; 'I' for Inactive)
REMARK    1  A    between atoms: C_2  and  C_1 
REMARK       I    between atoms: N_8  and  C_2 
REMARK    2  A    between atoms: C_10  and  N_8 
ROOT
ATOM      1  C   UNL d   1      -0.039   2.413  -0.172  0.00  0.00     0.260 C 
ATOM      2  N   UNL d   1      -1.287   3.018  -0.151  0.00  0.00    -0.323 N 
ATOM      3  O   UNL d   1       1.020   3.038  -0.177  0.00  0.00    -0.267 OA
ATOM      4  H   UNL d   1      -2.100   2.428  -0.101  0.00  0.00     0.169 HD
ENDROOT
BRANCH   1   5
ATOM      5  C   UNL d   1       0.012   0.951  -0.171  0.00  0.00     0.087 A 
ATOM      6  C   UNL d   1       1.214   0.264  -0.039  0.00  0.00     0.090 A 
ATOM      7  O   UNL d   1       0.994  -1.069  -0.050  0.00  0.00    -0.242 OA
ATOM      8  C   UNL d   1       2.625   0.684   0.099  0.00  0.00     0.080 C 
ATOM      9  N   UNL d   1      -0.348  -1.309  -0.208  0.00  0.00    -0.265 N 
ATOM     10  C   UNL d   1      -0.937  -0.109  -0.303  0.00  0.00     0.047 A 
ATOM     11  HN  UNL d   1      -0.806  -2.220  -0.246  1.00  0.00     0.194 HD
ATOM     12  C   UNL d   1      -2.401  -0.105  -0.527  0.00  0.00     0.071 C 
ENDBRANCH   1   5
BRANCH   2  13
ATOM     13  C   UNL d   1      -1.536   4.417  -0.097  0.00  0.00     0.035 A 
ATOM     14  C   UNL d   1      -0.534   5.394  -0.105  0.00  0.00     0.029 A 
ATOM     15  C   UNL d   1      -0.846   6.756   0.004  0.00  0.00     0.002 A 
ATOM     16  C   UNL d   1      -2.170   7.160   0.112  0.00  0.00     0.000 A 
ATOM     17  C   UNL d   1      -3.183   6.204   0.093  0.00  0.00     0.002 A 
ATOM     18  C   UNL d   1      -2.869   4.842  -0.014  0.00  0.00     0.029 A 
ENDBRANCH   2  13
TORSDOF 2
