REMARK  6 active torsions:
REMARK  status: ('A' for Active; 'I' for Inactive)
REMARK    1  A    between atoms: N_2  and  C_1 
REMARK    2  A    between atoms: N_11  and  C_1 
REMARK    3  A    between atoms: C_3  and  N_2 
REMARK    4  A    between atoms: N_6  and  N_11 
REMARK    5  A    between atoms: C_9  and  C_16 
REMARK    6  A    between atoms: O_17  and  C_15 
ROOT
ATOM      1  N   UNL d   1       2.659  -0.398   0.204  0.00  0.00    -0.277 N 
ATOM      2  H   UNL d   1       3.070  -0.562  -0.711  0.00  0.00     0.189 HD
ENDROOT
BRANCH   1   3
ATOM      3  N   UNL d   1       3.450   0.047   1.227  0.00  0.00    -0.309 N 
ATOM      4  C   UNL d   1       4.720   0.032   0.939  0.00  0.00     0.121 C 
ATOM      5  HN  UNL d   1       3.081   0.359   2.125  1.00  0.00     0.186 HD
BRANCH   4   6
ATOM      6  C   UNL d   1       5.731   0.656   1.815  0.00  0.00     0.014 A 
ATOM      7  C   UNL d   1       5.400   1.231   3.045  0.00  0.00     0.077 A 
ATOM      8  C   UNL d   1       6.356   1.940   3.768  0.00  0.00     0.037 A 
ATOM      9  C   UNL d   1       7.649   2.079   3.263  0.00  0.00     0.003 A 
ATOM     10  C   UNL d   1       7.997   1.480   2.052  0.00  0.00     0.001 A 
ATOM     11  C   UNL d   1       7.042   0.759   1.327  0.00  0.00     0.015 A 
BRANCH   7  12
ATOM     12  O   UNL d   1       4.148   1.155   3.588  0.00  0.00    -0.360 OA
ATOM     13  H   UNL d   1       3.570   0.727   2.922  0.00  0.00     0.217 HD
ENDBRANCH   7  12
ENDBRANCH   4   6
ENDBRANCH   1   3
BRANCH   1  14
ATOM     14  C   UNL d   1       1.286  -0.343   0.234  0.00  0.00     0.186 C 
ATOM     15  S   UNL d   1       0.456  -0.592  -1.193  0.00  0.00    -0.040 SA
BRANCH  14  16
ATOM     16  N   UNL d   1       0.742  -0.070   1.461  0.00  0.00    -0.361 N 
ATOM     17  H   UNL d   1       1.421  -0.131   2.208  0.00  0.00     0.162 HD
BRANCH  16  18
ATOM     18  C   UNL d   1      -0.666  -0.217   1.816  0.00  0.00     0.092 C 
ATOM     19  C   UNL d   1      -1.097  -1.695   2.059  0.00  0.00     0.031 C 
ATOM     20  C   UNL d   1      -0.232  -2.291   3.153  0.00  0.00    -0.024 C 
ATOM     21  C   UNL d   1      -2.379  -1.484   2.872  0.00  0.00     0.019 C 
ATOM     22  C   UNL d   1      -0.570  -1.681   4.299  0.00  0.00    -0.026 C 
ATOM     23  C   UNL d   1      -1.666  -0.694   3.974  0.00  0.00     0.010 C 
ATOM     24  C   UNL d   1      -1.044   0.467   3.165  0.00  0.00     0.034 C 
ENDBRANCH  16  18
ENDBRANCH  14  16
ENDBRANCH   1  14
TORSDOF 6
