REMARK  2 active torsions:
REMARK  status: ('A' for Active; 'I' for Inactive)
REMARK    1  A    between atoms: N_2  and  C_1 
REMARK    2  A    between atoms: N_11  and  C_3 
ROOT
ATOM      1  C   UNL d   1      -0.700   1.267   0.053  0.00  0.00     0.142 A 
ATOM      2  C   UNL d   1      -1.419   0.069   0.086  0.00  0.00     0.111 A 
ATOM      3  N   UNL d   1      -0.790  -1.126   0.046  0.00  0.00    -0.354 N 
ATOM      4  HN  UNL d   1      -1.320  -1.998   0.066  1.00  0.00     0.166 HD
ATOM      5  C   UNL d   1       0.701   1.239  -0.013  0.00  0.00     0.060 A 
ATOM      6  C   UNL d   1       1.341   0.009  -0.045  0.00  0.00     0.028 A 
ATOM      7  C   UNL d   1       0.565  -1.137  -0.021  0.00  0.00     0.108 A 
ATOM      8 BR   UNL d   1       3.220  -0.097  -0.122  0.00  0.00    -0.050 Br
ENDROOT
BRANCH   1   9
ATOM      9  N   UNL d   1      -1.379   2.552   0.052  0.00  0.00    -0.112 N 
ATOM     10  O   UNL d   1      -2.545   2.607  -0.369  0.00  0.00    -0.532 OA
ATOM     11  O   UNL d   1      -0.724   3.541   0.419  0.00  0.00    -0.532 OA
ENDBRANCH   1   9
BRANCH   2  12
ATOM     12  N   UNL d   1      -2.790  -0.027   0.274  0.00  0.00    -0.287 NA
ATOM     13  H   UNL d   1      -3.327   0.614  -0.306  0.00  0.00     0.125 HD
ATOM     14  H   UNL d   1      -3.073  -0.999   0.170  0.00  0.00     0.125 HD
ENDBRANCH   2  12
TORSDOF 2
