REMARK  2 active torsions:
REMARK  status: ('A' for Active; 'I' for Inactive)
REMARK    1  A    between atoms: C_20  and  N_5 
REMARK    2  A    between atoms: C_14  and  C_8 
ROOT
ATOM      1  C   UNL d   1      -0.367  -1.292   0.140  0.00  0.00     0.123 A 
ATOM      2  C   UNL d   1      -0.686  -2.678   0.263  0.00  0.00     0.202 A 
ATOM      3  N   UNL d   1      -1.845  -3.193  -0.083  0.00  0.00    -0.317 N 
ATOM      4  HN  UNL d   1      -2.626  -2.735  -0.554  1.00  0.00     0.169 HD
ATOM      5  N   UNL d   1       0.902  -0.769   0.087  0.00  0.00    -0.287 N 
ATOM      6  N   UNL d   1       0.923   0.583   0.051  0.00  0.00    -0.301 N 
ATOM      7  HN  UNL d   1       1.740   1.195   0.039  1.00  0.00     0.187 HD
ATOM      8  C   UNL d   1      -1.754  -4.495   0.340  0.00  0.00     0.145 A 
ATOM      9  C   UNL d   1      -1.201  -0.198   0.070  0.00  0.00     0.067 A 
ATOM     10  C   UNL d   1      -0.368   0.939   0.035  0.00  0.00     0.042 A 
ATOM     11  N   UNL d   1      -0.567  -4.813   0.878  0.00  0.00    -0.241 N 
ATOM     12  HN  UNL d   1      -0.259  -5.715   1.241  1.00  0.00     0.196 HD
ATOM     13  O   UNL d   1       0.145  -3.616   0.822  0.00  0.00    -0.215 OA
ATOM     14 BR   UNL d   1      -3.079  -0.154   0.075  0.00  0.00    -0.046 Br
ATOM     15  C   UNL d   1      -0.725   2.379  -0.004  0.00  0.00     0.071 C 
ENDROOT
BRANCH   5  16
ATOM     16  C   UNL d   1       2.173  -1.466  -0.027  0.00  0.00     0.145 C 
ATOM     17  C   UNL d   1       2.852  -1.682   1.313  0.00  0.00     0.028 C 
ENDBRANCH   5  16
BRANCH   8  18
ATOM     18  C   UNL d   1      -2.908  -5.438   0.241  0.00  0.00     0.050 A 
ATOM     19  S   UNL d   1      -2.933  -7.016   0.892  0.00  0.00    -0.098 SA
ATOM     20  C   UNL d   1      -4.553  -7.262   0.396  0.00  0.00     0.050 A 
ATOM     21  C   UNL d   1      -5.055  -6.175  -0.286  0.00  0.00     0.009 A 
ATOM     22  C   UNL d   1      -4.102  -5.118  -0.375  0.00  0.00     0.023 A 
ENDBRANCH   8  18
TORSDOF 2
