REMARK  4 active torsions:
REMARK  status: ('A' for Active; 'I' for Inactive)
REMARK    1  A    between atoms: N_2  and  S_1 
REMARK    2  A    between atoms: C_7  and  S_1 
REMARK    3  A    between atoms: O_18  and  C_11 
REMARK    4  A    between atoms: O_19  and  C_13 
ROOT
ATOM      1  N   UNL d   1       0.520  -1.445  -0.738  0.00  0.00    -0.298 N 
ATOM      2  C   UNL d   1       0.674  -3.946  -1.118  0.00  0.00    -0.026 A 
ATOM      3  C   UNL d   1       1.228  -2.721  -0.390  0.00  0.00     0.125 C 
ATOM      4  C   UNL d   1      -0.548  -3.922  -1.803  0.00  0.00    -0.045 A 
ATOM      5  C   UNL d   1       1.371  -5.160  -1.027  0.00  0.00     0.049 A 
ATOM      6  C   UNL d   1      -0.955  -1.625  -0.879  0.00  0.00     0.141 C 
ATOM      7  C   UNL d   1       0.814  -6.354  -1.490  0.00  0.00     0.102 A 
ATOM      8  C   UNL d   1      -1.073  -5.111  -2.347  0.00  0.00     0.047 A 
ATOM      9  C   UNL d   1      -0.411  -6.333  -2.175  0.00  0.00     0.102 A 
ATOM     10  C   UNL d   1      -1.264  -2.613  -2.001  0.00  0.00     0.060 C 
ATOM     11  C   UNL d   1       1.225  -3.019   1.118  0.00  0.00     0.038 C 
ENDROOT
BRANCH   1  12
ATOM     12  S   UNL d   1       0.928  -0.014   0.097  0.00  0.00     0.261 S 
ATOM     13  O   UNL d   1       0.642  -0.206   1.503  0.00  0.00    -0.200 OA
ATOM     14  O   UNL d   1       0.335   1.098  -0.620  0.00  0.00    -0.200 OA
BRANCH  12  15
ATOM     15  C   UNL d   1       2.685   0.130  -0.112  0.00  0.00     0.079 A 
ATOM     16  C   UNL d   1       3.200   0.264  -1.406  0.00  0.00     0.027 A 
ATOM     17  C   UNL d   1       4.575   0.423  -1.584  0.00  0.00     0.025 A 
ATOM     18  C   UNL d   1       5.420   0.457  -0.474  0.00  0.00     0.034 A 
ATOM     19  C   UNL d   1       4.904   0.330   0.817  0.00  0.00     0.025 A 
ATOM     20 CL   UNL d   1       7.113   0.666  -0.698  0.00  0.00    -0.084 Cl
ATOM     21  C   UNL d   1       3.527   0.167   1.003  0.00  0.00     0.027 A 
ENDBRANCH  12  15
ENDBRANCH   1  12
BRANCH   7  22
ATOM     22  O   UNL d   1       1.435  -7.566  -1.309  0.00  0.00    -0.353 OA
ATOM     23  C   UNL d   1       2.134  -7.691  -0.071  0.00  0.00     0.210 C 
ENDBRANCH   7  22
BRANCH   9  24
ATOM     24  O   UNL d   1      -0.877  -7.547  -2.612  0.00  0.00    -0.353 OA
ATOM     25  C   UNL d   1      -2.114  -7.569  -3.311  0.00  0.00     0.210 C 
ENDBRANCH   9  24
TORSDOF 4
