REMARK  4 active torsions:
REMARK  status: ('A' for Active; 'I' for Inactive)
REMARK    1  A    between atoms: C_2  and  O_9 
REMARK       I    between atoms: N_10  and  C_2 
REMARK    2  A    between atoms: C_16  and  C_3 
REMARK    3  A    between atoms: O_9  and  C_12 
REMARK    4  A    between atoms: O_17  and  C_16 
ROOT
ATOM      1  C   UNL d   1       0.304   0.320  -0.528  0.00  0.00     0.093 A 
ATOM      2  C   UNL d   1      -0.506  -1.969  -0.090  0.00  0.00    -0.016 C 
ATOM      3  O   UNL d   1      -1.019   0.752  -0.727  0.00  0.00    -0.275 OA
ATOM      4  C   UNL d   1      -2.074  -0.076  -0.387  0.00  0.00     0.288 C 
ATOM      5  C   UNL d   1       0.599  -1.001  -0.177  0.00  0.00     0.007 A 
ATOM      6  C   UNL d   1      -1.758  -1.489  -0.154  0.00  0.00     0.092 C 
ATOM      7  C   UNL d   1       1.286   1.307  -0.628  0.00  0.00     0.075 A 
ATOM      8  C   UNL d   1       1.936  -1.305   0.104  0.00  0.00     0.017 A 
ATOM      9  C   UNL d   1       2.599   0.988  -0.293  0.00  0.00     0.083 A 
ATOM     10  O   UNL d   1      -3.234   0.325  -0.349  0.00  0.00    -0.260 OA
ATOM     11  C   UNL d   1       2.932  -0.316   0.059  0.00  0.00     0.038 A 
ENDROOT
BRANCH   9  12
ATOM     12  O   UNL d   1       3.494   2.088  -0.288  0.00  0.00    -0.261 OA
BRANCH  12  13
ATOM     13  C   UNL d   1       4.755   2.122   0.315  0.00  0.00     0.367 C 
ATOM     14  N   UNL d   1       5.296   3.403   0.358  0.00  0.00    -0.336 N 
ATOM     15  C   UNL d   1       6.642   3.582   0.868  0.00  0.00     0.154 C 
ATOM     16  C   UNL d   1       4.662   4.561  -0.246  0.00  0.00     0.154 C 
ATOM     17  O   UNL d   1       5.324   1.142   0.783  0.00  0.00    -0.238 OA
ENDBRANCH  12  13
ENDBRANCH   9  12
BRANCH   2  18
ATOM     18  C   UNL d   1      -0.254  -3.452  -0.005  0.00  0.00     0.206 C 
BRANCH  18  19
ATOM     19  O   UNL d   1       0.438  -3.787   1.193  0.00  0.00    -0.391 OA
ATOM     20  C   UNL d   1       0.784  -5.169   1.220  0.00  0.00     0.201 C 
ENDBRANCH  18  19
ENDBRANCH   2  18
TORSDOF 4
