REMARK  2 active torsions:
REMARK  status: ('A' for Active; 'I' for Inactive)
REMARK    1  A    between atoms: C_6  and  N_1 
REMARK    2  A    between atoms: N_7  and  C_6 
ROOT
ATOM      1  N   UNL d   1       1.460   1.183  -0.167  0.00  0.00    -0.283 N 
ATOM      2  C   UNL d   1       2.345   0.255   0.354  0.00  0.00     0.300 A 
ATOM      3  C   UNL d   1       0.265  -0.791  -0.215  0.00  0.00     0.050 A 
ATOM      4  C   UNL d   1       0.255   0.563  -0.552  0.00  0.00     0.054 A 
ATOM      5  C   UNL d   1       1.580  -1.090   0.341  0.00  0.00     0.252 A 
ATOM      6  C   UNL d   1      -0.868   1.121  -1.141  0.00  0.00     0.034 A 
ATOM      7  C   UNL d   1      -0.826  -1.621  -0.382  0.00  0.00     0.060 A 
ATOM      8  O   UNL d   1       3.479   0.412   0.758  0.00  0.00    -0.263 OA
ATOM      9  O   UNL d   1       1.986  -2.171   0.707  0.00  0.00    -0.281 OA
ATOM     10  C   UNL d   1      -1.967  -1.042  -0.924  0.00  0.00     0.117 A 
ATOM     11  C   UNL d   1      -1.992   0.305  -1.317  0.00  0.00     0.044 A 
ATOM     12  F   UNL d   1      -3.074  -1.781  -1.066  0.00  0.00    -0.206 F 
ENDROOT
BRANCH   1  13
ATOM     13  C   UNL d   1       1.785   2.580  -0.298  0.00  0.00     0.405 C 
BRANCH  13  14
ATOM     14  N   UNL d   1       0.696   3.412   0.207  0.00  0.00     0.110 N 
ATOM     15  C   UNL d   1       0.566   3.395   1.681  0.00  0.00     0.300 C 
ATOM     16  C   UNL d   1       1.527   4.324   2.449  0.00  0.00     0.198 C 
ATOM     17  O   UNL d   1       1.565   5.646   1.901  0.00  0.00    -0.388 OA
ATOM     18  C   UNL d   1       1.879   5.611   0.507  0.00  0.00     0.198 C 
ATOM     19  C   UNL d   1       0.815   4.809  -0.251  0.00  0.00     0.300 C 
ENDBRANCH  13  14
ENDBRANCH   1  13
TORSDOF 2
