REMARK  6 active torsions:
REMARK  status: ('A' for Active; 'I' for Inactive)
REMARK       I    between atoms: N_2  and  C_1 
REMARK       I    between atoms: N_10  and  C_1 
REMARK    1  A    between atoms: C_3  and  N_2 
REMARK    2  A    between atoms: C_5  and  C_16 
REMARK    3  A    between atoms: C_20  and  N_10 
REMARK    4  A    between atoms: S_14  and  C_21 
REMARK    5  A    between atoms: C_16  and  S_14 
REMARK    6  A    between atoms: C_21  and  C_20 
ROOT
ATOM      1  C   UNL d   1       1.971  -0.224   1.439  0.00  0.00     0.320 C 
ATOM      2  N   UNL d   1       1.267  -1.406   1.452  0.00  0.00    -0.308 N 
ATOM      3  O   UNL d   1       2.218   0.471   2.419  0.00  0.00    -0.247 OA
ATOM      4  N   UNL d   1       2.390   0.104   0.173  0.00  0.00    -0.342 N 
ATOM      5  H   UNL d   1       1.490  -2.051   0.715  0.00  0.00     0.170 HD
ATOM      6  H   UNL d   1       2.282  -0.571  -0.571  0.00  0.00     0.164 HD
ENDROOT
BRANCH   4   7
ATOM      7  C   UNL d   1       3.239   1.251  -0.079  0.00  0.00     0.134 C 
BRANCH   7   8
ATOM      8  C   UNL d   1       4.689   0.849  -0.359  0.00  0.00     0.094 C 
BRANCH   8   9
ATOM      9  S   UNL d   1       4.868  -0.346  -1.739  0.00  0.00    -0.163 SA
BRANCH   9  10
ATOM     10  C   UNL d   1       4.220   0.663  -3.109  0.00  0.00     0.114 C 
BRANCH  10  11
ATOM     11  C   UNL d   1       4.195  -0.110  -4.404  0.00  0.00    -0.027 A 
ATOM     12  C   UNL d   1       3.108  -0.914  -4.786  0.00  0.00     0.041 A 
ATOM     13 CL   UNL d   1       1.710  -1.101  -3.783  0.00  0.00    -0.084 Cl
ATOM     14  C   UNL d   1       3.124  -1.598  -6.005  0.00  0.00     0.024 A 
ATOM     15  C   UNL d   1       4.227  -1.498  -6.851  0.00  0.00     0.002 A 
ATOM     16  C   UNL d   1       5.320  -0.722  -6.477  0.00  0.00     0.001 A 
ATOM     17  C   UNL d   1       5.306  -0.035  -5.262  0.00  0.00     0.009 A 
ENDBRANCH  10  11
ENDBRANCH   9  10
ENDBRANCH   8   9
ENDBRANCH   7   8
ENDBRANCH   4   7
BRANCH   2  18
ATOM     18  C   UNL d   1       0.613  -1.918   2.589  0.00  0.00     0.042 A 
ATOM     19  C   UNL d   1       0.642  -3.299   2.867  0.00  0.00    -0.032 A 
ATOM     20  C   UNL d   1      -0.131  -3.789   3.938  0.00  0.00     0.051 A 
ATOM     21  C   UNL d   1       1.536  -4.272   2.154  0.00  0.00     0.050 C 
ATOM     22  C   UNL d   1      -0.899  -2.926   4.713  0.00  0.00     0.117 A 
ATOM     23  C   UNL d   1      -0.901  -1.563   4.459  0.00  0.00     0.044 A 
ATOM     24  F   UNL d   1      -1.634  -3.420   5.715  0.00  0.00    -0.206 F 
ATOM     25  C   UNL d   1      -0.139  -1.054   3.408  0.00  0.00     0.033 A 
ENDBRANCH   2  18
TORSDOF 6
