REMARK  7 active torsions:
REMARK  status: ('A' for Active; 'I' for Inactive)
REMARK    1  A    between atoms: C_8  and  C_1 
REMARK    2  A    between atoms: C_11  and  N_6 
REMARK    3  A    between atoms: C_10  and  N_16 
REMARK    4  A    between atoms: N_15  and  C_10 
REMARK    5  A    between atoms: C_12  and  C_11 
REMARK       I    between atoms: N_17  and  C_12 
REMARK    6  A    between atoms: C_14  and  N_15 
REMARK    7  A    between atoms: N_16  and  N_17 
ROOT
ATOM      1  C   UNL d   1       3.125   0.708  -0.379  0.00  0.00     0.257 C 
ATOM      2  N   UNL d   1       3.191  -0.585  -0.836  0.00  0.00    -0.266 N 
ATOM      3  O   UNL d   1       4.115   1.433  -0.481  0.00  0.00    -0.270 OA
ATOM      4  H   UNL d   1       4.011  -0.803  -1.407  0.00  0.00     0.190 HD
ENDROOT
BRANCH   1   5
ATOM      5  C   UNL d   1       1.877   1.173   0.314  0.00  0.00     0.271 C 
BRANCH   5   6
ATOM      6  N   UNL d   1       0.875   1.597  -0.627  0.00  0.00    -0.207 N 
ATOM      7  N   UNL d   1      -0.384   1.118  -0.567  0.00  0.00    -0.268 N 
ATOM      8  C   UNL d   1      -0.981   1.904  -1.478  0.00  0.00     0.146 A 
ATOM      9  HN  UNL d   1      -0.772   0.370   0.008  1.00  0.00     0.190 HD
ATOM     10  N   UNL d   1      -0.109   2.776  -2.081  0.00  0.00    -0.266 N 
ATOM     11  N   UNL d   1       1.070   2.596  -1.502  0.00  0.00    -0.002 NA
ATOM     12  HN  UNL d   1      -0.326   3.435  -2.829  1.00  0.00     0.186 HD
BRANCH   8  13
ATOM     13  C   UNL d   1      -2.359   1.740  -1.902  0.00  0.00     0.034 A 
ATOM     14  C   UNL d   1      -3.431   1.679  -0.993  0.00  0.00     0.069 A 
ATOM     15  C   UNL d   1      -4.714   1.360  -1.470  0.00  0.00     0.056 A 
ATOM     16 CL   UNL d   1      -3.196   2.033   0.693  0.00  0.00    -0.082 Cl
ATOM     17 CL   UNL d   1      -6.084   1.204  -0.424  0.00  0.00    -0.083 Cl
ATOM     18  C   UNL d   1      -4.928   1.135  -2.835  0.00  0.00     0.026 A 
ATOM     19  C   UNL d   1      -3.877   1.252  -3.739  0.00  0.00     0.003 A 
ATOM     20  C   UNL d   1      -2.599   1.558  -3.275  0.00  0.00     0.017 A 
ENDBRANCH   8  13
ENDBRANCH   5   6
ENDBRANCH   1   5
BRANCH   2  21
ATOM     21  N   UNL d   1       2.070  -1.425  -1.008  0.00  0.00    -0.273 N 
ATOM     22  H   UNL d   1       1.689  -1.811  -0.145  0.00  0.00     0.189 HD
BRANCH  21  23
ATOM     23  C   UNL d   1       2.107  -2.340  -2.066  0.00  0.00     0.191 C 
ATOM     24  S   UNL d   1       3.125  -2.183  -3.395  0.00  0.00    -0.039 SA
BRANCH  23  25
ATOM     25  N   UNL d   1       1.167  -3.351  -1.892  0.00  0.00    -0.332 N 
ATOM     26  H   UNL d   1       0.234  -3.025  -1.675  0.00  0.00     0.168 HD
BRANCH  25  27
ATOM     27  C   UNL d   1       1.321  -4.708  -2.276  0.00  0.00     0.042 A 
ATOM     28  C   UNL d   1       0.219  -5.494  -2.676  0.00  0.00    -0.013 A 
ATOM     29  C   UNL d   1       0.446  -6.860  -2.967  0.00  0.00     0.042 A 
ATOM     30  C   UNL d   1      -1.165  -4.929  -2.872  0.00  0.00     0.052 C 
ATOM     31 CL   UNL d   1      -0.835  -7.906  -3.486  0.00  0.00    -0.084 Cl
ATOM     32  C   UNL d   1       1.717  -7.431  -2.855  0.00  0.00     0.024 A 
ATOM     33  C   UNL d   1       2.791  -6.652  -2.450  0.00  0.00     0.004 A 
ATOM     34  C   UNL d   1       2.590  -5.304  -2.160  0.00  0.00     0.030 A 
ENDBRANCH  25  27
ENDBRANCH  23  25
ENDBRANCH  21  23
ENDBRANCH   2  21
TORSDOF 7
