REMARK  3 active torsions:
REMARK  status: ('A' for Active; 'I' for Inactive)
REMARK    1  A    between atoms: C_9  and  C_1 
REMARK       I    between atoms: C_5  and  N_8 
REMARK    2  A    between atoms: C_10  and  C_5 
REMARK    3  A    between atoms: N_8  and  C_11 
ROOT
ATOM      1  C   UNL d   1      -3.761  -0.139  -0.249  0.00  0.00     0.010 A 
ATOM      2  C   UNL d   1      -5.732  -0.818   1.023  0.00  0.00     0.035 A 
ATOM      3  C   UNL d   1      -4.376  -0.942   0.724  0.00  0.00     0.044 A 
ATOM      4  C   UNL d   1      -4.567   0.691  -1.035  0.00  0.00     0.015 A 
ATOM      5  C   UNL d   1      -5.944   0.756  -0.810  0.00  0.00     0.003 A 
ATOM      6  C   UNL d   1      -6.520   0.023   0.232  0.00  0.00     0.029 A 
ENDROOT
BRANCH   1   7
ATOM      7  C   UNL d   1      -2.298  -0.073  -0.350  0.00  0.00     0.116 A 
ATOM      8  N   UNL d   1      -1.592   0.663  -1.192  0.00  0.00    -0.340 N 
ATOM      9  C   UNL d   1      -0.282   0.555  -0.784  0.00  0.00     0.060 A 
ATOM     10  HN  UNL d   1      -1.946   1.201  -1.983  1.00  0.00     0.167 HD
ATOM     11  C   UNL d   1       0.875   1.171  -1.281  0.00  0.00     0.032 A 
ATOM     12  C   UNL d   1      -0.169  -0.292   0.309  0.00  0.00     0.060 A 
ATOM     13  C   UNL d   1       2.101   0.906  -0.652  0.00  0.00     0.002 A 
ATOM     14  C   UNL d   1       2.174   0.047   0.448  0.00  0.00     0.002 A 
ATOM     15  C   UNL d   1       1.030  -0.575   0.957  0.00  0.00     0.032 A 
ATOM     16  N   UNL d   1      -1.454  -0.699   0.543  0.00  0.00    -0.340 N 
ATOM     17  H   UNL d   1      -1.740  -1.292   1.307  0.00  0.00     0.167 HD
ENDBRANCH   1   7
BRANCH   2  18
ATOM     18  N   UNL d   1      -6.328  -1.436   2.148  0.00  0.00    -0.323 N 
ATOM     19  C   UNL d   1      -5.677  -2.172   3.127  0.00  0.00     0.256 C 
ATOM     20  O   UNL d   1      -4.499  -2.523   3.126  0.00  0.00    -0.267 OA
ATOM     21  H   UNL d   1      -7.284  -1.158   2.326  0.00  0.00     0.169 HD
BRANCH  19  22
ATOM     22  C   UNL d   1      -6.492  -2.495   4.335  0.00  0.00     0.032 A 
ATOM     23  C   UNL d   1      -7.877  -2.702   4.274  0.00  0.00     0.020 A 
ATOM     24  C   UNL d   1      -8.597  -2.930   5.450  0.00  0.00     0.043 A 
ATOM     25  C   UNL d   1      -7.933  -2.968   6.672  0.00  0.00     0.116 A 
ATOM     26  C   UNL d   1      -6.556  -2.804   6.744  0.00  0.00     0.043 A 
ATOM     27  F   UNL d   1      -8.634  -3.166   7.795  0.00  0.00    -0.206 F 
ATOM     28  C   UNL d   1      -5.832  -2.572   5.575  0.00  0.00     0.020 A 
ENDBRANCH  19  22
ENDBRANCH   2  18
TORSDOF 3
