REMARK  1 active torsions:
REMARK  status: ('A' for Active; 'I' for Inactive)
REMARK    1  A    between atoms: C_4  and  N_1 
ROOT
ATOM      1  C   UNL d   1      -0.009   2.328  -0.036  0.00  0.00     0.047 A 
ATOM      2  N   UNL d   1      -1.930   5.759   2.823  0.00  0.00    -0.191 NA
ATOM      3  C   UNL d   1      -1.389   5.176   1.979  0.00  0.00     0.099 C 
ATOM      4  C   UNL d   1      -0.718   3.057   0.934  0.00  0.00     0.052 A 
ATOM      5  C   UNL d   1      -0.703   4.459   0.943  0.00  0.00     0.046 A 
ATOM      6  C   UNL d   1       0.700   3.053  -1.007  0.00  0.00     0.030 A 
ATOM      7  C   UNL d   1       0.695   4.452  -1.019  0.00  0.00     0.004 A 
ATOM      8  C   UNL d   1      -0.002   5.156  -0.042  0.00  0.00     0.023 A 
ENDROOT
BRANCH   1   9
ATOM      9  N   UNL d   1      -0.004   0.905  -0.029  0.00  0.00    -0.245 N 
ATOM     10  C   UNL d   1      -0.929   0.112   0.596  0.00  0.00     0.255 A 
ATOM     11  C   UNL d   1      -0.546  -1.284   0.358  0.00  0.00     0.080 A 
ATOM     12  O   UNL d   1      -1.937   0.395   1.219  0.00  0.00    -0.268 OA
ATOM     13  C   UNL d   1       0.561  -1.284  -0.377  0.00  0.00     0.080 A 
ATOM     14  C   UNL d   1       0.929   0.111  -0.639  0.00  0.00     0.255 A 
ATOM     15  O   UNL d   1       1.939   0.393  -1.263  0.00  0.00    -0.268 OA
ENDBRANCH   1   9
TORSDOF 1
