REMARK  4 active torsions:
REMARK  status: ('A' for Active; 'I' for Inactive)
REMARK    1  A    between atoms: C_7  and  C_1 
REMARK    2  A    between atoms: C_11  and  C_4 
REMARK    3  A    between atoms: O_16  and  C_4 
REMARK    4  A    between atoms: S_15  and  C_5 
ROOT
ATOM      1  C   UNL d   1       1.836   0.928  -0.074  0.00  0.00     0.038 A 
ATOM      2  C   UNL d   1       0.087  -0.651   0.097  0.00  0.00     0.042 A 
ATOM      3  C   UNL d   1       0.450   0.772  -0.042  0.00  0.00    -0.015 A 
ATOM      4  C   UNL d   1       1.187  -1.488   0.120  0.00  0.00     0.056 A 
ATOM      5  S   UNL d   1       2.629  -0.589  -0.016  0.00  0.00    -0.080 SA
ATOM      6  C   UNL d   1      -0.653   1.867  -0.094  0.00  0.00    -0.018 C 
ATOM      7  C   UNL d   1      -1.314  -1.060   0.226  0.00  0.00     0.162 C 
ATOM      8  C   UNL d   1      -2.052   1.263   0.275  0.00  0.00     0.021 C 
ATOM      9  C   UNL d   1      -2.312  -0.094  -0.359  0.00  0.00     0.085 C 
ATOM     10  O   UNL d   1      -1.685  -2.077   0.791  0.00  0.00    -0.292 OA
ATOM     11  C   UNL d   1      -0.760   2.462  -1.513  0.00  0.00     0.020 C 
ATOM     12  C   UNL d   1      -0.428   2.990   0.940  0.00  0.00     0.020 C 
ENDROOT
BRANCH   1  13
ATOM     13  C   UNL d   1       2.688   2.106  -0.150  0.00  0.00     0.043 C 
ATOM     14  N   UNL d   1       2.308   3.234  -0.674  0.00  0.00    -0.321 N 
ATOM     15  N   UNL d   1       3.332   4.111  -0.497  0.00  0.00    -0.198 NA
ATOM     16  HN  UNL d   1       1.415   3.424  -1.130  1.00  0.00     0.180 HD
ATOM     17  C   UNL d   1       4.601   3.431  -0.223  0.00  0.00     0.233 C 
ATOM     18  H   UNL d   1       3.435   4.736  -1.301  0.00  0.00     0.150 HD
ATOM     19  C   UNL d   1       4.085   2.151   0.427  0.00  0.00     0.125 C 
BRANCH  17  20
ATOM     20  C   UNL d   1       5.610   4.199   0.694  0.00  0.00     0.434 C 
ATOM     21  F   UNL d   1       5.732   3.648   1.923  0.00  0.00    -0.166 F 
ATOM     22  F   UNL d   1       6.850   4.158   0.130  0.00  0.00    -0.166 F 
ATOM     23  F   UNL d   1       5.295   5.502   0.852  0.00  0.00    -0.166 F 
ENDBRANCH  17  20
BRANCH  17  24
ATOM     24  O   UNL d   1       5.195   3.073  -1.486  0.00  0.00    -0.366 OA
ATOM     25  H   UNL d   1       6.148   2.931  -1.329  0.00  0.00     0.212 HD
ENDBRANCH  17  24
ENDBRANCH   1  13
BRANCH   4  26
ATOM     26  S   UNL d   1       1.361  -3.234   0.311  0.00  0.00    -0.126 SA
ATOM     27  C   UNL d   1       0.015  -3.970  -0.629  0.00  0.00     0.096 C 
ENDBRANCH   4  26
TORSDOF 4
