REMARK  6 active torsions:
REMARK  status: ('A' for Active; 'I' for Inactive)
REMARK    1  A    between atoms: C_2  and  C_1 
REMARK    2  A    between atoms: C_3  and  C_11 
REMARK    3  A    between atoms: O_15  and  C_3 
REMARK    4  A    between atoms: N_4  and  C_12 
REMARK    5  A    between atoms: C_11  and  N_4 
REMARK    6  A    between atoms: C_16  and  O_15 
ROOT
ATOM      1  C   UNL d   1       0.507   1.525  -0.002  0.00  0.00     0.048 A 
ATOM      2  C   UNL d   1      -0.635   1.769   0.769  0.00  0.00     0.018 A 
ATOM      3  C   UNL d   1       1.142   2.610  -0.620  0.00  0.00     0.018 A 
ATOM      4  C   UNL d   1      -0.519   4.152   0.277  0.00  0.00     0.008 A 
ATOM      5  C   UNL d   1       0.644   3.905  -0.465  0.00  0.00     0.024 A 
ATOM      6  C   UNL d   1      -1.136   3.068   0.912  0.00  0.00     0.024 A 
ENDROOT
BRANCH   4   7
ATOM      7  N   UNL d   1      -0.934   5.471   0.448  0.00  0.00    -0.284 NA
ATOM      8  H   UNL d   1      -0.503   6.127  -0.205  0.00  0.00     0.128 HD
BRANCH   7   9
ATOM      9  C   UNL d   1      -2.367   5.750   0.618  0.00  0.00     0.203 C 
BRANCH   9  10
ATOM     10  C   UNL d   1      -2.652   7.206   0.268  0.00  0.00     0.272 C 
ATOM     11  O   UNL d   1      -1.821   7.997  -0.164  0.00  0.00    -0.264 OA
BRANCH  10  12
ATOM     12  O   UNL d   1      -3.958   7.499   0.531  0.00  0.00    -0.321 OA
BRANCH  12  13
ATOM     13  C   UNL d   1      -4.277   8.897   0.539  0.00  0.00     0.174 C 
ATOM     14  C   UNL d   1      -4.044   9.419   1.944  0.00  0.00     0.034 C 
ENDBRANCH  12  13
ENDBRANCH  10  12
ENDBRANCH   9  10
ENDBRANCH   7   9
ENDBRANCH   4   7
BRANCH   1  15
ATOM     15  C   UNL d   1       1.071   0.136  -0.160  0.00  0.00     0.417 C 
ATOM     16  F   UNL d   1       0.365  -0.819   0.509  0.00  0.00    -0.166 F 
ATOM     17  F   UNL d   1       2.351   0.038   0.292  0.00  0.00    -0.166 F 
ATOM     18  F   UNL d   1       1.102  -0.270  -1.460  0.00  0.00    -0.166 F 
ENDBRANCH   1  15
TORSDOF 6
