REMARK  11 active torsions:
REMARK  status: ('A' for Active; 'I' for Inactive)
REMARK    1  A    between atoms: C_2  and  C_1 
REMARK    2  A    between atoms: O_9  and  C_1 
REMARK    3  A    between atoms: O_10  and  C_4 
REMARK    4  A    between atoms: O_11  and  C_5 
REMARK    5  A    between atoms: C_14  and  O_9 
REMARK    6  A    between atoms: C_15  and  O_10 
REMARK    7  A    between atoms: C_16  and  O_11 
REMARK    8  A    between atoms: O_12  and  C_18 
REMARK    9  A    between atoms: O_13  and  C_17 
REMARK   10  A    between atoms: C_18  and  C_15 
REMARK   11  A    between atoms: C_17  and  C_16 
ROOT
ATOM      1  C   UNL d   1       0.216   0.382  -1.104  0.00  0.00     0.042 A 
ATOM      2  C   UNL d   1       0.537  -0.128  -2.375  0.00  0.00     0.057 A 
ATOM      3  C   UNL d   1      -0.104   0.330  -3.534  0.00  0.00     0.103 A 
ATOM      4  C   UNL d   1      -1.135   1.286  -3.416  0.00  0.00     0.102 A 
ATOM      5  C   UNL d   1      -0.807   1.324  -0.992  0.00  0.00     0.020 A 
ATOM      6  C   UNL d   1      -1.480   1.758  -2.139  0.00  0.00     0.040 A 
ENDROOT
BRANCH   1   7
ATOM      7  C   UNL d   1       1.011  -0.104   0.058  0.00  0.00     0.293 C 
ATOM      8  O   UNL d   1       1.860  -0.978  -0.031  0.00  0.00    -0.259 OA
BRANCH   7   9
ATOM      9  O   UNL d   1       0.684   0.571   1.191  0.00  0.00    -0.318 OA
BRANCH   9  10
ATOM     10  C   UNL d   1       1.397   0.177   2.376  0.00  0.00     0.174 C 
ATOM     11  C   UNL d   1       2.724   0.909   2.475  0.00  0.00     0.034 C 
ENDBRANCH   9  10
ENDBRANCH   7   9
ENDBRANCH   1   7
BRANCH   3  12
ATOM     12  O   UNL d   1       0.242  -0.087  -4.788  0.00  0.00    -0.346 OA
BRANCH  12  13
ATOM     13  C   UNL d   1       1.277  -1.045  -4.978  0.00  0.00     0.201 C 
BRANCH  13  14
ATOM     14  C   UNL d   1       1.873  -0.835  -6.367  0.00  0.00     0.193 C 
BRANCH  14  15
ATOM     15  O   UNL d   1       2.910  -1.793  -6.575  0.00  0.00    -0.394 OA
ATOM     16  C   UNL d   1       3.560  -1.597  -7.822  0.00  0.00     0.201 C 
ENDBRANCH  14  15
ENDBRANCH  13  14
ENDBRANCH  12  13
ENDBRANCH   3  12
BRANCH   4  17
ATOM     17  O   UNL d   1      -1.892   1.860  -4.413  0.00  0.00    -0.346 OA
BRANCH  17  18
ATOM     18  C   UNL d   1      -1.625   1.490  -5.765  0.00  0.00     0.201 C 
BRANCH  18  19
ATOM     19  C   UNL d   1      -2.547   2.238  -6.727  0.00  0.00     0.193 C 
BRANCH  19  20
ATOM     20  O   UNL d   1      -2.235   1.819  -8.060  0.00  0.00    -0.394 OA
ATOM     21  C   UNL d   1      -3.051   2.454  -9.032  0.00  0.00     0.201 C 
ENDBRANCH  19  20
ENDBRANCH  18  19
ENDBRANCH  17  18
ENDBRANCH   4  17
TORSDOF 11
