REMARK  3 active torsions:
REMARK  status: ('A' for Active; 'I' for Inactive)
REMARK    1  A    between atoms: C_10  and  N_1 
REMARK    2  A    between atoms: C_12  and  C_4 
REMARK    3  A    between atoms: N_5  and  C_10 
ROOT
ATOM      1  C   UNL d   1      -1.189   3.955  -1.321  0.00  0.00     0.059 C 
ATOM      2  C   UNL d   1       0.295   3.651  -1.346  0.00  0.00     0.381 C 
ATOM      3  N   UNL d   1       0.910   3.740   0.038  0.00  0.00     0.126 NA
ATOM      4  C   UNL d   1      -1.945   4.381  -0.252  0.00  0.00    -0.019 C 
ATOM      5  N   UNL d   1      -2.017   3.924  -2.415  0.00  0.00    -0.356 N 
ATOM      6  C   UNL d   1      -3.303   4.448  -0.669  0.00  0.00    -0.001 A 
ATOM      7  C   UNL d   1      -3.316   4.169  -2.035  0.00  0.00     0.043 A 
ATOM      8  C   UNL d   1      -1.318   4.658   1.054  0.00  0.00     0.072 C 
ATOM      9  C   UNL d   1      -0.021   3.842   1.196  0.00  0.00     0.280 C 
ATOM     10  C   UNL d   1      -4.527   4.715  -0.026  0.00  0.00     0.014 A 
ATOM     11  C   UNL d   1      -4.487   4.157  -2.799  0.00  0.00     0.030 A 
ATOM     12  C   UNL d   1      -5.713   4.675  -0.769  0.00  0.00     0.001 A 
ATOM     13  C   UNL d   1      -5.691   4.406  -2.136  0.00  0.00     0.002 A 
ATOM     14  H   UNL d   1      -1.741   3.675  -3.357  0.00  0.00     0.166 HD
ENDROOT
BRANCH   3  15
ATOM     15  C   UNL d   1       1.890   2.696   0.363  0.00  0.00     0.407 C 
BRANCH  15  16
ATOM     16  N   UNL d   1       3.059   2.704  -0.464  0.00  0.00    -0.283 N 
ATOM     17  C   UNL d   1       3.754   1.524  -0.730  0.00  0.00     0.300 A 
ATOM     18  C   UNL d   1       5.067   1.963  -1.423  0.00  0.00     0.252 A 
ATOM     19  O   UNL d   1       3.476   0.381  -0.442  0.00  0.00    -0.263 OA
ATOM     20  O   UNL d   1       5.935   1.253  -1.860  0.00  0.00    -0.281 OA
ATOM     21  C   UNL d   1       5.045   3.425  -1.402  0.00  0.00     0.050 A 
ATOM     22  C   UNL d   1       3.850   3.822  -0.800  0.00  0.00     0.054 A 
ATOM     23  C   UNL d   1       6.008   4.311  -1.834  0.00  0.00     0.060 A 
ATOM     24  C   UNL d   1       3.591   5.167  -0.603  0.00  0.00     0.034 A 
ATOM     25  C   UNL d   1       4.544   6.094  -1.044  0.00  0.00     0.044 A 
ATOM     26  C   UNL d   1       5.734   5.661  -1.649  0.00  0.00     0.117 A 
ATOM     27  F   UNL d   1       6.629   6.577  -2.049  0.00  0.00    -0.206 F 
ENDBRANCH  15  16
ENDBRANCH   3  15
BRANCH   2  28
ATOM     28  C   UNL d   1       0.654   2.478  -2.344  0.00  0.00     0.423 C 
ATOM     29  F   UNL d   1      -0.264   2.342  -3.336  0.00  0.00    -0.168 F 
ATOM     30  F   UNL d   1       1.832   2.730  -2.971  0.00  0.00    -0.168 F 
ATOM     31  F   UNL d   1       0.756   1.277  -1.740  0.00  0.00    -0.168 F 
ENDBRANCH   2  28
TORSDOF 3
