REMARK  7 active torsions:
REMARK  status: ('A' for Active; 'I' for Inactive)
REMARK    1  A    between atoms: N_6  and  C_1 
REMARK    2  A    between atoms: C_7  and  C_2 
REMARK       I    between atoms: C_8  and  N_6 
REMARK    3  A    between atoms: O_15  and  C_7 
REMARK    4  A    between atoms: C_9  and  C_8 
REMARK    5  A    between atoms: C_10  and  C_11 
REMARK    6  A    between atoms: O_16  and  C_10 
REMARK    7  A    between atoms: C_19  and  O_15 
ROOT
ATOM      1  C   UNL d   1      -1.969  -0.815  -0.210  0.00  0.00     0.094 C 
ATOM      2  C   UNL d   1      -0.897  -1.704  -0.127  0.00  0.00     0.080 C 
ATOM      3  S   UNL d   1      -1.455   0.775  -0.488  0.00  0.00    -0.075 SA
ATOM      4  C   UNL d   1       0.368  -0.989  -0.141  0.00  0.00    -0.026 C 
ATOM      5  C   UNL d   1       0.173   0.370  -0.282  0.00  0.00    -0.008 C 
ATOM      6  C   UNL d   1       1.756  -1.559  -0.002  0.00  0.00     0.041 C 
ATOM      7  C   UNL d   1       1.240   1.419  -0.213  0.00  0.00     0.047 C 
ATOM      8  C   UNL d   1       2.782  -0.494   0.417  0.00  0.00     0.005 C 
ATOM      9  C   UNL d   1       2.629   0.796  -0.392  0.00  0.00     0.005 C 
ENDROOT
BRANCH   1  10
ATOM     10  N   UNL d   1      -3.310  -1.156  -0.128  0.00  0.00    -0.317 N 
ATOM     11  C   UNL d   1      -4.479  -0.461  -0.108  0.00  0.00     0.246 C 
ATOM     12  O   UNL d   1      -5.539  -1.095  -0.147  0.00  0.00    -0.268 OA
ATOM     13  H   UNL d   1      -3.485  -2.162  -0.072  0.00  0.00     0.169 HD
BRANCH  11  14
ATOM     14  C   UNL d   1      -4.542   1.010   0.003  0.00  0.00     0.081 C 
ATOM     15  C   UNL d   1      -5.628   1.629  -0.486  0.00  0.00     0.086 C 
BRANCH  15  16
ATOM     16  C   UNL d   1      -5.752   3.087  -0.349  0.00  0.00     0.165 C 
ATOM     17  O   UNL d   1      -4.844   3.830  -0.022  0.00  0.00    -0.647 OA
BRANCH  16  18
ATOM     18  O   UNL d   1      -6.999   3.515  -0.625  0.00  0.00    -0.773 OA
ATOM     19  H   UNL d   1      -7.643   2.807  -0.809  0.00  0.00     0.167 HD
ENDBRANCH  16  18
ENDBRANCH  15  16
ENDBRANCH  11  14
ENDBRANCH   1  10
BRANCH   2  20
ATOM     20  C   UNL d   1      -1.100  -3.148   0.045  0.00  0.00     0.296 C 
ATOM     21  O   UNL d   1      -2.207  -3.650   0.210  0.00  0.00    -0.259 OA
BRANCH  20  22
ATOM     22  O   UNL d   1       0.065  -3.852   0.064  0.00  0.00    -0.318 OA
BRANCH  22  23
ATOM     23  C   UNL d   1       0.001  -5.165   0.636  0.00  0.00     0.174 C 
ATOM     24  C   UNL d   1       0.152  -5.038   2.143  0.00  0.00     0.034 C 
ENDBRANCH  22  23
ENDBRANCH  20  22
ENDBRANCH   2  20
TORSDOF 7
