REMARK  4 active torsions:
REMARK  status: ('A' for Active; 'I' for Inactive)
REMARK    1  A    between atoms: C_4  and  C_1 
REMARK    2  A    between atoms: N_7  and  N_2 
REMARK    3  A    between atoms: N_9  and  C_4 
REMARK    4  A    between atoms: C_10  and  N_7 
ROOT
ATOM      1  C   UNL d   1       1.906  -0.623   1.261  0.00  0.00     0.166 C 
ATOM      2  N   UNL d   1       1.184   0.179   1.997  0.00  0.00    -0.288 N 
ATOM      3  HN  UNL d   1       0.624  -0.198   2.761  1.00  0.00     0.188 HD
ATOM      4  C   UNL d   1       2.639  -0.066   0.144  0.00  0.00     0.122 C 
ATOM      5  N   UNL d   1       3.202   0.431  -0.741  0.00  0.00    -0.190 NA
ENDROOT
BRANCH   1   6
ATOM      6  C   UNL d   1       1.971  -2.071   1.671  0.00  0.00     0.133 C 
ATOM      7  S   UNL d   1       2.122  -3.253   0.520  0.00  0.00    -0.058 SA
BRANCH   6   8
ATOM      8  N   UNL d   1       1.888  -2.345   3.012  0.00  0.00    -0.388 N 
ATOM      9  H   UNL d   1       1.697  -1.605   3.683  0.00  0.00     0.157 HD
ATOM     10  H   UNL d   1       1.869  -3.305   3.336  0.00  0.00     0.157 HD
ENDBRANCH   6   8
ENDBRANCH   1   6
BRANCH   2  11
ATOM     11  N   UNL d   1       1.176   1.521   1.746  0.00  0.00    -0.300 N 
ATOM     12  H   UNL d   1       1.321   1.898   0.805  0.00  0.00     0.187 HD
BRANCH  11  13
ATOM     13  C   UNL d   1       0.335   2.344   2.523  0.00  0.00     0.048 A 
ATOM     14  C   UNL d   1       0.630   3.712   2.623  0.00  0.00     0.034 A 
ATOM     15  C   UNL d   1      -0.143   4.552   3.430  0.00  0.00     0.044 A 
ATOM     16  C   UNL d   1      -1.224   4.025   4.125  0.00  0.00     0.116 A 
ATOM     17  C   UNL d   1      -1.539   2.675   4.037  0.00  0.00     0.044 A 
ATOM     18  F   UNL d   1      -1.968   4.828   4.896  0.00  0.00    -0.206 F 
ATOM     19  C   UNL d   1      -0.750   1.834   3.250  0.00  0.00     0.034 A 
ENDBRANCH  11  13
ENDBRANCH   2  11
TORSDOF 4
