REMARK  3 active torsions:
REMARK  status: ('A' for Active; 'I' for Inactive)
REMARK    1  A    between atoms: C_2  and  N_1 
REMARK    2  A    between atoms: C_3  and  C_5 
REMARK    3  A    between atoms: C_12  and  C_9 
ROOT
ATOM      1  N   UNL d   1      -2.463  -4.191  -0.276  0.00  0.00    -0.192 NA
ATOM      2  C   UNL d   1      -2.231  -3.071  -0.092  0.00  0.00     0.087 C 
ATOM      3  C   UNL d   1      -1.956  -1.695   0.155  0.00  0.00     0.094 C 
ATOM      4  C   UNL d   1      -1.134  -1.309   1.142  0.00  0.00     0.025 C 
ENDROOT
BRANCH   4   5
ATOM      5  C   UNL d   1      -0.830   0.098   1.437  0.00  0.00    -0.003 A 
ATOM      6  C   UNL d   1       0.257   0.802   0.897  0.00  0.00     0.114 A 
ATOM      7  C   UNL d   1       0.583   2.104   1.313  0.00  0.00     0.053 A 
ATOM      8  C   UNL d   1      -0.211   2.748   2.271  0.00  0.00     0.050 A 
ATOM      9  C   UNL d   1      -1.331   2.071   2.781  0.00  0.00     0.017 A 
ATOM     10  C   UNL d   1      -1.633   0.763   2.375  0.00  0.00     0.015 A 
BRANCH   6  11
ATOM     11  N   UNL d   1       1.086   0.207  -0.136  0.00  0.00    -0.115 N 
ATOM     12  O   UNL d   1       2.297   0.116   0.100  0.00  0.00    -0.532 OA
ATOM     13  O   UNL d   1       0.527  -0.118  -1.191  0.00  0.00    -0.532 OA
ENDBRANCH   6  11
BRANCH   8  14
ATOM     14  C   UNL d   1       0.121   4.143   2.755  0.00  0.00     0.417 C 
ATOM     15  F   UNL d   1       1.244   4.658   2.184  0.00  0.00    -0.166 F 
ATOM     16  F   UNL d   1      -0.876   5.031   2.494  0.00  0.00    -0.166 F 
ATOM     17  F   UNL d   1       0.327   4.189   4.099  0.00  0.00    -0.166 F 
ENDBRANCH   8  14
ENDBRANCH   4   5
TORSDOF 3
