REMARK  1 active torsions:
REMARK  status: ('A' for Active; 'I' for Inactive)
REMARK    1  A    between atoms: C_10  and  N_1 
ROOT
ATOM      1  N   UNL d   1      -2.291  -0.018  -0.300  0.00  0.00    -0.252 N 
ATOM      2  C   UNL d   1      -1.493   1.103  -0.218  0.00  0.00     0.236 C 
ATOM      3  C   UNL d   1      -1.556  -1.148  -0.020  0.00  0.00     0.236 C 
ATOM      4  C   UNL d   1      -0.280   0.761   0.616  0.00  0.00     0.096 C 
ATOM      5  C   UNL d   1      -0.273  -0.752   0.676  0.00  0.00     0.096 C 
ATOM      6  C   UNL d   1       0.983   1.490   0.179  0.00  0.00     0.049 C 
ATOM      7  C   UNL d   1       0.942  -1.505   0.143  0.00  0.00     0.049 C 
ATOM      8  C   UNL d   1       2.072   0.659  -0.442  0.00  0.00    -0.081 C 
ATOM      9  C   UNL d   1       2.057  -0.685  -0.453  0.00  0.00    -0.081 C 
ATOM     10  O   UNL d   1      -1.706   2.232  -0.638  0.00  0.00    -0.272 OA
ATOM     11  O   UNL d   1      -1.837  -2.316  -0.260  0.00  0.00    -0.272 OA
ATOM     12  C   UNL d   1       3.223   1.454  -1.010  0.00  0.00     0.043 C 
ATOM     13  C   UNL d   1       3.198  -1.494  -1.020  0.00  0.00     0.043 C 
ENDROOT
BRANCH   1  14
ATOM     14  C   UNL d   1      -3.689  -0.010  -0.614  0.00  0.00     0.045 A 
ATOM     15  C   UNL d   1      -4.352   1.148  -1.054  0.00  0.00     0.031 A 
ATOM     16  C   UNL d   1      -5.749   1.194  -1.188  0.00  0.00     0.020 A 
ATOM     17  C   UNL d   1      -6.513   0.074  -0.886  0.00  0.00     0.006 A 
ATOM     18  C   UNL d   1      -5.887  -1.098  -0.483  0.00  0.00     0.020 A 
ATOM     19  I   UNL d   1      -8.583   0.162  -0.998  0.00  0.00    -0.045 I 
ATOM     20  C   UNL d   1      -4.491  -1.138  -0.358  0.00  0.00     0.031 A 
ENDBRANCH   1  14
TORSDOF 1
