REMARK  8 active torsions:
REMARK  status: ('A' for Active; 'I' for Inactive)
REMARK    1  A    between atoms: N_4  and  C_1 
REMARK    2  A    between atoms: N_5  and  C_2 
REMARK    3  A    between atoms: N_17  and  C_3 
REMARK    4  A    between atoms: C_6  and  C_7 
REMARK    5  A    between atoms: C_10  and  C_11 
REMARK       I    between atoms: C_11  and  N_22 
REMARK    6  A    between atoms: C_26  and  N_17 
REMARK    7  A    between atoms: N_22  and  C_27 
REMARK    8  A    between atoms: C_27  and  C_26 
ROOT
ATOM      1  C   UNL d   1       1.266  -0.110   0.544  0.00  0.00     0.132 A 
ATOM      2  C   UNL d   1      -0.501  -0.953  -0.775  0.00  0.00     0.132 A 
ATOM      3  C   UNL d   1       0.686  -1.244  -0.053  0.00  0.00     0.095 A 
ATOM      4  C   UNL d   1      -0.464   1.424  -0.261  0.00  0.00     0.052 A 
ATOM      5  C   UNL d   1      -1.069   0.336  -0.891  0.00  0.00     0.054 A 
ATOM      6  C   UNL d   1       0.715   1.191   0.454  0.00  0.00     0.054 A 
ENDROOT
BRANCH   3   7
ATOM      7  N   UNL d   1       1.176  -2.544  -0.056  0.00  0.00    -0.384 N 
ATOM      8  H   UNL d   1       0.478  -3.250   0.202  0.00  0.00     0.159 HD
BRANCH   7   9
ATOM      9  C   UNL d   1       2.555  -2.983   0.191  0.00  0.00     0.139 C 
BRANCH   9  10
ATOM     10  C   UNL d   1       2.660  -4.519   0.082  0.00  0.00     0.142 C 
BRANCH  10  11
ATOM     11  N   UNL d   1       1.844  -5.192   1.081  0.00  0.00    -0.355 N 
ATOM     12  C   UNL d   1       2.258  -5.363   2.383  0.00  0.00     0.253 C 
ATOM     13  O   UNL d   1       3.369  -5.017   2.768  0.00  0.00    -0.268 OA
ATOM     14  H   UNL d   1       0.925  -5.522   0.803  0.00  0.00     0.162 HD
BRANCH  12  15
ATOM     15  C   UNL d   1       1.253  -5.904   3.351  0.00  0.00     0.053 A 
ATOM     16  C   UNL d   1       0.143  -6.693   3.012  0.00  0.00     0.049 A 
ATOM     17 CL   UNL d   1      -0.132  -7.345   1.432  0.00  0.00    -0.083 Cl
ATOM     18  C   UNL d   1      -0.809  -7.024   3.986  0.00  0.00     0.025 A 
ATOM     19  C   UNL d   1      -0.647  -6.608   5.307  0.00  0.00     0.002 A 
ATOM     20  C   UNL d   1       0.482  -5.880   5.668  0.00  0.00     0.001 A 
ATOM     21  C   UNL d   1       1.426  -5.532   4.698  0.00  0.00     0.019 A 
ENDBRANCH  12  15
ENDBRANCH  10  11
ENDBRANCH   9  10
ENDBRANCH   7   9
ENDBRANCH   3   7
BRANCH   2  22
ATOM     22  N   UNL d   1      -1.194  -2.023  -1.480  0.00  0.00    -0.113 N 
ATOM     23  O   UNL d   1      -1.584  -2.986  -0.803  0.00  0.00    -0.532 OA
ATOM     24  O   UNL d   1      -1.379  -1.869  -2.695  0.00  0.00    -0.532 OA
ENDBRANCH   2  22
BRANCH   1  25
ATOM     25  N   UNL d   1       2.421  -0.202   1.410  0.00  0.00    -0.113 N 
ATOM     26  O   UNL d   1       2.245  -0.701   2.531  0.00  0.00    -0.532 OA
ATOM     27  O   UNL d   1       3.470   0.302   0.994  0.00  0.00    -0.532 OA
ENDBRANCH   1  25
BRANCH   4  28
ATOM     28  C   UNL d   1      -1.058   2.813  -0.313  0.00  0.00     0.417 C 
ATOM     29  F   UNL d   1      -2.215   2.878  -1.024  0.00  0.00    -0.166 F 
ATOM     30  F   UNL d   1      -1.350   3.286   0.928  0.00  0.00    -0.166 F 
ATOM     31  F   UNL d   1      -0.213   3.716  -0.875  0.00  0.00    -0.166 F 
ENDBRANCH   4  28
TORSDOF 8
