REMARK  6 active torsions:
REMARK  status: ('A' for Active; 'I' for Inactive)
REMARK    1  A    between atoms: C_6  and  N_1 
REMARK    2  A    between atoms: C_8  and  C_3 
REMARK    3  A    between atoms: C_10  and  C_6 
REMARK    4  A    between atoms: O_14  and  C_8 
REMARK    5  A    between atoms: C_12  and  C_10 
REMARK    6  A    between atoms: C_19  and  O_14 
ROOT
ATOM      1  N   UNL d   1       0.217  -1.071  -0.076  0.00  0.00    -0.298 N 
ATOM      2  C   UNL d   1      -0.482  -0.373   0.887  0.00  0.00     0.148 A 
ATOM      3  C   UNL d   1       0.175   1.063  -1.082  0.00  0.00     0.097 A 
ATOM      4  C   UNL d   1       0.556  -0.367  -1.220  0.00  0.00     0.268 A 
ATOM      5  S   UNL d   1      -0.697   1.302   0.377  0.00  0.00    -0.053 SA
ATOM      6  S   UNL d   1      -1.078  -0.932   2.339  0.00  0.00    -0.052 SA
ATOM      7  O   UNL d   1       1.060  -0.861  -2.221  0.00  0.00    -0.266 OA
ENDROOT
BRANCH   1   8
ATOM      8  C   UNL d   1       0.529  -2.505  -0.038  0.00  0.00     0.138 C 
BRANCH   8   9
ATOM      9  C   UNL d   1       2.040  -2.776   0.027  0.00  0.00     0.059 C 
BRANCH   9  10
ATOM     10  C   UNL d   1       2.367  -4.245  -0.090  0.00  0.00    -0.057 A 
ATOM     11  C   UNL d   1       2.488  -4.843  -1.355  0.00  0.00     0.009 A 
ATOM     12  C   UNL d   1       2.814  -6.196  -1.470  0.00  0.00     0.024 A 
ATOM     13  C   UNL d   1       3.015  -6.959  -0.323  0.00  0.00     0.034 A 
ATOM     14  C   UNL d   1       2.883  -6.382   0.939  0.00  0.00     0.024 A 
ATOM     15 CL   UNL d   1       3.435  -8.622  -0.463  0.00  0.00    -0.084 Cl
ATOM     16  C   UNL d   1       2.556  -5.029   1.055  0.00  0.00     0.009 A 
ENDBRANCH   9  10
ENDBRANCH   8   9
ENDBRANCH   1   8
BRANCH   3  17
ATOM     17  C   UNL d   1       0.482   2.027  -1.953  0.00  0.00     0.159 C 
BRANCH  17  18
ATOM     18  O   UNL d   1       1.274   1.819  -3.049  0.00  0.00    -0.362 OA
BRANCH  18  19
ATOM     19  C   UNL d   1       0.888   2.589  -4.186  0.00  0.00     0.170 C 
ATOM     20  C   UNL d   1       1.746   2.137  -5.353  0.00  0.00     0.034 C 
ENDBRANCH  18  19
ENDBRANCH  17  18
ENDBRANCH   3  17
TORSDOF 6
