REMARK  4 active torsions:
REMARK  status: ('A' for Active; 'I' for Inactive)
REMARK    1  A    between atoms: C_6  and  C_1 
REMARK    2  A    between atoms: C_7  and  C_2 
REMARK    3  A    between atoms: S_12  and  C_5 
REMARK    4  A    between atoms: O_16  and  C_7 
ROOT
ATOM      1  C   UNL d   1      -0.046  -1.394  -0.011  0.00  0.00     0.027 A 
ATOM      2  C   UNL d   1       1.340  -1.268  -0.017  0.00  0.00     0.092 A 
ATOM      3  C   UNL d   1      -0.694  -0.097   0.009  0.00  0.00     0.081 A 
ATOM      4  S   UNL d   1       1.817   0.383  -0.008  0.00  0.00    -0.074 SA
ATOM      5  C   UNL d   1       0.211   0.948   0.003  0.00  0.00     0.063 A 
ATOM      6  C   UNL d   1      -2.108   0.135  -0.067  0.00  0.00     0.102 C 
ATOM      7  N   UNL d   1      -3.247   0.358  -0.124  0.00  0.00    -0.191 NA
ENDROOT
BRANCH   1   8
ATOM      8  C   UNL d   1      -0.781  -2.725  -0.068  0.00  0.00     0.018 A 
ATOM      9  S   UNL d   1      -2.320  -3.003   0.639  0.00  0.00    -0.101 SA
ATOM     10  C   UNL d   1      -2.371  -4.620   0.100  0.00  0.00     0.050 A 
ATOM     11  C   UNL d   1      -1.244  -4.956  -0.611  0.00  0.00     0.008 A 
ATOM     12  C   UNL d   1      -0.328  -3.865  -0.706  0.00  0.00     0.020 A 
ENDBRANCH   1   8
BRANCH   5  13
ATOM     13  S   UNL d   1      -0.090   2.683  -0.110  0.00  0.00    -0.126 SA
ATOM     14  C   UNL d   1      -1.001   3.022   1.413  0.00  0.00     0.096 C 
ENDBRANCH   5  13
BRANCH   2  15
ATOM     15  C   UNL d   1       2.385  -2.280   0.050  0.00  0.00     0.184 C 
ATOM     16  O   UNL d   1       2.291  -3.385   0.563  0.00  0.00    -0.646 OA
BRANCH  15  17
ATOM     17  O   UNL d   1       3.536  -1.889  -0.561  0.00  0.00    -0.772 OA
ATOM     18  H   UNL d   1       3.483  -0.980  -0.914  0.00  0.00     0.167 HD
ENDBRANCH  15  17
ENDBRANCH   2  15
TORSDOF 4
