REMARK  6 active torsions:
REMARK  status: ('A' for Active; 'I' for Inactive)
REMARK    1  A    between atoms: N_2  and  S_1 
REMARK    2  A    between atoms: C_9  and  S_1 
REMARK    3  A    between atoms: C_3  and  N_2 
REMARK       I    between atoms: C_7  and  N_14 
REMARK       I    between atoms: N_13  and  C_7 
REMARK    4  A    between atoms: C_16  and  N_13 
REMARK    5  A    between atoms: N_14  and  C_20 
REMARK    6  A    between atoms: O_24  and  C_21 
ROOT
ATOM      1  C   UNL d   1      -0.060   0.523   1.489  0.00  0.00     0.075 A 
ATOM      2  C   UNL d   1      -0.907  -0.452   2.027  0.00  0.00     0.027 A 
ATOM      3  C   UNL d   1       0.335   1.605   2.268  0.00  0.00     0.027 A 
ATOM      4  C   UNL d   1      -0.784   0.632   4.206  0.00  0.00     0.036 A 
ATOM      5  C   UNL d   1      -1.273  -0.391   3.381  0.00  0.00     0.031 A 
ATOM      6  C   UNL d   1      -0.043   1.662   3.612  0.00  0.00     0.031 A 
ENDROOT
BRANCH   4   7
ATOM      7  N   UNL d   1      -0.990   0.522   5.609  0.00  0.00    -0.309 N 
ATOM      8  C   UNL d   1      -0.378   1.314   6.574  0.00  0.00     0.325 C 
ATOM      9  N   UNL d   1      -0.603   0.850   7.864  0.00  0.00    -0.309 N 
ATOM     10  O   UNL d   1       0.305   2.298   6.319  0.00  0.00    -0.247 OA
ATOM     11  H   UNL d   1      -1.340   0.176   7.997  0.00  0.00     0.170 HD
ATOM     12  H   UNL d   1      -1.459  -0.313   5.928  0.00  0.00     0.170 HD
BRANCH   9  13
ATOM     13  C   UNL d   1       0.050   1.318   9.037  0.00  0.00     0.039 A 
ATOM     14  C   UNL d   1       1.164   2.171   9.009  0.00  0.00     0.066 A 
ATOM     15  C   UNL d   1       1.833   2.538  10.180  0.00  0.00     0.070 A 
ATOM     16  C   UNL d   1       1.355   2.084  11.407  0.00  0.00     0.037 A 
ATOM     17  C   UNL d   1       0.232   1.258  11.459  0.00  0.00     0.005 A 
ATOM     18  C   UNL d   1      -0.411   0.867  10.279  0.00  0.00     0.030 A 
BRANCH  15  19
ATOM     19  O   UNL d   1       2.963   3.310  10.242  0.00  0.00    -0.356 OA
ATOM     20  C   UNL d   1       3.544   3.697   8.999  0.00  0.00     0.210 C 
ENDBRANCH  15  19
ENDBRANCH   9  13
ENDBRANCH   4   7
BRANCH   1  21
ATOM     21  S   UNL d   1       0.744   0.227  -0.067  0.00  0.00     0.247 S 
ATOM     22  O   UNL d   1       1.980   0.990  -0.082  0.00  0.00    -0.205 OA
ATOM     23  O   UNL d   1       0.774  -1.197  -0.309  0.00  0.00    -0.205 OA
BRANCH  21  24
ATOM     24  N   UNL d   1      -0.240   0.980  -1.209  0.00  0.00    -0.165 NA
ATOM     25  H   UNL d   1       0.375   1.499  -1.832  0.00  0.00     0.147 HD
BRANCH  24  26
ATOM     26  C   UNL d   1      -1.205   0.189  -1.817  0.00  0.00     0.117 A 
ATOM     27  N   UNL d   1      -2.434   0.073  -1.313  0.00  0.00    -0.249 N 
ATOM     28  O   UNL d   1      -3.118  -0.750  -2.189  0.00  0.00    -0.241 OA
ATOM     29  HN  UNL d   1      -2.794   0.503  -0.461  1.00  0.00     0.196 HD
ATOM     30  C   UNL d   1      -2.286  -1.128  -3.196  0.00  0.00     0.075 A 
ATOM     31  C   UNL d   1      -1.057  -0.543  -3.012  0.00  0.00     0.079 A 
ATOM     32  C   UNL d   1      -2.860  -2.038  -4.202  0.00  0.00     0.079 C 
ENDBRANCH  24  26
ENDBRANCH  21  24
ENDBRANCH   1  21
TORSDOF 6
