REMARK  6 active torsions:
REMARK  status: ('A' for Active; 'I' for Inactive)
REMARK    1  A    between atoms: C_7  and  C_1 
REMARK    2  A    between atoms: O_10  and  C_2 
REMARK    3  A    between atoms: N_9  and  C_3 
REMARK    4  A    between atoms: O_11  and  C_4 
REMARK    5  A    between atoms: O_13  and  C_6 
REMARK    6  A    between atoms: O_12  and  C_7 
ROOT
ATOM      1  C   UNL d   1       0.294  -1.248  -0.040  0.00  0.00     0.064 A 
ATOM      2  C   UNL d   1       0.459   1.170   0.222  0.00  0.00     0.126 A 
ATOM      3  C   UNL d   1       1.077  -0.110   0.210  0.00  0.00     0.059 A 
ATOM      4  C   UNL d   1      -0.947   1.302   0.119  0.00  0.00     0.137 A 
ATOM      5  C   UNL d   1      -1.089  -1.114  -0.175  0.00  0.00     0.060 A 
ATOM      6  C   UNL d   1      -1.718   0.135  -0.074  0.00  0.00     0.105 A 
ENDROOT
BRANCH   1   7
ATOM      7  C   UNL d   1       0.845  -2.635  -0.103  0.00  0.00     0.178 C 
ATOM      8  O   UNL d   1       0.220  -3.576  -0.559  0.00  0.00    -0.646 OA
BRANCH   7   9
ATOM      9  O   UNL d   1       2.083  -2.768   0.424  0.00  0.00    -0.773 OA
ATOM     10  H   UNL d   1       2.452  -1.893   0.696  0.00  0.00     0.167 HD
ENDBRANCH   7   9
ENDBRANCH   1   7
BRANCH   3  11
ATOM     11  N   UNL d   1       2.502  -0.231   0.281  0.00  0.00    -0.299 NA
ATOM     12  H   UNL d   1       2.881   0.587   0.770  0.00  0.00     0.124 HD
ATOM     13  H   UNL d   1       2.888  -0.238  -0.669  0.00  0.00     0.124 HD
ENDBRANCH   3  11
BRANCH   2  14
ATOM     14  O   UNL d   1       1.246   2.264   0.514  0.00  0.00    -0.351 OA
ATOM     15  C   UNL d   1       2.111   2.656  -0.556  0.00  0.00     0.210 C 
ENDBRANCH   2  14
BRANCH   6  16
ATOM     16  O   UNL d   1      -3.079   0.007  -0.191  0.00  0.00    -0.353 OA
ATOM     17  C   UNL d   1      -3.920   1.136  -0.016  0.00  0.00     0.210 C 
ENDBRANCH   6  16
BRANCH   4  18
ATOM     18  O   UNL d   1      -1.654   2.467   0.228  0.00  0.00    -0.351 OA
ATOM     19  C   UNL d   1      -1.014   3.723   0.094  0.00  0.00     0.210 C 
ENDBRANCH   4  18
TORSDOF 6
