REMARK  3 active torsions:
REMARK  status: ('A' for Active; 'I' for Inactive)
REMARK    1  A    between atoms: C_11  and  N_1 
REMARK    2  A    between atoms: N_6  and  C_8 
REMARK    3  A    between atoms: C_13  and  C_11 
ROOT
ATOM      1  N   UNL d   1       2.267  -0.145   0.212  0.00  0.00    -0.274 N 
ATOM      2  C   UNL d   1       1.557  -1.343   0.196  0.00  0.00     0.262 A 
ATOM      3  C   UNL d   1       1.690   1.121   0.129  0.00  0.00     0.262 A 
ATOM      4  C   UNL d   1       0.079  -1.253   0.161  0.00  0.00     0.047 A 
ATOM      5  C   UNL d   1       0.211   1.185   0.077  0.00  0.00     0.044 A 
ATOM      6  C   UNL d   1      -0.538   0.002   0.097  0.00  0.00     0.006 A 
ATOM      7  C   UNL d   1      -2.077  -2.347   0.114  0.00  0.00     0.104 A 
ATOM      8  C   UNL d   1      -0.683  -2.431   0.167  0.00  0.00     0.054 A 
ATOM      9  C   UNL d   1      -1.953   0.079   0.038  0.00  0.00    -0.021 A 
ATOM     10  C   UNL d   1      -2.713  -1.101   0.052  0.00  0.00     0.048 A 
ATOM     11  O   UNL d   1       2.074  -2.456   0.171  0.00  0.00    -0.267 OA
ATOM     12  O   UNL d   1       2.336   2.165   0.073  0.00  0.00    -0.267 OA
ATOM     13  C   UNL d   1      -0.424   2.431  -0.006  0.00  0.00     0.018 A 
ATOM     14  C   UNL d   1      -2.574   1.335  -0.038  0.00  0.00     0.012 A 
ATOM     15  C   UNL d   1      -1.814   2.504  -0.063  0.00  0.00     0.002 A 
ENDROOT
BRANCH   1  16
ATOM     16  C   UNL d   1       3.722  -0.223   0.204  0.00  0.00     0.200 C 
BRANCH  16  17
ATOM     17  C   UNL d   1       4.277  -0.074   1.579  0.00  0.00     0.070 A 
ATOM     18  O   UNL d   1       4.460  -1.221   2.296  0.00  0.00    -0.325 OA
ATOM     19  C   UNL d   1       5.052  -0.869   3.466  0.00  0.00     0.142 A 
ATOM     20  C   UNL d   1       5.245   0.491   3.519  0.00  0.00     0.027 A 
ATOM     21  C   UNL d   1       4.730   1.009   2.306  0.00  0.00     0.036 A 
ENDBRANCH  16  17
ENDBRANCH   1  16
BRANCH   7  22
ATOM     22  N   UNL d   1      -2.884  -3.573   0.119  0.00  0.00    -0.116 N 
ATOM     23  O   UNL d   1      -2.286  -4.658   0.141  0.00  0.00    -0.532 OA
ATOM     24  O   UNL d   1      -4.117  -3.450   0.100  0.00  0.00    -0.532 OA
ENDBRANCH   7  22
TORSDOF 3
