REMARK  2 active torsions:
REMARK  status: ('A' for Active; 'I' for Inactive)
REMARK    1  A    between atoms: C_3  and  N_1 
REMARK    2  A    between atoms: C_4  and  N_2 
ROOT
ATOM      1  N   UNL d   1      -1.445  -0.033   0.474  0.00  0.00     0.096 N 
ATOM      2  N   UNL d   1       1.462  -0.084  -0.459  0.00  0.00     0.096 N 
ATOM      3  C   UNL d   1       0.814   1.134   0.086  0.00  0.00     0.303 C 
ATOM      4  C   UNL d   1      -0.778  -1.207  -0.127  0.00  0.00     0.303 C 
ATOM      5  C   UNL d   1      -0.736   1.177  -0.023  0.00  0.00     0.303 C 
ATOM      6  C   UNL d   1       0.745  -1.244   0.118  0.00  0.00     0.303 C 
ENDROOT
BRANCH   1   7
ATOM      7  C   UNL d   1      -1.560  -0.058   1.965  0.00  0.00     0.228 C 
ATOM      8  C   UNL d   1      -1.900  -1.454   2.530  0.00  0.00     0.076 C 
ATOM      9  C   UNL d   1      -2.178  -1.480   4.046  0.00  0.00     0.153 C 
ATOM     10  C   UNL d   1      -2.818  -2.850   4.381  0.00  0.00     0.048 C 
ATOM     11  C   UNL d   1      -0.878  -1.396   4.865  0.00  0.00     0.048 C 
ATOM     12  N   UNL d   1      -3.149  -0.455   4.457  0.00  0.00     0.101 N 
ATOM     13  C   UNL d   1      -2.982   0.901   3.907  0.00  0.00     0.153 C 
ATOM     14  H   UNL d   1      -4.082  -0.785   4.203  0.00  0.00     0.317 HD
ATOM     15  C   UNL d   1      -2.702   0.891   2.389  0.00  0.00     0.076 C 
ATOM     16  C   UNL d   1      -4.328   1.627   4.145  0.00  0.00     0.048 C 
ATOM     17  C   UNL d   1      -1.913   1.701   4.671  0.00  0.00     0.048 C 
ENDBRANCH   1   7
BRANCH   2  18
ATOM     18  C   UNL d   1       1.573  -0.106  -1.951  0.00  0.00     0.228 C 
ATOM     19  C   UNL d   1       2.513   1.017  -2.442  0.00  0.00     0.076 C 
ATOM     20  C   UNL d   1       2.763   1.003  -3.965  0.00  0.00     0.153 C 
ATOM     21  C   UNL d   1       3.939   1.959  -4.268  0.00  0.00     0.048 C 
ATOM     22  C   UNL d   1       1.542   1.533  -4.739  0.00  0.00     0.048 C 
ATOM     23  N   UNL d   1       3.192  -0.310  -4.442  0.00  0.00     0.101 N 
ATOM     24  C   UNL d   1       2.482  -1.494  -3.964  0.00  0.00     0.153 C 
ATOM     25  H   UNL d   1       3.281  -0.321  -5.458  0.00  0.00     0.317 HD
ATOM     26  C   UNL d   1       2.170  -1.441  -2.454  0.00  0.00     0.076 C 
ATOM     27  C   UNL d   1       3.447  -2.679  -4.205  0.00  0.00     0.048 C 
ATOM     28  C   UNL d   1       1.213  -1.776  -4.788  0.00  0.00     0.048 C 
ENDBRANCH   2  18
TORSDOF 2
