REMARK  2 active torsions:
REMARK  status: ('A' for Active; 'I' for Inactive)
REMARK    1  A    between atoms: C_17  and  N_5 
REMARK    2  A    between atoms: C_14  and  C_9 
ROOT
ATOM      1  C   UNL d   1      -0.336  -1.369   0.098  0.00  0.00     0.123 A 
ATOM      2  C   UNL d   1      -0.533  -2.781   0.150  0.00  0.00     0.202 A 
ATOM      3  N   UNL d   1      -0.195  -3.530   1.176  0.00  0.00    -0.317 N 
ATOM      4  HN  UNL d   1       0.169  -3.232   2.081  1.00  0.00     0.169 HD
ATOM      5  N   UNL d   1      -1.063  -0.487  -0.666  0.00  0.00    -0.287 N 
ATOM      6  N   UNL d   1      -0.613   0.786  -0.590  0.00  0.00    -0.301 N 
ATOM      7  HN  UNL d   1      -0.964   1.603  -1.090  1.00  0.00     0.187 HD
ATOM      8  C   UNL d   1       0.590  -0.583   0.752  0.00  0.00     0.067 A 
ATOM      9  C   UNL d   1      -0.450  -4.811   0.742  0.00  0.00     0.138 A 
ATOM     10  C   UNL d   1       0.398   0.734   0.287  0.00  0.00     0.042 A 
ATOM     11  N   UNL d   1      -0.970  -4.863  -0.495  0.00  0.00    -0.242 N 
ATOM     12  HN  UNL d   1      -1.254  -5.687  -1.025  1.00  0.00     0.196 HD
ATOM     13  O   UNL d   1      -1.030  -3.528  -0.885  0.00  0.00    -0.215 OA
ATOM     14 BR   UNL d   1       1.907  -1.110   1.983  0.00  0.00    -0.046 Br
ATOM     15  C   UNL d   1       1.132   1.979   0.624  0.00  0.00     0.071 C 
ENDROOT
BRANCH   5  16
ATOM     16  C   UNL d   1      -2.281  -0.723  -1.423  0.00  0.00     0.145 C 
ATOM     17  C   UNL d   1      -2.027  -0.988  -2.896  0.00  0.00     0.028 C 
ENDBRANCH   5  16
BRANCH   9  18
ATOM     18  C   UNL d   1      -0.143  -5.983   1.560  0.00  0.00     0.010 A 
ATOM     19  C   UNL d   1       0.287  -5.825   2.888  0.00  0.00     0.022 A 
ATOM     20  C   UNL d   1       0.607  -6.934   3.683  0.00  0.00    -0.061 A 
ATOM     21  C   UNL d   1       1.066  -6.765   5.103  0.00  0.00     0.048 C 
ATOM     22  C   UNL d   1       0.491  -8.220   3.140  0.00  0.00     0.007 A 
ATOM     23  C   UNL d   1       0.062  -8.390   1.824  0.00  0.00     0.002 A 
ATOM     24  C   UNL d   1      -0.256  -7.279   1.039  0.00  0.00     0.015 A 
ENDBRANCH   9  18
TORSDOF 2
