REMARK  3 active torsions:
REMARK  status: ('A' for Active; 'I' for Inactive)
REMARK    1  A    between atoms: C_2  and  C_1 
REMARK       I    between atoms: N_3  and  C_2 
REMARK    2  A    between atoms: C_4  and  N_3 
REMARK    3  A    between atoms: O_19  and  C_13 
ROOT
ATOM      1  C   UNL d   1       0.342  -2.475  -0.158  0.00  0.00     0.257 C 
ATOM      2  N   UNL d   1       1.103  -3.627  -0.144  0.00  0.00    -0.320 N 
ATOM      3  O   UNL d   1      -0.884  -2.427  -0.172  0.00  0.00    -0.267 OA
ATOM      4  H   UNL d   1       2.076  -3.521   0.116  0.00  0.00     0.169 HD
ENDROOT
BRANCH   1   5
ATOM      5  C   UNL d   1       1.082  -1.173  -0.129  0.00  0.00     0.052 A 
ATOM      6  C   UNL d   1       2.299  -0.931   0.527  0.00  0.00     0.026 A 
ATOM      7  C   UNL d   1       2.869   0.349   0.490  0.00  0.00     0.023 A 
ATOM      8 BR   UNL d   1       3.241  -2.216   1.566  0.00  0.00    -0.050 Br
ATOM      9  C   UNL d   1       2.232   1.388  -0.189  0.00  0.00     0.038 A 
ATOM     10  C   UNL d   1       1.027   1.165  -0.845  0.00  0.00     0.069 A 
ATOM     11  C   UNL d   1       0.450  -0.105  -0.806  0.00  0.00     0.055 A 
BRANCH  10  12
ATOM     12  O   UNL d   1       0.498   2.261  -1.467  0.00  0.00    -0.356 OA
ATOM     13  C   UNL d   1      -0.443   2.003  -2.503  0.00  0.00     0.210 C 
ENDBRANCH  10  12
ENDBRANCH   1   5
BRANCH   2  14
ATOM     14  C   UNL d   1       0.610  -4.952  -0.170  0.00  0.00     0.074 A 
ATOM     15  C   UNL d   1      -0.603  -5.345  -0.750  0.00  0.00     0.144 A 
ATOM     16  C   UNL d   1      -1.041  -6.668  -0.684  0.00  0.00     0.062 A 
ATOM     17  F   UNL d   1      -1.344  -4.494  -1.472  0.00  0.00    -0.204 F 
ATOM     18  C   UNL d   1      -0.255  -7.622  -0.044  0.00  0.00     0.009 A 
ATOM     19  C   UNL d   1       0.980  -7.264   0.495  0.00  0.00     0.020 A 
ATOM     20  I   UNL d   1      -0.916  -9.585   0.096  0.00  0.00    -0.044 I 
ATOM     21  C   UNL d   1       1.415  -5.937   0.420  0.00  0.00     0.034 A 
ENDBRANCH   2  14
TORSDOF 3
