REMARK  1 active torsions:
REMARK  status: ('A' for Active; 'I' for Inactive)
REMARK    1  A    between atoms: C_8  and  N_2 
ROOT
ATOM      1  C   UNL d   1       0.372   1.387   0.211  0.00  0.00     0.179 C 
ATOM      2  N   UNL d   1      -1.003   1.054   0.088  0.00  0.00    -0.293 N 
ATOM      3  C   UNL d   1      -1.373  -0.298  -0.066  0.00  0.00     0.014 C 
ATOM      4  N   UNL d   1       1.282   0.397  -0.037  0.00  0.00    -0.355 N 
ATOM      5  C   UNL d   1      -0.439  -1.263  -0.122  0.00  0.00     0.028 C 
ATOM      6  C   UNL d   1       1.033  -1.028  -0.075  0.00  0.00     0.045 C 
ATOM      7  S   UNL d   1       1.069   2.851   0.673  0.00  0.00    -0.040 SA
ATOM      8  C   UNL d   1      -2.810  -0.718  -0.256  0.00  0.00     0.068 C 
ATOM      9  C   UNL d   1       1.679  -1.616  -1.336  0.00  0.00     0.042 C 
ATOM     10  C   UNL d   1       1.634  -1.685   1.173  0.00  0.00     0.042 C 
ATOM     11  H   UNL d   1       2.244   0.692   0.080  0.00  0.00     0.163 HD
ENDROOT
BRANCH   2  12
ATOM     12  C   UNL d   1      -1.990   2.116   0.089  0.00  0.00     0.042 A 
ATOM     13  C   UNL d   1      -1.839   3.236  -0.750  0.00  0.00     0.032 A 
ATOM     14  C   UNL d   1      -2.791   4.262  -0.767  0.00  0.00     0.026 A 
ATOM     15  C   UNL d   1      -3.927   4.163   0.026  0.00  0.00     0.034 A 
ATOM     16  C   UNL d   1      -4.109   3.056   0.851  0.00  0.00     0.026 A 
ATOM     17 CL   UNL d   1      -5.114   5.407  -0.012  0.00  0.00    -0.084 Cl
ATOM     18  C   UNL d   1      -3.137   2.048   0.892  0.00  0.00     0.032 A 
ENDBRANCH   2  12
TORSDOF 1
