REMARK  6 active torsions:
REMARK  status: ('A' for Active; 'I' for Inactive)
REMARK    1  A    between atoms: C_6  and  C_1 
REMARK    2  A    between atoms: C_9  and  N_2 
REMARK    3  A    between atoms: C_8  and  C_3 
REMARK    4  A    between atoms: O_18  and  C_6 
REMARK    5  A    between atoms: N_7  and  C_10 
REMARK    6  A    between atoms: C_26  and  O_18 
ROOT
ATOM      1  C   UNL d   1      -0.304   1.186   0.065  0.00  0.00     0.064 C 
ATOM      2  N   UNL d   1       1.074  -0.661   0.015  0.00  0.00    -0.318 N 
ATOM      3  C   UNL d   1      -0.292  -1.105   0.014  0.00  0.00     0.025 C 
ATOM      4  C   UNL d   1       1.008   0.759  -0.099  0.00  0.00     0.029 C 
ATOM      5  C   UNL d   1      -1.091   0.030   0.041  0.00  0.00     0.046 C 
ATOM      6  C   UNL d   1       2.145   1.698  -0.369  0.00  0.00     0.070 C 
ENDROOT
BRANCH   2   7
ATOM      7  C   UNL d   1       2.318  -1.447   0.084  0.00  0.00     0.039 C 
ATOM      8  C   UNL d   1       3.572  -0.857   0.272  0.00  0.00     0.032 C 
ATOM      9  C   UNL d   1       4.783  -1.585   0.178  0.00  0.00     0.031 C 
ATOM     10  C   UNL d   1       4.822  -2.962  -0.025  0.00  0.00     0.030 C 
ATOM     11  C   UNL d   1       3.571  -3.570  -0.084  0.00  0.00     0.031 C 
ATOM     12  C   UNL d   1       2.367  -2.834  -0.032  0.00  0.00     0.032 C 
BRANCH  10  13
ATOM     13  N   UNL d   1       6.001  -3.660  -0.189  0.00  0.00    -0.377 N 
ATOM     14  C   UNL d   1       6.059  -5.045  -0.699  0.00  0.00     0.149 C 
ATOM     15  C   UNL d   1       6.405  -6.014   0.440  0.00  0.00     0.187 C 
ATOM     16  O   UNL d   1       7.645  -5.650   1.071  0.00  0.00    -0.388 OA
ATOM     17  C   UNL d   1       7.558  -4.321   1.612  0.00  0.00     0.187 C 
ATOM     18  C   UNL d   1       7.232  -3.275   0.529  0.00  0.00     0.149 C 
ENDBRANCH  10  13
ENDBRANCH   2   7
BRANCH   3  19
ATOM     19  C   UNL d   1      -0.882  -2.531   0.057  0.00  0.00    -0.008 C 
ATOM     20  C   UNL d   1      -2.447  -2.513   0.100  0.00  0.00     0.021 C 
ATOM     21  C   UNL d   1      -0.581  -3.304  -1.250  0.00  0.00     0.021 C 
ATOM     22  C   UNL d   1      -0.504  -3.234   1.383  0.00  0.00     0.021 C 
ENDBRANCH   3  19
BRANCH   1  23
ATOM     23  C   UNL d   1      -0.779   2.564   0.209  0.00  0.00     0.295 C 
ATOM     24  O   UNL d   1      -0.045   3.532   0.356  0.00  0.00    -0.259 OA
BRANCH  23  25
ATOM     25  O   UNL d   1      -2.146   2.632   0.252  0.00  0.00    -0.318 OA
BRANCH  25  26
ATOM     26  C   UNL d   1      -2.682   3.885   0.695  0.00  0.00     0.174 C 
ATOM     27  C   UNL d   1      -2.722   3.890   2.213  0.00  0.00     0.034 C 
ENDBRANCH  25  26
ENDBRANCH  23  25
ENDBRANCH   1  23
TORSDOF 6
