REMARK  6 active torsions:
REMARK  status: ('A' for Active; 'I' for Inactive)
REMARK    1  A    between atoms: N_2  and  C_1 
REMARK       I    between atoms: N_3  and  C_6 
REMARK       I    between atoms: C_4  and  N_3 
REMARK       I    between atoms: N_10  and  C_4 
REMARK    2  A    between atoms: C_5  and  C_9 
REMARK    3  A    between atoms: C_6  and  C_13 
REMARK    4  A    between atoms: O_12  and  C_8 
REMARK    5  A    between atoms: C_19  and  N_10 
REMARK    6  A    between atoms: C_25  and  O_12 
ROOT
ATOM      1  C   UNL d   1       6.062   1.434  -1.508  0.00  0.00     0.027 A 
ATOM      2  C   UNL d   1       5.263   1.447  -2.662  0.00  0.00     0.019 A 
ATOM      3  C   UNL d   1       5.459   1.307  -0.252  0.00  0.00     0.019 A 
ATOM      4  C   UNL d   1       3.277   1.452  -1.296  0.00  0.00     0.076 A 
ATOM      5  C   UNL d   1       4.068   1.319  -0.146  0.00  0.00     0.038 A 
ATOM      6  C   UNL d   1       3.870   1.451  -2.557  0.00  0.00     0.038 A 
ENDROOT
BRANCH   4   7
ATOM      7  O   UNL d   1       1.908   1.652  -1.245  0.00  0.00    -0.308 OA
BRANCH   7   8
ATOM      8  C   UNL d   1       1.496   2.522  -0.258  0.00  0.00     0.109 A 
ATOM      9  C   UNL d   1       1.913   3.855  -0.176  0.00  0.00     0.137 A 
ATOM     10  C   UNL d   1       1.710   4.606   0.988  0.00  0.00     0.055 A 
ATOM     11  C   UNL d   1       1.039   4.023   2.075  0.00  0.00     0.050 A 
ATOM     12  C   UNL d   1       0.497   2.732   1.931  0.00  0.00     0.019 A 
ATOM     13  C   UNL d   1       0.721   1.985   0.770  0.00  0.00     0.040 A 
BRANCH   9  14
ATOM     14  N   UNL d   1       2.622   4.472  -1.280  0.00  0.00    -0.113 N 
ATOM     15  O   UNL d   1       3.732   4.962  -1.028  0.00  0.00    -0.532 OA
ATOM     16  O   UNL d   1       2.059   4.486  -2.382  0.00  0.00    -0.532 OA
ENDBRANCH   9  14
BRANCH  11  17
ATOM     17  C   UNL d   1       0.911   4.759   3.390  0.00  0.00     0.417 C 
ATOM     18  F   UNL d   1       1.834   5.749   3.531  0.00  0.00    -0.166 F 
ATOM     19  F   UNL d   1      -0.305   5.343   3.546  0.00  0.00    -0.166 F 
ATOM     20  F   UNL d   1       1.082   3.937   4.461  0.00  0.00    -0.166 F 
ENDBRANCH  11  17
ENDBRANCH   7   8
ENDBRANCH   4   7
BRANCH   1  21
ATOM     21  C   UNL d   1       7.535   1.539  -1.667  0.00  0.00     0.239 C 
ATOM     22  N   UNL d   1       8.303   2.003  -0.616  0.00  0.00    -0.175 NA
ATOM     23  C   UNL d   1       8.370   3.324  -0.240  0.00  0.00     0.301 C 
ATOM     24  H   UNL d   1       9.257   1.798  -0.896  0.00  0.00     0.141 HD
ATOM     25  N   UNL d   1       7.260   3.818   0.391  0.00  0.00    -0.339 N 
ATOM     26  O   UNL d   1       9.433   3.928  -0.352  0.00  0.00    -0.254 OA
ATOM     27  H   UNL d   1       6.391   3.570  -0.057  0.00  0.00     0.164 HD
ATOM     28  O   UNL d   1       8.065   1.167  -2.711  0.00  0.00    -0.274 OA
BRANCH  25  29
ATOM     29  C   UNL d   1       7.197   5.104   1.111  0.00  0.00     0.023 C 
ATOM     30  C   UNL d   1       7.135   6.277   0.123  0.00  0.00     0.037 C 
ATOM     31  C   UNL d   1       5.912   5.090   1.962  0.00  0.00     0.037 C 
ATOM     32  C   UNL d   1       8.384   5.294   2.072  0.00  0.00     0.037 C 
ENDBRANCH  25  29
ENDBRANCH   1  21
TORSDOF 6
