REMARK  4 active torsions:
REMARK  status: ('A' for Active; 'I' for Inactive)
REMARK    1  A    between atoms: C_6  and  N_1 
REMARK    2  A    between atoms: C_4  and  C_2 
REMARK    3  A    between atoms: N_5  and  C_3 
REMARK    4  A    between atoms: C_7  and  C_4 
ROOT
ATOM      1  N   UNL d   1      -0.303  -1.102   0.004  0.00  0.00    -0.317 N 
ATOM      2  C   UNL d   1      -0.977   0.005  -0.557  0.00  0.00     0.094 A 
ATOM      3  C   UNL d   1       0.944  -0.666   0.418  0.00  0.00     0.098 A 
ATOM      4  C   UNL d   1      -0.070   1.062  -0.551  0.00  0.00     0.035 A 
ATOM      5  C   UNL d   1       1.110   0.653   0.090  0.00  0.00     0.020 A 
ENDROOT
BRANCH   1   6
ATOM      6  C   UNL d   1      -0.726  -2.471   0.071  0.00  0.00     0.072 A 
ATOM      7  C   UNL d   1      -0.402  -3.340   1.131  0.00  0.00     0.130 A 
ATOM      8  C   UNL d   1      -0.813  -4.685   1.137  0.00  0.00     0.045 A 
ATOM      9  C   UNL d   1      -1.575  -5.191   0.080  0.00  0.00    -0.059 A 
ATOM     10  C   UNL d   1      -1.883  -4.345  -0.988  0.00  0.00     0.009 A 
ATOM     11  C   UNL d   1      -2.050  -6.612   0.103  0.00  0.00     0.048 C 
ATOM     12  C   UNL d   1      -1.444  -3.013  -1.005  0.00  0.00     0.033 A 
BRANCH   7  13
ATOM     13  N   UNL d   1       0.281  -2.895   2.332  0.00  0.00    -0.113 N 
ATOM     14  O   UNL d   1      -0.286  -2.033   3.019  0.00  0.00    -0.532 OA
ATOM     15  O   UNL d   1       1.367  -3.430   2.589  0.00  0.00    -0.532 OA
ENDBRANCH   7  13
ENDBRANCH   1   6
BRANCH   2  16
ATOM     16  C   UNL d   1      -2.398   0.050  -0.953  0.00  0.00     0.282 C 
ATOM     17  O   UNL d   1      -3.174  -0.872  -0.674  0.00  0.00    -0.281 OA
BRANCH  16  18
ATOM     18  C   UNL d   1      -2.945   1.258  -1.739  0.00  0.00     0.457 C 
ATOM     19  F   UNL d   1      -2.147   2.361  -1.770  0.00  0.00    -0.163 F 
ATOM     20  F   UNL d   1      -3.185   0.941  -3.044  0.00  0.00    -0.163 F 
ATOM     21  F   UNL d   1      -4.138   1.690  -1.234  0.00  0.00    -0.163 F 
ENDBRANCH  16  18
ENDBRANCH   2  16
TORSDOF 4
