REMARK  5 active torsions:
REMARK  status: ('A' for Active; 'I' for Inactive)
REMARK    1  A    between atoms: C_5  and  C_1 
REMARK       I    between atoms: N_11  and  C_5 
REMARK    2  A    between atoms: N_7  and  C_15 
REMARK    3  A    between atoms: C_14  and  N_11 
REMARK    4  A    between atoms: O_16  and  C_12 
REMARK    5  A    between atoms: C_15  and  C_14 
ROOT
ATOM      1  C   UNL d   1      -2.414   0.040   0.057  0.00  0.00     0.102 A 
ATOM      2  N   UNL d   1      -1.565  -1.050   0.092  0.00  0.00    -0.351 N 
ATOM      3  C   UNL d   1      -1.613   1.163   0.157  0.00  0.00     0.049 A 
ATOM      4  C   UNL d   1      -0.261   0.741   0.275  0.00  0.00    -0.004 A 
ATOM      5  C   UNL d   1      -0.256  -0.650   0.231  0.00  0.00     0.043 A 
ATOM      6  C   UNL d   1       0.963   1.420   0.425  0.00  0.00     0.050 A 
ATOM      7  C   UNL d   1       0.925  -1.397   0.325  0.00  0.00     0.033 A 
ATOM      8  C   UNL d   1       2.157   0.698   0.529  0.00  0.00     0.069 A 
ATOM      9  C   UNL d   1       2.132  -0.696   0.477  0.00  0.00     0.039 A 
ATOM     10  H   UNL d   1      -1.886  -2.008   0.042  0.00  0.00     0.166 HD
ENDROOT
BRANCH   1  11
ATOM     11  C   UNL d   1      -3.849  -0.119  -0.037  0.00  0.00     0.268 C 
ATOM     12  O   UNL d   1      -4.383  -1.224  -0.051  0.00  0.00    -0.266 OA
ATOM     13  N   UNL d   1      -4.571   1.050  -0.105  0.00  0.00    -0.354 N 
ATOM     14  H   UNL d   1      -4.099   1.928  -0.274  0.00  0.00     0.162 HD
BRANCH  13  15
ATOM     15  C   UNL d   1      -6.015   1.037  -0.214  0.00  0.00     0.153 C 
BRANCH  15  16
ATOM     16  C   UNL d   1      -6.625   2.451  -0.272  0.00  0.00     0.292 C 
BRANCH  16  17
ATOM     17  N   UNL d   1      -6.136   3.309  -1.379  0.00  0.00     0.090 N 
ATOM     18  C   UNL d   1      -6.470   2.728  -2.692  0.00  0.00     0.272 C 
ATOM     19  C   UNL d   1      -5.993   3.611  -3.847  0.00  0.00     0.030 C 
ATOM     20  C   UNL d   1      -6.558   5.020  -3.740  0.00  0.00     0.003 C 
ATOM     21  C   UNL d   1      -6.265   5.599  -2.362  0.00  0.00     0.030 C 
ATOM     22  C   UNL d   1      -6.732   4.655  -1.252  0.00  0.00     0.272 C 
ENDBRANCH  16  17
ENDBRANCH  15  16
ENDBRANCH  13  15
ENDBRANCH   1  11
BRANCH   8  23
ATOM     23  O   UNL d   1       3.269   1.481   0.680  0.00  0.00    -0.356 OA
ATOM     24  C   UNL d   1       4.520   0.819   0.804  0.00  0.00     0.210 C 
ENDBRANCH   8  23
TORSDOF 5
