REMARK  4 active torsions:
REMARK  status: ('A' for Active; 'I' for Inactive)
REMARK    1  A    between atoms: C_6  and  C_1 
REMARK    2  A    between atoms: C_2  and  C_5 
REMARK    3  A    between atoms: C_5  and  N_3 
REMARK    4  A    between atoms: N_4  and  C_6 
ROOT
ATOM      1  N   UNL d   1      -3.552   1.200   0.475  0.00  0.00     0.096 N 
ATOM      2  N   UNL d   1      -1.063   2.895   0.112  0.00  0.00     0.096 N 
ATOM      3  C   UNL d   1      -2.298   3.112  -0.670  0.00  0.00     0.303 C 
ATOM      4  C   UNL d   1      -2.313   0.996   1.254  0.00  0.00     0.303 C 
ATOM      5  C   UNL d   1      -3.228   1.880  -0.793  0.00  0.00     0.303 C 
ATOM      6  C   UNL d   1      -1.420   2.254   1.393  0.00  0.00     0.303 C 
ENDROOT
BRANCH   1   7
ATOM      7  C   UNL d   1      -4.566   1.900   1.277  0.00  0.00     0.316 C 
BRANCH   7   8
ATOM      8  C   UNL d   1      -5.946   1.955   0.660  0.00  0.00     0.030 A 
ATOM      9  C   UNL d   1      -6.547   3.207   0.464  0.00  0.00     0.126 A 
ATOM     10  F   UNL d   1      -5.883   4.325   0.792  0.00  0.00    -0.205 F 
ATOM     11  C   UNL d   1      -7.834   3.341  -0.054  0.00  0.00     0.043 A 
ATOM     12  C   UNL d   1      -8.560   2.206  -0.396  0.00  0.00     0.005 A 
ATOM     13  C   UNL d   1      -7.992   0.948  -0.208  0.00  0.00     0.024 A 
ATOM     14  C   UNL d   1      -6.698   0.819   0.326  0.00  0.00     0.045 A 
ATOM     15 CL   UNL d   1      -6.114  -0.788   0.575  0.00  0.00    -0.084 Cl
ENDBRANCH   7   8
ENDBRANCH   1   7
BRANCH   2  16
ATOM     16  C   UNL d   1      -0.041   2.108  -0.607  0.00  0.00     0.316 C 
BRANCH  16  17
ATOM     17  C   UNL d   1       0.605   2.869  -1.742  0.00  0.00     0.030 A 
ATOM     18  C   UNL d   1       1.516   3.891  -1.440  0.00  0.00     0.126 A 
ATOM     19  F   UNL d   1       1.859   4.128  -0.164  0.00  0.00    -0.205 F 
ATOM     20  C   UNL d   1       2.102   4.676  -2.431  0.00  0.00     0.043 A 
ATOM     21  C   UNL d   1       1.789   4.448  -3.766  0.00  0.00     0.005 A 
ATOM     22  C   UNL d   1       0.909   3.420  -4.098  0.00  0.00     0.024 A 
ATOM     23  C   UNL d   1       0.327   2.631  -3.097  0.00  0.00     0.045 A 
ATOM     24 CL   UNL d   1      -0.725   1.363  -3.619  0.00  0.00    -0.084 Cl
ENDBRANCH  16  17
ENDBRANCH   2  16
TORSDOF 4
