REMARK  3 active torsions:
REMARK  status: ('A' for Active; 'I' for Inactive)
REMARK    1  A    between atoms: C_5  and  C_1 
REMARK    2  A    between atoms: C_7  and  C_5 
REMARK    3  A    between atoms: O_10  and  C_5 
ROOT
ATOM      1  C   UNL d   1      -1.553  -1.211   0.009  0.00  0.00     0.004 A 
ATOM      2  C   UNL d   1      -2.349  -0.076   0.000  0.00  0.00     0.099 A 
ATOM      3  N   UNL d   1      -1.543   1.025  -0.005  0.00  0.00    -0.365 N 
ATOM      4  C   UNL d   1      -0.192  -0.749   0.002  0.00  0.00     0.001 A 
ATOM      5  C   UNL d   1      -0.222   0.647  -0.004  0.00  0.00     0.043 A 
ATOM      6  C   UNL d   1       1.067  -1.387  -0.002  0.00  0.00     0.014 A 
ATOM      7  C   UNL d   1       0.936   1.433  -0.015  0.00  0.00     0.030 A 
ATOM      8  C   UNL d   1       2.235  -0.616  -0.004  0.00  0.00     0.001 A 
ATOM      9  C   UNL d   1       2.168   0.774  -0.013  0.00  0.00     0.002 A 
ATOM     10  H   UNL d   1      -1.866   1.982  -0.013  0.00  0.00     0.165 HD
ENDROOT
BRANCH   1  11
ATOM     11  C   UNL d   1      -2.025  -2.636   0.003  0.00  0.00     0.203 C 
BRANCH  11  12
ATOM     12  C   UNL d   1      -2.185  -3.024   1.468  0.00  0.00     0.042 A 
ATOM     13  N   UNL d   1      -3.411  -2.819   2.037  0.00  0.00    -0.367 N 
ATOM     14  C   UNL d   1      -3.552  -3.152   3.338  0.00  0.00     0.088 A 
ATOM     15  HN  UNL d   1      -4.187  -2.431   1.501  1.00  0.00     0.165 HD
ATOM     16  C   UNL d   1      -2.541  -3.704   4.108  0.00  0.00     0.017 A 
ATOM     17  C   UNL d   1      -1.308  -3.930   3.512  0.00  0.00     0.003 A 
ATOM     18  C   UNL d   1      -1.123  -3.588   2.175  0.00  0.00     0.028 A 
ENDBRANCH  11  12
BRANCH  11  19
ATOM     19  O   UNL d   1      -3.281  -2.768  -0.672  0.00  0.00    -0.385 OA
ATOM     20  H   UNL d   1      -3.938  -2.671   0.047  0.00  0.00     0.211 HD
ENDBRANCH  11  19
ENDBRANCH   1  11
TORSDOF 3
