REMARK  1 active torsions:
REMARK  status: ('A' for Active; 'I' for Inactive)
REMARK    1  A    between atoms: O_2  and  C_1 
ROOT
ATOM      1  C   UNL d   1      -2.162  -0.888   0.478  0.00  0.00     0.054 C 
ATOM      2  C   UNL d   1      -3.642  -1.021   0.868  0.00  0.00     0.045 C 
ATOM      3  C   UNL d   1      -1.950   0.367  -0.412  0.00  0.00     0.037 C 
ATOM      4  C   UNL d   1      -1.708  -2.163  -0.302  0.00  0.00     0.037 C 
ATOM      5  C   UNL d   1      -2.093   1.735   0.277  0.00  0.00     0.003 C 
ATOM      6  C   UNL d   1      -0.458  -2.924   0.189  0.00  0.00     0.003 C 
ATOM      7  C   UNL d   1      -0.930   2.701  -0.014  0.00  0.00     0.000 C 
ATOM      8  C   UNL d   1       0.884  -2.406  -0.351  0.00  0.00     0.000 C 
ATOM      9  C   UNL d   1       0.415   2.244   0.576  0.00  0.00     0.000 C 
ATOM     10  C   UNL d   1       1.413  -1.193   0.410  0.00  0.00     0.000 C 
ATOM     11  C   UNL d   1       1.427   1.827  -0.505  0.00  0.00     0.000 C 
ATOM     12  C   UNL d   1       2.547  -0.472  -0.316  0.00  0.00     0.000 C 
ATOM     13  C   UNL d   1       2.619   1.022   0.045  0.00  0.00     0.000 C 
ENDROOT
BRANCH   1  14
ATOM     14  O   UNL d   1      -1.422  -0.782   1.692  0.00  0.00    -0.390 OA
ATOM     15  H   UNL d   1      -1.853  -0.136   2.274  0.00  0.00     0.210 HD
ENDBRANCH   1  14
TORSDOF 1
