REMARK  3 active torsions:
REMARK  status: ('A' for Active; 'I' for Inactive)
REMARK    1  A    between atoms: C_6  and  C_1 
REMARK    2  A    between atoms: O_15  and  C_3 
REMARK    3  A    between atoms: C_12  and  N_4 
ROOT
ATOM      1  C   UNL d   1      -1.522   5.628  -1.573  0.00  0.00    -0.111 C 
ATOM      2  C   UNL d   1      -2.717   5.518  -1.563  0.00  0.00     0.012 C 
ATOM      3  C   UNL d   1       0.569   5.630  -0.157  0.00  0.00     0.096 C 
ATOM      4  C   UNL d   1      -0.045   5.785  -1.568  0.00  0.00     0.086 C 
ATOM      5  C   UNL d   1       0.120   6.738   0.798  0.00  0.00     0.026 C 
ATOM      6  C   UNL d   1       0.348   7.152  -2.143  0.00  0.00     0.019 C 
ATOM      7  C   UNL d   1       0.480   8.112   0.217  0.00  0.00     0.002 C 
ATOM      8  C   UNL d   1      -0.029   8.308  -1.213  0.00  0.00     0.001 C 
ENDROOT
BRANCH   3   9
ATOM      9  N   UNL d   1       0.411   4.248   0.311  0.00  0.00    -0.392 N 
ATOM     10  C   UNL d   1      -0.615   3.874   0.982  0.00  0.00     0.097 C 
ATOM     11  HN  UNL d   1       1.138   3.566   0.096  1.00  0.00     0.159 HD
BRANCH  10  12
ATOM     12  C   UNL d   1      -0.853   2.429   1.200  0.00  0.00     0.015 A 
ATOM     13  C   UNL d   1      -1.912   1.981   1.991  0.00  0.00     0.099 A 
ATOM     14  C   UNL d   1      -2.186   0.609   2.063  0.00  0.00     0.069 A 
ATOM     15 CL   UNL d   1      -3.506   0.035   3.017  0.00  0.00    -0.081 Cl
ATOM     16  C   UNL d   1      -1.416  -0.312   1.353  0.00  0.00     0.050 A 
ATOM     17  C   UNL d   1      -0.353   0.143   0.578  0.00  0.00     0.036 A 
ATOM     18  C   UNL d   1      -0.064   1.502   0.502  0.00  0.00     0.039 A 
ATOM     19 CL   UNL d   1       0.590  -0.981  -0.322  0.00  0.00    -0.084 Cl
BRANCH  13  20
ATOM     20  O   UNL d   1      -2.680   2.885   2.678  0.00  0.00    -0.358 OA
ATOM     21  H   UNL d   1      -3.352   2.382   3.179  0.00  0.00     0.217 HD
ENDBRANCH  13  20
ENDBRANCH  10  12
ENDBRANCH   3   9
TORSDOF 3
