REMARK  4 active torsions:
REMARK  status: ('A' for Active; 'I' for Inactive)
REMARK    1  A    between atoms: N_3  and  C_1 
REMARK       I    between atoms: C_7  and  N_3 
REMARK    2  A    between atoms: C_10  and  C_7 
REMARK    3  A    between atoms: C_11  and  C_10 
REMARK    4  A    between atoms: C_13  and  C_11 
ROOT
ATOM      1  N   UNL d   1      -0.561  -2.470  -0.073  0.00  0.00    -0.312 N 
ATOM      2  C   UNL d   1      -1.706  -2.910   0.562  0.00  0.00     0.223 C 
ATOM      3  O   UNL d   1      -2.358  -2.276   1.386  0.00  0.00    -0.273 OA
ATOM      4  H   UNL d   1       0.035  -3.173  -0.496  0.00  0.00     0.170 HD
ENDROOT
BRANCH   2   5
ATOM      5  C   UNL d   1      -2.065  -4.341   0.192  0.00  0.00     0.108 C 
BRANCH   5   6
ATOM      6  C   UNL d   1      -3.582  -4.529   0.227  0.00  0.00     0.047 C 
BRANCH   6   7
ATOM      7  C   UNL d   1      -4.015  -5.939  -0.090  0.00  0.00    -0.058 A 
ATOM      8  C   UNL d   1      -4.208  -6.868   0.941  0.00  0.00     0.007 A 
ATOM      9  C   UNL d   1      -4.667  -8.156   0.659  0.00  0.00     0.001 A 
ATOM     10  C   UNL d   1      -4.928  -8.531  -0.658  0.00  0.00     0.000 A 
ATOM     11  C   UNL d   1      -4.718  -7.622  -1.693  0.00  0.00     0.001 A 
ATOM     12  C   UNL d   1      -4.260  -6.333  -1.413  0.00  0.00     0.007 A 
ENDBRANCH   6   7
ENDBRANCH   5   6
ENDBRANCH   2   5
BRANCH   1  13
ATOM     13  C   UNL d   1      -0.014  -1.198   0.036  0.00  0.00     0.125 A 
ATOM     14  N   UNL d   1      -0.605  -0.006   0.414  0.00  0.00    -0.281 N 
ATOM     15  N   UNL d   1       0.276   1.025   0.451  0.00  0.00    -0.308 N 
ATOM     16  C   UNL d   1      -1.996   0.332   0.599  0.00  0.00     0.179 C 
ATOM     17  C   UNL d   1       1.420   0.495   0.027  0.00  0.00     0.111 A 
ATOM     18  HN  UNL d   1       0.101   1.988   0.738  1.00  0.00     0.186 HD
ATOM     19  C   UNL d   1       1.292  -0.869  -0.274  0.00  0.00     0.068 A 
ENDBRANCH   1  13
TORSDOF 4
