REMARK  7 active torsions:
REMARK  status: ('A' for Active; 'I' for Inactive)
REMARK    1  A    between atoms: N_2  and  C_1 
REMARK    2  A    between atoms: C_9  and  C_3 
REMARK    3  A    between atoms: N_6  and  C_4 
REMARK    4  A    between atoms: C_5  and  C_10 
REMARK    5  A    between atoms: C_8  and  N_12 
REMARK    6  A    between atoms: O_26  and  C_9 
REMARK    7  A    between atoms: C_27  and  O_26 
ROOT
ATOM      1  C   UNL d   1       2.930  -7.400  -0.151  0.00  0.00     0.134 C 
ATOM      2  C   UNL d   1       2.109  -6.814  -1.051  0.00  0.00     0.114 C 
ATOM      3  C   UNL d   1       3.089  -8.812  -0.047  0.00  0.00     0.107 C 
ATOM      4  N   UNL d   1       3.190  -9.966   0.008  0.00  0.00    -0.191 NA
ENDROOT
BRANCH   1   5
ATOM      5  C   UNL d   1       3.705  -6.630   0.863  0.00  0.00     0.305 C 
ATOM      6  O   UNL d   1       4.393  -7.168   1.723  0.00  0.00    -0.258 OA
BRANCH   5   7
ATOM      7  O   UNL d   1       3.483  -5.293   0.784  0.00  0.00    -0.317 OA
BRANCH   7   8
ATOM      8  C   UNL d   1       3.825  -4.548   1.968  0.00  0.00     0.174 C 
ATOM      9  C   UNL d   1       2.609  -4.544   2.876  0.00  0.00     0.034 C 
ENDBRANCH   7   8
ENDBRANCH   5   7
ENDBRANCH   1   5
BRANCH   2  10
ATOM     10  N   UNL d   1       1.241  -7.321  -2.029  0.00  0.00    -0.385 N 
ATOM     11  C   UNL d   1       0.483  -6.470  -2.996  0.00  0.00     0.142 C 
ATOM     12  C   UNL d   1       0.785  -6.878  -4.476  0.00  0.00     0.143 C 
ATOM     13  N   UNL d   1       0.691  -8.348  -4.674  0.00  0.00    -0.376 N 
ATOM     14  C   UNL d   1       1.457  -9.128  -3.683  0.00  0.00     0.143 C 
ATOM     15  C   UNL d   1       0.944  -8.748  -2.285  0.00  0.00     0.142 C 
BRANCH  13  16
ATOM     16  C   UNL d   1       0.219  -8.954  -5.823  0.00  0.00     0.063 A 
ATOM     17  C   UNL d   1      -1.004  -8.656  -6.455  0.00  0.00     0.130 A 
ATOM     18  C   UNL d   1      -1.462  -9.328  -7.608  0.00  0.00     0.054 A 
ATOM     19  C   UNL d   1      -0.701 -10.355  -8.172  0.00  0.00     0.050 A 
ATOM     20  C   UNL d   1       0.512 -10.687  -7.561  0.00  0.00     0.018 A 
ATOM     21  C   UNL d   1       0.955  -9.998  -6.421  0.00  0.00     0.032 A 
BRANCH  17  22
ATOM     22  N   UNL d   1      -1.923  -7.687  -5.886  0.00  0.00    -0.113 N 
ATOM     23  O   UNL d   1      -2.353  -7.893  -4.742  0.00  0.00    -0.532 OA
ATOM     24  O   UNL d   1      -2.240  -6.731  -6.608  0.00  0.00    -0.532 OA
ENDBRANCH  17  22
BRANCH  19  25
ATOM     25  C   UNL d   1      -1.161 -11.098  -9.403  0.00  0.00     0.417 C 
ATOM     26  F   UNL d   1      -2.373 -10.683  -9.862  0.00  0.00    -0.166 F 
ATOM     27  F   UNL d   1      -0.296 -10.959 -10.444  0.00  0.00    -0.166 F 
ATOM     28  F   UNL d   1      -1.280 -12.437  -9.188  0.00  0.00    -0.166 F 
ENDBRANCH  19  25
ENDBRANCH  13  16
ENDBRANCH   2  10
TORSDOF 7
