REMARK  4 active torsions:
REMARK  status: ('A' for Active; 'I' for Inactive)
REMARK    1  A    between atoms: C_3  and  N_1 
REMARK       I    between atoms: C_2  and  N_4 
REMARK    2  A    between atoms: C_10  and  C_2 
REMARK    3  A    between atoms: N_5  and  C_6 
REMARK    4  A    between atoms: C_13  and  C_14 
ROOT
ATOM      1  C   UNL d   1      -5.264   2.560   6.798  0.00  0.00     0.253 C 
ATOM      2  N   UNL d   1      -4.793   2.001   5.599  0.00  0.00    -0.346 N 
ATOM      3  N   UNL d   1      -2.132   2.065   4.245  0.00  0.00    -0.366 N 
ATOM      4  C   UNL d   1      -3.812   0.896   5.687  0.00  0.00     0.146 C 
ATOM      5  C   UNL d   1      -2.347   1.339   5.513  0.00  0.00     0.144 C 
ATOM      6  O   UNL d   1      -4.913   2.127   7.899  0.00  0.00    -0.267 OA
ATOM      7  C   UNL d   1      -4.140   3.287   3.509  0.00  0.00     0.040 C 
ATOM      8  C   UNL d   1      -5.156   2.385   4.231  0.00  0.00     0.127 C 
ATOM      9  C   UNL d   1      -2.761   3.377   4.156  0.00  0.00     0.126 C 
ENDROOT
BRANCH   1  10
ATOM     10  C   UNL d   1      -6.240   3.691   6.808  0.00  0.00     0.032 A 
ATOM     11  C   UNL d   1      -7.258   3.718   7.767  0.00  0.00     0.017 A 
ATOM     12  C   UNL d   1      -8.209   4.758   7.771  0.00  0.00     0.009 A 
ATOM     13  C   UNL d   1      -8.178   5.784   6.807  0.00  0.00    -0.051 A 
ATOM     14  C   UNL d   1      -7.101   5.778   5.912  0.00  0.00     0.009 A 
ATOM     15  C   UNL d   1      -6.131   4.771   5.944  0.00  0.00     0.017 A 
BRANCH  13  16
ATOM     16  C   UNL d   1      -9.274   6.865   6.754  0.00  0.00    -0.024 C 
ATOM     17  C   UNL d   1      -9.129   7.824   5.546  0.00  0.00     0.019 C 
ATOM     18  C   UNL d   1     -10.662   6.202   6.632  0.00  0.00     0.019 C 
ATOM     19  C   UNL d   1      -9.231   7.727   8.030  0.00  0.00     0.019 C 
ENDBRANCH  13  16
ENDBRANCH   1  10
BRANCH   3  20
ATOM     20  C   UNL d   1      -1.366   1.511   3.239  0.00  0.00     0.103 A 
ATOM     21  C   UNL d   1      -1.138   2.168   2.025  0.00  0.00     0.051 A 
ATOM     22  C   UNL d   1      -0.332   1.599   1.032  0.00  0.00     0.041 A 
ATOM     23  C   UNL d   1       0.234   0.358   1.273  0.00  0.00     0.118 A 
ATOM     24  C   UNL d   1      -0.023  -0.259   2.479  0.00  0.00     0.125 A 
ATOM     25  N   UNL d   1      -0.810   0.292   3.443  0.00  0.00    -0.350 N 
ATOM     26  HN  UNL d   1      -0.981  -0.210   4.314  1.00  0.00     0.166 HD
BRANCH  23  27
ATOM     27  N   UNL d   1       1.082  -0.285   0.278  0.00  0.00    -0.114 N 
ATOM     28  O   UNL d   1       1.546  -1.402   0.552  0.00  0.00    -0.532 OA
ATOM     29  O   UNL d   1       1.286   0.320  -0.783  0.00  0.00    -0.532 OA
ENDBRANCH  23  27
ENDBRANCH   3  20
TORSDOF 4
