REMARK  6 active torsions:
REMARK  status: ('A' for Active; 'I' for Inactive)
REMARK    1  A    between atoms: C_6  and  C_1 
REMARK    2  A    between atoms: N_3  and  C_2 
REMARK       I    between atoms: C_4  and  N_3 
REMARK    3  A    between atoms: C_11  and  C_4 
REMARK    4  A    between atoms: O_13  and  C_6 
REMARK    5  A    between atoms: O_14  and  C_8 
REMARK    6  A    between atoms: O_15  and  C_9 
ROOT
ATOM      1  C   UNL d   1       1.413  -0.173   0.221  0.00  0.00     0.067 A 
ATOM      2  C   UNL d   1       0.614  -1.321   0.161  0.00  0.00     0.054 A 
ATOM      3  C   UNL d   1       0.823   1.095   0.162  0.00  0.00     0.060 A 
ATOM      4  C   UNL d   1      -0.781  -1.177   0.061  0.00  0.00     0.070 A 
ATOM      5  C   UNL d   1      -0.567   1.232   0.075  0.00  0.00     0.102 A 
ATOM      6  C   UNL d   1      -1.383   0.090   0.002  0.00  0.00     0.103 A 
ENDROOT
BRANCH   2   7
ATOM      7  N   UNL d   1       1.187  -2.621   0.149  0.00  0.00    -0.322 N 
ATOM      8  C   UNL d   1       0.695  -3.638   0.950  0.00  0.00     0.256 C 
ATOM      9  O   UNL d   1      -0.139  -3.474   1.835  0.00  0.00    -0.267 OA
ATOM     10  H   UNL d   1       2.143  -2.724  -0.187  0.00  0.00     0.169 HD
BRANCH   8  11
ATOM     11  C   UNL d   1       1.309  -4.975   0.773  0.00  0.00     0.032 A 
ATOM     12  C   UNL d   1       1.554  -5.756   1.910  0.00  0.00     0.017 A 
ATOM     13  C   UNL d   1       2.013  -7.066   1.771  0.00  0.00     0.001 A 
ATOM     14  C   UNL d   1       2.215  -7.600   0.500  0.00  0.00     0.000 A 
ATOM     15  C   UNL d   1       1.982  -6.820  -0.635  0.00  0.00     0.001 A 
ATOM     16  C   UNL d   1       1.534  -5.503  -0.503  0.00  0.00     0.017 A 
ENDBRANCH   8  11
ENDBRANCH   2   7
BRANCH   1  17
ATOM     17  C   UNL d   1       2.874  -0.226   0.459  0.00  0.00     0.178 C 
ATOM     18  O   UNL d   1       3.667   0.522  -0.073  0.00  0.00    -0.646 OA
BRANCH  17  19
ATOM     19  O   UNL d   1       3.224  -1.172   1.360  0.00  0.00    -0.773 OA
ATOM     20  H   UNL d   1       2.464  -1.564   1.842  0.00  0.00     0.167 HD
ENDBRANCH  17  19
ENDBRANCH   1  17
BRANCH   6  21
ATOM     21  O   UNL d   1      -2.727   0.285  -0.163  0.00  0.00    -0.353 OA
ATOM     22  C   UNL d   1      -3.572  -0.854  -0.263  0.00  0.00     0.210 C 
ENDBRANCH   6  21
BRANCH   5  23
ATOM     23  O   UNL d   1      -0.981   2.539   0.029  0.00  0.00    -0.353 OA
ATOM     24  C   UNL d   1      -2.225   2.833   0.656  0.00  0.00     0.210 C 
ENDBRANCH   5  23
TORSDOF 6
