REMARK  4 active torsions:
REMARK  status: ('A' for Active; 'I' for Inactive)
REMARK    1  A    between atoms: C_8  and  N_1 
REMARK    2  A    between atoms: C_9  and  C_2 
REMARK    3  A    between atoms: C_7  and  C_8 
REMARK    4  A    between atoms: C_12  and  C_13 
ROOT
ATOM      1  N   UNL d   1      -0.114  -0.994  -0.585  0.00  0.00    -0.256 N 
ATOM      2  C   UNL d   1       1.067  -0.533  -0.043  0.00  0.00     0.143 A 
ATOM      3  N   UNL d   1      -0.611   0.658   0.651  0.00  0.00    -0.007 NA
ATOM      4  N   UNL d   1      -1.152  -0.273  -0.113  0.00  0.00    -0.004 NA
ATOM      5  N   UNL d   1       0.749   0.506   0.716  0.00  0.00    -0.270 N 
ATOM      6  HN  UNL d   1       1.396   1.086   1.249  1.00  0.00     0.185 HD
ENDROOT
BRANCH   2   7
ATOM      7  C   UNL d   1       2.418  -1.090  -0.176  0.00  0.00     0.010 A 
ATOM      8  C   UNL d   1       2.870  -1.822  -1.277  0.00  0.00     0.016 A 
ATOM      9  C   UNL d   1       4.138  -2.420  -1.279  0.00  0.00     0.009 A 
ATOM     10  C   UNL d   1       5.015  -2.288  -0.189  0.00  0.00    -0.051 A 
ATOM     11  C   UNL d   1       4.594  -1.468   0.866  0.00  0.00     0.009 A 
ATOM     12  C   UNL d   1       3.322  -0.882   0.871  0.00  0.00     0.016 A 
BRANCH  10  13
ATOM     13  C   UNL d   1       6.347  -3.056  -0.158  0.00  0.00    -0.024 C 
ATOM     14  C   UNL d   1       7.166  -2.805   1.127  0.00  0.00     0.019 C 
ATOM     15  C   UNL d   1       6.058  -4.573  -0.226  0.00  0.00     0.019 C 
ATOM     16  C   UNL d   1       7.235  -2.664  -1.357  0.00  0.00     0.019 C 
ENDBRANCH  10  13
ENDBRANCH   2   7
BRANCH   1  17
ATOM     17  C   UNL d   1      -0.392  -2.165  -1.390  0.00  0.00     0.190 C 
BRANCH  17  18
ATOM     18  C   UNL d   1      -0.313  -2.022  -2.906  0.00  0.00     0.005 A 
ATOM     19  C   UNL d   1      -0.022  -0.851  -3.641  0.00  0.00     0.043 A 
ATOM     20 CL   UNL d   1       0.211   0.722  -2.968  0.00  0.00    -0.084 Cl
ATOM     21  C   UNL d   1       0.117  -0.887  -5.038  0.00  0.00     0.024 A 
ATOM     22  C   UNL d   1      -0.055  -2.067  -5.746  0.00  0.00     0.003 A 
ATOM     23  C   UNL d   1      -0.390  -3.225  -5.059  0.00  0.00     0.024 A 
ATOM     24  C   UNL d   1      -0.517  -3.203  -3.665  0.00  0.00     0.043 A 
ATOM     25 CL   UNL d   1      -0.931  -4.713  -2.916  0.00  0.00    -0.084 Cl
ENDBRANCH  17  18
ENDBRANCH   1  17
TORSDOF 4
