REMARK  4 active torsions:
REMARK  status: ('A' for Active; 'I' for Inactive)
REMARK    1  A    between atoms: C_8  and  N_1 
REMARK    2  A    between atoms: C_9  and  C_2 
REMARK    3  A    between atoms: S_12  and  C_5 
REMARK    4  A    between atoms: C_10  and  C_11 
ROOT
ATOM      1  N   UNL d   1      -0.282  -1.152  -0.413  0.00  0.00    -0.275 N 
ATOM      2  C   UNL d   1       0.950  -0.631   0.019  0.00  0.00     0.139 A 
ATOM      3  N   UNL d   1       0.760   0.589   0.483  0.00  0.00    -0.282 N 
ATOM      4  HN  UNL d   1       1.472   1.174   0.922  1.00  0.00     0.188 HD
ATOM      5  C   UNL d   1      -1.156  -0.080  -0.260  0.00  0.00     0.165 A 
ATOM      6  N   UNL d   1      -0.541   0.942   0.280  0.00  0.00    -0.278 N 
ATOM      7  HN  UNL d   1      -0.961   1.843   0.509  1.00  0.00     0.189 HD
ENDROOT
BRANCH   2   8
ATOM      8  C   UNL d   1       2.280  -1.254  -0.058  0.00  0.00     0.010 A 
ATOM      9  C   UNL d   1       2.687  -2.048  -1.134  0.00  0.00     0.016 A 
ATOM     10  C   UNL d   1       3.943  -2.667  -1.135  0.00  0.00     0.009 A 
ATOM     11  C   UNL d   1       4.862  -2.470  -0.090  0.00  0.00    -0.051 A 
ATOM     12  C   UNL d   1       4.473  -1.610   0.948  0.00  0.00     0.009 A 
ATOM     13  C   UNL d   1       3.204  -1.016   0.965  0.00  0.00     0.016 A 
BRANCH  11  14
ATOM     14  C   UNL d   1       6.224  -3.186  -0.110  0.00  0.00    -0.024 C 
ATOM     15  C   UNL d   1       7.133  -2.814   1.082  0.00  0.00     0.019 C 
ATOM     16  C   UNL d   1       6.001  -4.714  -0.060  0.00  0.00     0.019 C 
ATOM     17  C   UNL d   1       6.994  -2.834  -1.401  0.00  0.00     0.019 C 
ENDBRANCH  11  14
ENDBRANCH   2   8
BRANCH   1  18
ATOM     18  C   UNL d   1      -0.559  -2.482  -0.869  0.00  0.00     0.043 A 
ATOM     19  C   UNL d   1       0.101  -3.578  -0.288  0.00  0.00     0.032 A 
ATOM     20  C   UNL d   1      -0.133  -4.876  -0.754  0.00  0.00     0.026 A 
ATOM     21  C   UNL d   1      -1.057  -5.091  -1.772  0.00  0.00     0.034 A 
ATOM     22  C   UNL d   1      -1.728  -4.015  -2.346  0.00  0.00     0.026 A 
ATOM     23 CL   UNL d   1      -1.362  -6.689  -2.330  0.00  0.00    -0.084 Cl
ATOM     24  C   UNL d   1      -1.465  -2.711  -1.911  0.00  0.00     0.032 A 
ENDBRANCH   1  18
BRANCH   5  25
ATOM     25  S   UNL d   1      -2.871  -0.055  -0.539  0.00  0.00    -0.105 SA
ATOM     26  H   UNL d   1      -3.134  -1.366  -0.548  0.00  0.00     0.110 HD
ENDBRANCH   5  25
TORSDOF 4
