REMARK  5 active torsions:
REMARK  status: ('A' for Active; 'I' for Inactive)
REMARK    1  A    between atoms: C_6  and  C_1 
REMARK    2  A    between atoms: C_5  and  C_2 
REMARK       I    between atoms: N_9  and  C_5 
REMARK    3  A    between atoms: C_10  and  N_9 
REMARK    4  A    between atoms: S_11  and  C_12 
REMARK    5  A    between atoms: C_16  and  S_11 
ROOT
ATOM      1  C   UNL d   1       0.516  -4.467   0.824  0.00  0.00     0.261 C 
ATOM      2  N   UNL d   1      -0.242  -3.606   0.053  0.00  0.00    -0.322 N 
ATOM      3  O   UNL d   1       0.286  -5.661   1.003  0.00  0.00    -0.267 OA
ATOM      4  H   UNL d   1       0.232  -2.796  -0.332  0.00  0.00     0.169 HD
ENDROOT
BRANCH   1   5
ATOM      5  C   UNL d   1       1.671  -3.832   1.424  0.00  0.00     0.093 A 
ATOM      6  C   UNL d   1       3.062  -4.161   1.380  0.00  0.00     0.086 A 
ATOM      7  N   UNL d   1       3.766  -3.270   2.101  0.00  0.00    -0.259 N 
ATOM      8  O   UNL d   1       2.858  -2.420   2.680  0.00  0.00    -0.241 OA
ATOM      9  HN  UNL d   1       4.780  -3.233   2.198  1.00  0.00     0.195 HD
ATOM     10  C   UNL d   1       1.607  -2.750   2.281  0.00  0.00     0.090 A 
ATOM     11  C   UNL d   1       0.521  -1.941   2.868  0.00  0.00     0.080 C 
BRANCH   6  12
ATOM     12  C   UNL d   1       3.784  -5.207   0.646  0.00  0.00     0.037 A 
ATOM     13  C   UNL d   1       3.684  -5.324  -0.753  0.00  0.00     0.048 A 
ATOM     14 CL   UNL d   1       2.688  -4.284  -1.713  0.00  0.00    -0.083 Cl
ATOM     15  C   UNL d   1       4.460  -6.254  -1.461  0.00  0.00     0.025 A 
ATOM     16  C   UNL d   1       5.380  -7.058  -0.797  0.00  0.00     0.003 A 
ATOM     17  C   UNL d   1       5.503  -6.955   0.584  0.00  0.00     0.025 A 
ATOM     18  C   UNL d   1       4.704  -6.054   1.304  0.00  0.00     0.048 A 
ATOM     19 CL   UNL d   1       4.916  -6.065   3.026  0.00  0.00    -0.083 Cl
ENDBRANCH   6  12
ENDBRANCH   1   5
BRANCH   2  20
ATOM     20  C   UNL d   1      -1.575  -3.798  -0.381  0.00  0.00     0.052 A 
ATOM     21  C   UNL d   1      -2.076  -3.021  -1.450  0.00  0.00     0.032 A 
ATOM     22  C   UNL d   1      -3.422  -3.136  -1.833  0.00  0.00     0.021 A 
ATOM     23  C   UNL d   1      -4.264  -4.030  -1.176  0.00  0.00     0.002 A 
ATOM     24  C   UNL d   1      -3.772  -4.806  -0.131  0.00  0.00     0.002 A 
ATOM     25  C   UNL d   1      -2.433  -4.694   0.262  0.00  0.00     0.031 A 
BRANCH  21  26
ATOM     26  S   UNL d   1      -1.043  -1.925  -2.416  0.00  0.00    -0.088 SA
BRANCH  26  27
ATOM     27  C   UNL d   1      -0.277  -3.014  -3.618  0.00  0.00     0.005 A 
ATOM     28  C   UNL d   1      -0.468  -4.400  -3.661  0.00  0.00     0.019 A 
ATOM     29  C   UNL d   1       0.259  -5.196  -4.553  0.00  0.00     0.008 A 
ATOM     30  C   UNL d   1       1.188  -4.622  -5.423  0.00  0.00    -0.062 A 
ATOM     31  C   UNL d   1       1.330  -3.232  -5.435  0.00  0.00     0.008 A 
ATOM     32  C   UNL d   1       2.009  -5.495  -6.324  0.00  0.00     0.048 C 
ATOM     33  C   UNL d   1       0.606  -2.438  -4.538  0.00  0.00     0.019 A 
ENDBRANCH  26  27
ENDBRANCH  21  26
ENDBRANCH   2  20
TORSDOF 5
