REMARK  4 active torsions:
REMARK  status: ('A' for Active; 'I' for Inactive)
REMARK    1  A    between atoms: N_2  and  S_1 
REMARK    2  A    between atoms: N_3  and  S_1 
REMARK    3  A    between atoms: C_6  and  N_2 
REMARK    4  A    between atoms: C_7  and  N_3 
ROOT
ATOM      1  S   UNL d   1       0.849  -0.132  -0.207  0.00  0.00     0.280 S 
ATOM      2  O   UNL d   1      -0.022  -0.882  -1.077  0.00  0.00    -0.194 OA
ATOM      3  O   UNL d   1       2.283  -0.164  -0.298  0.00  0.00    -0.194 OA
ENDROOT
BRANCH   1   4
ATOM      4  N   UNL d   1       0.390  -0.471   1.373  0.00  0.00    -0.198 NA
ATOM      5  H   UNL d   1      -0.617  -0.307   1.421  0.00  0.00     0.141 HD
BRANCH   4   6
ATOM      6  C   UNL d   1       0.719  -1.824   1.952  0.00  0.00     0.015 C 
ATOM      7  C   UNL d   1       2.228  -2.088   1.984  0.00  0.00     0.032 C 
ATOM      8  C   UNL d   1       0.206  -1.821   3.403  0.00  0.00     0.032 C 
ATOM      9  C   UNL d   1      -0.004  -2.936   1.181  0.00  0.00     0.032 C 
ENDBRANCH   4   6
ENDBRANCH   1   4
BRANCH   1  10
ATOM     10  N   UNL d   1       0.381   1.482  -0.219  0.00  0.00    -0.198 NA
ATOM     11  H   UNL d   1       0.910   1.938   0.527  0.00  0.00     0.141 HD
BRANCH  10  12
ATOM     12  C   UNL d   1       0.520   2.270  -1.498  0.00  0.00     0.015 C 
ATOM     13  C   UNL d   1      -0.333   1.688  -2.630  0.00  0.00     0.032 C 
ATOM     14  C   UNL d   1       0.010   3.692  -1.198  0.00  0.00     0.032 C 
ATOM     15  C   UNL d   1       1.989   2.363  -1.925  0.00  0.00     0.032 C 
ENDBRANCH  10  12
ENDBRANCH   1  10
TORSDOF 4
