REMARK  2 active torsions:
REMARK  status: ('A' for Active; 'I' for Inactive)
REMARK    1  A    between atoms: C_7  and  C_3 
REMARK    2  A    between atoms: O_20  and  C_15 
ROOT
ATOM      1  C   UNL d   1       1.285   0.327  -0.024  0.00  0.00     0.058 C 
ATOM      2  C   UNL d   1      -1.280   0.340  -0.042  0.00  0.00     0.058 C 
ATOM      3  C   UNL d   1       0.008   1.164  -0.164  0.00  0.00     0.111 C 
ATOM      4  N   UNL d   1      -0.007  -1.663  -0.073  0.00  0.00    -0.361 N 
ATOM      5  C   UNL d   1      -1.228  -1.012  -0.026  0.00  0.00     0.023 C 
ATOM      6  C   UNL d   1       1.220  -1.025  -0.004  0.00  0.00     0.023 C 
ATOM      7  C   UNL d   1      -2.520   1.043   0.050  0.00  0.00     0.098 C 
ATOM      8  C   UNL d   1       2.533   1.015   0.069  0.00  0.00     0.098 C 
ATOM      9  N   UNL d   1       3.551   1.566   0.139  0.00  0.00    -0.192 NA
ATOM     10  N   UNL d   1      -3.533   1.601   0.127  0.00  0.00    -0.192 NA
ATOM     11  C   UNL d   1       2.444  -1.903   0.088  0.00  0.00     0.069 C 
ATOM     12  C   UNL d   1      -2.462  -1.878   0.032  0.00  0.00     0.069 C 
ATOM     13  H   UNL d   1      -0.012  -2.679  -0.010  0.00  0.00     0.165 HD
ENDROOT
BRANCH   3  14
ATOM     14  C   UNL d   1       0.026   1.938  -1.489  0.00  0.00    -0.022 A 
ATOM     15  C   UNL d   1       0.096   3.341  -1.556  0.00  0.00     0.044 A 
ATOM     16  C   UNL d   1       0.131   3.991  -2.792  0.00  0.00     0.060 A 
ATOM     17 CL   UNL d   1       0.146   4.330  -0.141  0.00  0.00    -0.084 Cl
ATOM     18  C   UNL d   1       0.095   3.251  -3.968  0.00  0.00     0.067 A 
ATOM     19  C   UNL d   1       0.024   1.865  -3.935  0.00  0.00     0.037 A 
ATOM     20  C   UNL d   1      -0.009   1.214  -2.703  0.00  0.00     0.012 A 
BRANCH  18  21
ATOM     21  O   UNL d   1       0.132   3.929  -5.149  0.00  0.00    -0.361 OA
ATOM     22  H   UNL d   1       0.096   3.291  -5.881  0.00  0.00     0.217 HD
ENDBRANCH  18  21
ENDBRANCH   3  14
TORSDOF 2
