REMARK  7 active torsions:
REMARK  status: ('A' for Active; 'I' for Inactive)
REMARK    1  A    between atoms: N_6  and  C_1 
REMARK    2  A    between atoms: C_2  and  C_3 
REMARK       I    between atoms: C_10  and  N_7 
REMARK    3  A    between atoms: C_8  and  C_25 
REMARK    4  A    between atoms: C_19  and  C_10 
REMARK    5  A    between atoms: C_29  and  C_19 
REMARK    6  A    between atoms: C_25  and  S_28 
REMARK    7  A    between atoms: S_28  and  C_29 
ROOT
ATOM      1  N   UNL d   1       0.634   2.181  -0.165  0.00  0.00    -0.363 N 
ATOM      2  N   UNL d   1       2.422   4.379  -0.040  0.00  0.00    -0.349 N 
ATOM      3  C   UNL d   1       3.053   5.575  -0.321  0.00  0.00     0.220 C 
ATOM      4  C   UNL d   1       1.361   2.596  -1.377  0.00  0.00     0.144 C 
ATOM      5  C   UNL d   1       0.241   3.328   0.667  0.00  0.00     0.144 C 
ATOM      6  C   UNL d   1       2.687   3.222  -0.914  0.00  0.00     0.145 C 
ATOM      7  C   UNL d   1       1.519   4.094   1.094  0.00  0.00     0.145 C 
ATOM      8  O   UNL d   1       3.795   5.707  -1.298  0.00  0.00    -0.273 OA
ENDROOT
BRANCH   3   9
ATOM      9  C   UNL d   1       2.768   6.789   0.541  0.00  0.00     0.113 C 
BRANCH   9  10
ATOM     10  C   UNL d   1       3.359   6.782   1.943  0.00  0.00     0.083 C 
BRANCH  10  11
ATOM     11  S   UNL d   1       5.131   6.400   2.084  0.00  0.00    -0.164 SA
BRANCH  11  12
ATOM     12  C   UNL d   1       5.844   7.781   1.123  0.00  0.00     0.117 C 
BRANCH  12  13
ATOM     13  C   UNL d   1       7.350   7.727   1.179  0.00  0.00     0.011 A 
ATOM     14  C   UNL d   1       8.032   6.952   0.235  0.00  0.00     0.125 A 
ATOM     15  F   UNL d   1       7.349   6.335  -0.740  0.00  0.00    -0.205 F 
ATOM     16  C   UNL d   1       9.413   6.788   0.273  0.00  0.00     0.043 A 
ATOM     17  C   UNL d   1      10.151   7.417   1.271  0.00  0.00     0.005 A 
ATOM     18  C   UNL d   1       9.500   8.205   2.215  0.00  0.00     0.024 A 
ATOM     19  C   UNL d   1       8.108   8.360   2.174  0.00  0.00     0.044 A 
ATOM     20 CL   UNL d   1       7.383   9.352   3.389  0.00  0.00    -0.084 Cl
ENDBRANCH  12  13
ENDBRANCH  11  12
ENDBRANCH  10  11
ENDBRANCH   9  10
ENDBRANCH   3   9
BRANCH   1  21
ATOM     21  C   UNL d   1      -0.144   1.040  -0.154  0.00  0.00     0.125 A 
ATOM     22  N   UNL d   1      -1.395   1.146   0.368  0.00  0.00    -0.350 N 
ATOM     23  C   UNL d   1      -2.174   0.039   0.459  0.00  0.00     0.106 A 
ATOM     24  HN  UNL d   1      -1.744   2.049   0.688  1.00  0.00     0.166 HD
ATOM     25  C   UNL d   1      -1.786  -1.219   0.036  0.00  0.00     0.065 A 
ATOM     26  C   UNL d   1      -0.502  -1.341  -0.488  0.00  0.00     0.045 A 
ATOM     27  C   UNL d   1       0.331  -0.222  -0.567  0.00  0.00     0.078 A 
ATOM     28 CL   UNL d   1       1.969  -0.537  -1.038  0.00  0.00    -0.080 Cl
BRANCH  25  29
ATOM     29  C   UNL d   1      -2.708  -2.386   0.183  0.00  0.00     0.418 C 
ATOM     30  F   UNL d   1      -2.218  -3.533  -0.366  0.00  0.00    -0.166 F 
ATOM     31  F   UNL d   1      -2.973  -2.680   1.484  0.00  0.00    -0.166 F 
ATOM     32  F   UNL d   1      -3.915  -2.177  -0.409  0.00  0.00    -0.166 F 
ENDBRANCH  25  29
ENDBRANCH   1  21
TORSDOF 7
