REMARK  5 active torsions:
REMARK  status: ('A' for Active; 'I' for Inactive)
REMARK    1  A    between atoms: N_8  and  C_2 
REMARK    2  A    between atoms: S_14  and  C_3 
REMARK    3  A    between atoms: C_10  and  C_12 
REMARK    4  A    between atoms: O_17  and  C_11 
REMARK    5  A    between atoms: O_19  and  C_16 
ROOT
ATOM      1  N   UNL d   1       0.403   2.515   0.564  0.00  0.00    -0.344 N 
ATOM      2  HN  UNL d   1      -0.156   3.058   1.222  1.00  0.00     0.167 HD
ATOM      3  C   UNL d   1       1.351   3.041  -0.147  0.00  0.00     0.104 C 
ENDROOT
BRANCH   1   4
ATOM      4  C   UNL d   1       0.212   1.181   0.361  0.00  0.00     0.165 A 
ATOM      5  S   UNL d   1      -1.015   0.377   1.278  0.00  0.00    -0.026 SA
ATOM      6  C   UNL d   1      -0.629  -1.052   0.422  0.00  0.00     0.129 A 
ATOM      7  N   UNL d   1       0.346  -0.918  -0.448  0.00  0.00    -0.286 N 
ATOM      8  N   UNL d   1       0.831   0.372  -0.481  0.00  0.00    -0.278 N 
ATOM      9  HN  UNL d   1       0.702  -1.677  -1.029  1.00  0.00     0.188 HD
ATOM     10  HN  UNL d   1       1.590   0.671  -1.093  1.00  0.00     0.189 HD
BRANCH   6  11
ATOM     11  S   UNL d   1      -1.465  -2.567   0.678  0.00  0.00    -0.108 SA
ATOM     12  C   UNL d   1      -0.689  -3.594  -0.591  0.00  0.00     0.097 C 
ENDBRANCH   6  11
ENDBRANCH   1   4
BRANCH   3  13
ATOM     13  C   UNL d   1       1.659   4.486  -0.087  0.00  0.00     0.013 A 
ATOM     14  C   UNL d   1       0.967   5.376   0.738  0.00  0.00     0.080 A 
ATOM     15  C   UNL d   1       1.286   6.732   0.727  0.00  0.00     0.074 A 
ATOM     16  C   UNL d   1       2.295   7.219  -0.110  0.00  0.00     0.070 A 
ATOM     17  C   UNL d   1       2.992   6.329  -0.931  0.00  0.00     0.038 A 
ATOM     18  C   UNL d   1       2.676   4.966  -0.919  0.00  0.00     0.018 A 
BRANCH  14  19
ATOM     19  O   UNL d   1      -0.040   4.989   1.579  0.00  0.00    -0.360 OA
ATOM     20  H   UNL d   1      -0.166   4.023   1.470  0.00  0.00     0.217 HD
ENDBRANCH  14  19
BRANCH  16  21
ATOM     21  O   UNL d   1       2.502   8.569  -0.035  0.00  0.00    -0.356 OA
ATOM     22  C   UNL d   1       3.486   9.121  -0.900  0.00  0.00     0.210 C 
ENDBRANCH  16  21
ENDBRANCH   3  13
TORSDOF 5
