REMARK  6 active torsions:
REMARK  status: ('A' for Active; 'I' for Inactive)
REMARK    1  A    between atoms: N_2  and  S_1 
REMARK    2  A    between atoms: C_8  and  S_1 
REMARK    3  A    between atoms: C_9  and  C_3 
REMARK    4  A    between atoms: C_10  and  C_4 
REMARK    5  A    between atoms: O_23  and  C_10 
REMARK    6  A    between atoms: C_25  and  O_23 
ROOT
ATOM      1  N   UNL d   1       0.354   0.087  -1.717  0.00  0.00    -0.187 N 
ATOM      2  C   UNL d   1      -0.338  -0.527  -3.656  0.00  0.00     0.151 C 
ATOM      3  C   UNL d   1      -0.327   0.902  -3.656  0.00  0.00     0.090 C 
ATOM      4  N   UNL d   1       0.147  -1.010  -2.493  0.00  0.00    -0.280 N 
ATOM      5  HN  UNL d   1       0.321  -1.985  -2.250  1.00  0.00     0.188 HD
ATOM      6  C   UNL d   1       0.161   1.255  -2.412  0.00  0.00     0.149 C 
ENDROOT
BRANCH   1   7
ATOM      7  S   UNL d   1       0.977   0.052  -0.094  0.00  0.00     0.285 S 
ATOM      8  O   UNL d   1       0.498  -1.192   0.478  0.00  0.00    -0.198 OA
ATOM      9  O   UNL d   1       0.647   1.337   0.496  0.00  0.00    -0.198 OA
BRANCH   7  10
ATOM     10  C   UNL d   1       2.723  -0.056  -0.288  0.00  0.00     0.120 A 
ATOM     11  C   UNL d   1       3.411   1.019  -0.840  0.00  0.00     0.142 A 
ATOM     12  C   UNL d   1       4.794   0.976  -0.981  0.00  0.00     0.086 A 
ATOM     13  F   UNL d   1       2.763   2.116  -1.251  0.00  0.00    -0.204 F 
ATOM     14  C   UNL d   1       5.481  -0.155  -0.560  0.00  0.00     0.119 A 
ATOM     15  C   UNL d   1       4.808  -1.235   0.008  0.00  0.00     0.044 A 
ATOM     16  F   UNL d   1       6.811  -0.207  -0.701  0.00  0.00    -0.206 F 
ATOM     17  C   UNL d   1       3.420  -1.187   0.153  0.00  0.00     0.031 A 
ENDBRANCH   7  10
ENDBRANCH   1   7
BRANCH   2  18
ATOM     18  C   UNL d   1      -0.739  -1.457  -4.787  0.00  0.00     0.435 C 
ATOM     19  F   UNL d   1      -0.967  -0.826  -5.964  0.00  0.00    -0.165 F 
ATOM     20  F   UNL d   1       0.238  -2.368  -5.046  0.00  0.00    -0.165 F 
ATOM     21  F   UNL d   1      -1.863  -2.158  -4.489  0.00  0.00    -0.165 F 
ENDBRANCH   2  18
BRANCH   3  22
ATOM     22  C   UNL d   1      -0.695   1.794  -4.739  0.00  0.00     0.297 C 
ATOM     23  O   UNL d   1      -1.590   1.545  -5.529  0.00  0.00    -0.259 OA
BRANCH  22  24
ATOM     24  O   UNL d   1       0.154   2.855  -4.824  0.00  0.00    -0.318 OA
BRANCH  24  25
ATOM     25  C   UNL d   1       0.234   3.466  -6.121  0.00  0.00     0.174 C 
ATOM     26  C   UNL d   1       1.357   2.785  -6.886  0.00  0.00     0.034 C 
ENDBRANCH  24  25
ENDBRANCH  22  24
ENDBRANCH   3  22
TORSDOF 6
