REMARK  4 active torsions:
REMARK  status: ('A' for Active; 'I' for Inactive)
REMARK    1  A    between atoms: O_9  and  N_1 
REMARK    2  A    between atoms: C_14  and  C_2 
REMARK    3  A    between atoms: C_8  and  C_13 
REMARK    4  A    between atoms: C_13  and  O_9 
ROOT
ATOM      1  N   UNL d   1       2.264  -0.834  -0.068  0.00  0.00    -0.166 N 
ATOM      2  C   UNL d   1       2.304   0.551  -0.107  0.00  0.00     0.147 C 
ATOM      3  C   UNL d   1       1.105  -1.552   0.208  0.00  0.00     0.285 C 
ATOM      4  N   UNL d   1       1.210   1.261  -0.069  0.00  0.00    -0.339 N 
ATOM      5  HN  UNL d   1       1.257   2.280  -0.086  1.00  0.00     0.167 HD
ATOM      6  C   UNL d   1      -0.139  -0.772   0.112  0.00  0.00     0.061 A 
ATOM      7  C   UNL d   1      -0.028   0.611  -0.004  0.00  0.00     0.049 A 
ATOM      8  O   UNL d   1       1.054  -2.740   0.507  0.00  0.00    -0.265 OA
ATOM      9  C   UNL d   1      -1.388  -1.404   0.109  0.00  0.00     0.019 A 
ATOM     10  C   UNL d   1      -1.196   1.371  -0.082  0.00  0.00     0.030 A 
ATOM     11  C   UNL d   1      -2.546  -0.636   0.002  0.00  0.00     0.001 A 
ATOM     12  C   UNL d   1      -2.451   0.753  -0.083  0.00  0.00     0.002 A 
ENDROOT
BRANCH   1  13
ATOM     13  O   UNL d   1       3.452  -1.598   0.011  0.00  0.00    -0.264 OA
BRANCH  13  14
ATOM     14  C   UNL d   1       3.576  -2.454  -1.139  0.00  0.00     0.243 C 
BRANCH  14  15
ATOM     15  C   UNL d   1       4.628  -3.513  -0.882  0.00  0.00     0.004 A 
ATOM     16  C   UNL d   1       5.640  -3.797  -1.814  0.00  0.00     0.088 A 
ATOM     17  C   UNL d   1       6.578  -4.811  -1.569  0.00  0.00     0.001 A 
ATOM     18  O   UNL d   1       5.687  -3.041  -2.955  0.00  0.00    -0.325 OA
ATOM     19  C   UNL d   1       7.646  -5.090  -2.580  0.00  0.00     0.212 C 
ATOM     20  C   UNL d   1       6.484  -5.578  -0.402  0.00  0.00     0.036 A 
ATOM     21  O   UNL d   1       7.879  -3.925  -3.360  0.00  0.00    -0.362 OA
ATOM     22  C   UNL d   1       6.651  -3.475  -3.916  0.00  0.00     0.345 C 
ATOM     23  C   UNL d   1       5.475  -5.316   0.519  0.00  0.00     0.035 A 
ATOM     24  C   UNL d   1       4.551  -4.297   0.285  0.00  0.00     0.036 A 
ATOM     25 CL   UNL d   1       5.367  -6.265   1.951  0.00  0.00    -0.084 Cl
ENDBRANCH  14  15
ENDBRANCH  13  14
ENDBRANCH   1  13
BRANCH   2  26
ATOM     26  C   UNL d   1       3.596   1.300  -0.244  0.00  0.00     0.010 A 
ATOM     27  C   UNL d   1       3.564   2.522  -0.943  0.00  0.00     0.015 A 
ATOM     28  C   UNL d   1       4.724   3.279  -1.123  0.00  0.00     0.001 A 
ATOM     29  C   UNL d   1       5.931   2.828  -0.598  0.00  0.00     0.000 A 
ATOM     30  C   UNL d   1       5.969   1.641   0.132  0.00  0.00     0.001 A 
ATOM     31  C   UNL d   1       4.805   0.887   0.324  0.00  0.00     0.015 A 
ENDBRANCH   2  26
TORSDOF 4
