REMARK  7 active torsions:
REMARK  status: ('A' for Active; 'I' for Inactive)
REMARK    1  A    between atoms: N_6  and  C_1 
REMARK    2  A    between atoms: N_8  and  C_1 
REMARK    3  A    between atoms: C_2  and  N_6 
REMARK    4  A    between atoms: N_3  and  C_4 
REMARK    5  A    between atoms: C_5  and  O_10 
REMARK    6  A    between atoms: O_10  and  C_7 
REMARK    7  A    between atoms: C_9  and  N_8 
ROOT
ATOM      1  C   UNL d   1       0.963   0.331  -0.420  0.00  0.00     0.176 C 
ATOM      2  S   UNL d   1       2.522  -0.090  -0.855  0.00  0.00    -0.041 SA
ENDROOT
BRANCH   1   3
ATOM      3  N   UNL d   1       0.548   0.957   0.735  0.00  0.00    -0.331 N 
ATOM      4  H   UNL d   1      -0.381   0.678   1.025  0.00  0.00     0.168 HD
BRANCH   3   5
ATOM      5  C   UNL d   1       1.221   1.836   1.622  0.00  0.00     0.062 A 
ATOM      6  C   UNL d   1       0.712   2.111   2.915  0.00  0.00     0.065 A 
ATOM      7  C   UNL d   1       1.292   3.138   3.689  0.00  0.00     0.033 A 
ATOM      8  C   UNL d   1       2.374   3.872   3.211  0.00  0.00     0.009 A 
ATOM      9  C   UNL d   1       2.887   3.613   1.942  0.00  0.00    -0.060 A 
ATOM     10  C   UNL d   1       2.299   2.608   1.160  0.00  0.00     0.038 A 
ATOM     11  C   UNL d   1       4.049   4.407   1.421  0.00  0.00     0.048 C 
BRANCH   6  12
ATOM     12  N   UNL d   1      -0.350   1.373   3.517  0.00  0.00    -0.331 N 
ATOM     13  C   UNL d   1      -0.633   0.025   3.357  0.00  0.00     0.097 A 
ATOM     14  C   UNL d   1      -1.728  -0.303   4.125  0.00  0.00     0.019 A 
ATOM     15  C   UNL d   1      -2.130   0.865   4.800  0.00  0.00     0.019 A 
ATOM     16  C   UNL d   1      -1.266   1.870   4.431  0.00  0.00     0.097 A 
ENDBRANCH   6  12
ENDBRANCH   3   5
ENDBRANCH   1   3
BRANCH   1  17
ATOM     17  N   UNL d   1      -0.049  -0.123  -1.240  0.00  0.00    -0.331 N 
ATOM     18  H   UNL d   1       0.259  -0.815  -1.919  0.00  0.00     0.168 HD
BRANCH  17  19
ATOM     19  C   UNL d   1      -1.406   0.261  -1.275  0.00  0.00     0.068 A 
ATOM     20  C   UNL d   1      -2.397  -0.631  -1.719  0.00  0.00     0.106 A 
ATOM     21  C   UNL d   1      -3.724  -0.194  -1.837  0.00  0.00     0.058 A 
ATOM     22  C   UNL d   1      -4.072   1.113  -1.501  0.00  0.00     0.013 A 
ATOM     23  C   UNL d   1      -3.102   2.003  -1.061  0.00  0.00     0.021 A 
ATOM     24 BR   UNL d   1      -5.864   1.683  -1.669  0.00  0.00    -0.051 Br
ATOM     25  C   UNL d   1      -1.776   1.579  -0.955  0.00  0.00     0.034 A 
BRANCH  20  26
ATOM     26  O   UNL d   1      -2.216  -1.927  -2.108  0.00  0.00    -0.253 OA
BRANCH  26  27
ATOM     27  C   UNL d   1      -1.387  -2.766  -1.317  0.00  0.00     0.530 C 
ATOM     28  F   UNL d   1      -1.130  -2.273  -0.087  0.00  0.00    -0.144 F 
ATOM     29  F   UNL d   1      -2.001  -3.960  -1.165  0.00  0.00    -0.144 F 
ATOM     30  F   UNL d   1      -0.223  -2.966  -1.970  0.00  0.00    -0.144 F 
ENDBRANCH  26  27
ENDBRANCH  20  26
ENDBRANCH  17  19
ENDBRANCH   1  17
TORSDOF 7
