REMARK  3 active torsions:
REMARK  status: ('A' for Active; 'I' for Inactive)
REMARK    1  A    between atoms: C_13  and  C_6 
REMARK    2  A    between atoms: O_16  and  C_7 
REMARK    3  A    between atoms: S_18  and  C_17 
ROOT
ATOM      1  C   UNL d   1      -0.789  -0.385   0.018  0.00  0.00     0.052 A 
ATOM      2  C   UNL d   1      -1.199   0.958   0.026  0.00  0.00    -0.013 A 
ATOM      3  N   UNL d   1      -1.603  -1.442  -0.037  0.00  0.00    -0.335 N 
ATOM      4  HN  UNL d   1      -1.259  -2.402  -0.023  1.00  0.00     0.168 HD
ATOM      5  C   UNL d   1      -3.441   0.174  -0.131  0.00  0.00     0.107 A 
ATOM      6  C   UNL d   1      -2.562   1.286  -0.027  0.00  0.00     0.008 A 
ATOM      7  C   UNL d   1      -2.919  -1.138  -0.111  0.00  0.00     0.164 A 
ATOM      8  C   UNL d   1       0.652  -0.468   0.061  0.00  0.00    -0.002 A 
ATOM      9  C   UNL d   1       0.036   1.843   0.108  0.00  0.00     0.081 A 
ATOM     10  C   UNL d   1       1.169   0.840   0.109  0.00  0.00    -0.041 A 
ATOM     11  C   UNL d   1      -4.861   0.334  -0.287  0.00  0.00     0.104 C 
ATOM     12  N   UNL d   1      -6.004   0.486  -0.402  0.00  0.00    -0.191 NA
ATOM     13  C   UNL d   1       1.502  -1.560   0.032  0.00  0.00     0.014 A 
ATOM     14  C   UNL d   1       2.531   1.084   0.104  0.00  0.00     0.008 A 
ATOM     15  C   UNL d   1       2.881  -1.326   0.032  0.00  0.00     0.001 A 
ATOM     16  C   UNL d   1       3.390  -0.015   0.062  0.00  0.00     0.001 A 
ENDROOT
BRANCH   7  17
ATOM     17  O   UNL d   1      -3.822  -2.186  -0.163  0.00  0.00    -0.340 OA
ATOM     18  C   UNL d   1      -3.213  -3.473  -0.073  0.00  0.00     0.211 C 
ENDBRANCH   7  17
BRANCH   6  19
ATOM     19  C   UNL d   1      -3.015   2.702   0.077  0.00  0.00    -0.024 A 
ATOM     20  C   UNL d   1      -2.364   3.740  -0.607  0.00  0.00     0.013 A 
ATOM     21  C   UNL d   1      -2.683   5.088  -0.387  0.00  0.00     0.019 A 
ATOM     22  C   UNL d   1      -3.722   5.452   0.470  0.00  0.00    -0.000 A 
ATOM     23  C   UNL d   1      -4.440   4.431   1.091  0.00  0.00     0.019 A 
ATOM     24  C   UNL d   1      -4.075   3.085   0.918  0.00  0.00     0.013 A 
BRANCH  22  25
ATOM     25  S   UNL d   1      -4.003   7.201   0.697  0.00  0.00    -0.134 SA
ATOM     26  C   UNL d   1      -5.453   7.259   1.781  0.00  0.00     0.095 C 
ENDBRANCH  22  25
ENDBRANCH   6  19
TORSDOF 3
