REMARK  6 active torsions:
REMARK  status: ('A' for Active; 'I' for Inactive)
REMARK    1  A    between atoms: C_3  and  C_1 
REMARK    2  A    between atoms: C_6  and  C_1 
REMARK    3  A    between atoms: N_4  and  C_2 
REMARK    4  A    between atoms: S_13  and  C_2 
REMARK    5  A    between atoms: C_5  and  C_3 
REMARK    6  A    between atoms: N_7  and  C_6 
ROOT
ATOM      1  C   UNL d   1       0.954  -0.088   0.010  0.00  0.00     0.106 C 
ATOM      2  C   UNL d   1       0.247   0.396  -1.051  0.00  0.00     0.091 C 
ENDROOT
BRANCH   1   3
ATOM      3  C   UNL d   1       0.332  -0.797   1.175  0.00  0.00     0.175 C 
ATOM      4  O   UNL d   1      -0.743  -1.379   1.116  0.00  0.00    -0.291 OA
BRANCH   3   5
ATOM      5  C   UNL d   1       1.104  -0.800   2.464  0.00  0.00     0.061 A 
ATOM      6  C   UNL d   1       0.737  -1.742   3.589  0.00  0.00     0.013 A 
ATOM      7  C   UNL d   1       0.430  -0.278   3.712  0.00  0.00     0.013 A 
ENDBRANCH   3   5
ENDBRANCH   1   3
BRANCH   1   8
ATOM      8  C   UNL d   1       2.474  -0.088   0.010  0.00  0.00    -0.030 C 
BRANCH   8   9
ATOM      9  N   UNL d   1       3.735  -0.088   0.010  0.00  0.00    -0.365 N 
ATOM     10  HN2 UNL d   1       2.715  -0.088   0.010  1.00  0.00     0.165 HD
ATOM     11  HN1 UNL d   1       4.755  -0.088   0.010  1.00  0.00     0.165 HD
ENDBRANCH   8   9
ENDBRANCH   1   8
BRANCH   2  12
ATOM     12  N   UNL d   1      -1.148   0.504  -1.145  0.00  0.00    -0.370 N 
ATOM     13  C   UNL d   1      -2.006   1.067  -0.083  0.00  0.00     0.149 C 
ATOM     14  C   UNL d   1      -3.152   1.853  -0.739  0.00  0.00     0.187 C 
ATOM     15  O   UNL d   1      -3.938   1.006  -1.595  0.00  0.00    -0.388 OA
ATOM     16  C   UNL d   1      -3.122   0.436  -2.632  0.00  0.00     0.187 C 
ATOM     17  C   UNL d   1      -1.929  -0.355  -2.064  0.00  0.00     0.149 C 
ENDBRANCH   2  12
BRANCH   2  18
ATOM     18  S   UNL d   1       1.218   0.922  -2.470  0.00  0.00    -0.115 SA
ATOM     19  C   UNL d   1       0.220   2.264  -3.142  0.00  0.00     0.097 C 
ENDBRANCH   2  18
TORSDOF 6
