REMARK  2 active torsions:
REMARK  status: ('A' for Active; 'I' for Inactive)
REMARK    1  A    between atoms: C_2  and  C_3 
REMARK       I    between atoms: C_3  and  N_5 
REMARK    2  A    between atoms: N_5  and  C_14 
ROOT
ATOM      1  C   UNL d   1      -3.108  -2.629   1.300  0.00  0.00     0.226 C 
ATOM      2  N   UNL d   1      -2.678  -1.320   1.201  0.00  0.00    -0.355 N 
ATOM      3  O   UNL d   1      -4.232  -2.914   1.700  0.00  0.00    -0.273 OA
ATOM      4  H   UNL d   1      -1.736  -1.149   0.874  0.00  0.00     0.162 HD
ENDROOT
BRANCH   1   5
ATOM      5  C   UNL d   1      -2.081  -3.695   0.865  0.00  0.00     0.042 C 
ATOM      6  C   UNL d   1      -0.778  -3.582   1.695  0.00  0.00     0.024 C 
ATOM      7  C   UNL d   1       0.248  -4.635   1.242  0.00  0.00    -0.013 C 
ATOM      8  C   UNL d   1      -0.337  -6.038   1.457  0.00  0.00     0.009 C 
ATOM      9  C   UNL d   1       0.556  -4.435  -0.252  0.00  0.00     0.009 C 
ATOM     10  C   UNL d   1      -1.633  -6.193   0.643  0.00  0.00    -0.013 C 
ATOM     11  C   UNL d   1      -2.650  -5.123   1.083  0.00  0.00     0.024 C 
ATOM     12  C   UNL d   1      -1.312  -6.003  -0.847  0.00  0.00     0.009 C 
ATOM     13  C   UNL d   1      -0.728  -4.600  -1.082  0.00  0.00    -0.013 C 
ATOM     14  C   UNL d   1      -1.750  -3.539  -0.638  0.00  0.00     0.024 C 
ENDBRANCH   1   5
BRANCH   2  15
ATOM     15  C   UNL d   1      -3.460  -0.159   1.607  0.00  0.00     0.099 C 
ATOM     16  C   UNL d   1      -3.869  -0.157   3.078  0.00  0.00     0.165 C 
ATOM     17  S   UNL d   1      -5.050   1.172   3.186  0.00  0.00     0.146 S 
ATOM     18  O   UNL d   1      -4.330   2.386   3.521  0.00  0.00    -0.228 OA
ATOM     19  O   UNL d   1      -6.201   0.730   3.942  0.00  0.00    -0.228 OA
ATOM     20  C   UNL d   1      -5.469   1.235   1.452  0.00  0.00     0.142 C 
ATOM     21  C   UNL d   1      -4.749   0.057   0.802  0.00  0.00     0.041 C 
ENDBRANCH   2  15
TORSDOF 2
