REMARK  9 active torsions:
REMARK  status: ('A' for Active; 'I' for Inactive)
REMARK    1  A    between atoms: N_2  and  C_1 
REMARK    2  A    between atoms: C_3  and  C_1 
REMARK    3  A    between atoms: C_4  and  C_1 
REMARK    4  A    between atoms: N_5  and  C_1 
REMARK       I    between atoms: C_6  and  N_2 
REMARK    5  A    between atoms: C_17  and  N_5 
REMARK    6  A    between atoms: O_20  and  C_6 
REMARK    7  A    between atoms: C_7  and  C_8 
REMARK    8  A    between atoms: O_21  and  C_7 
REMARK    9  A    between atoms: C_24  and  O_20 
ROOT
ATOM      1  C   UNL d   1       0.897  -0.163   0.036  0.00  0.00     0.308 C 
ENDROOT
BRANCH   1   2
ATOM      2  N   UNL d   1       0.423  -1.307   0.811  0.00  0.00    -0.295 N 
ATOM      3  C   UNL d   1      -0.892  -1.525   1.015  0.00  0.00     0.362 C 
ATOM      4  O   UNL d   1      -1.766  -0.830   0.535  0.00  0.00    -0.238 OA
ATOM      5  H   UNL d   1       1.103  -1.906   1.254  0.00  0.00     0.168 HD
BRANCH   3   6
ATOM      6  O   UNL d   1      -1.040  -2.542   1.891  0.00  0.00    -0.304 OA
BRANCH   6   7
ATOM      7  C   UNL d   1      -2.341  -2.644   2.481  0.00  0.00     0.176 C 
ATOM      8  C   UNL d   1      -2.388  -1.735   3.697  0.00  0.00     0.034 C 
ENDBRANCH   6   7
ENDBRANCH   3   6
ENDBRANCH   1   2
BRANCH   1   9
ATOM      9  C   UNL d   1       0.342   1.250   0.480  0.00  0.00     0.441 C 
ATOM     10  F   UNL d   1      -0.193   1.200   1.733  0.00  0.00    -0.166 F 
ATOM     11  F   UNL d   1       1.346   2.167   0.543  0.00  0.00    -0.166 F 
ATOM     12  F   UNL d   1      -0.608   1.794  -0.303  0.00  0.00    -0.166 F 
ENDBRANCH   1   9
BRANCH   1  13
ATOM     13  C   UNL d   1       0.571  -0.327  -1.501  0.00  0.00     0.441 C 
ATOM     14  F   UNL d   1       0.047  -1.554  -1.771  0.00  0.00    -0.166 F 
ATOM     15  F   UNL d   1      -0.256   0.575  -2.053  0.00  0.00    -0.166 F 
ATOM     16  F   UNL d   1       1.729  -0.263  -2.223  0.00  0.00    -0.166 F 
ENDBRANCH   1  13
BRANCH   1  17
ATOM     17  N   UNL d   1       2.402  -0.315   0.259  0.00  0.00    -0.349 N 
ATOM     18  H   UNL d   1       2.920   0.032  -0.549  0.00  0.00     0.162 HD
BRANCH  17  19
ATOM     19  C   UNL d   1       3.063  -0.020   1.457  0.00  0.00     0.030 A 
ATOM     20  C   UNL d   1       2.432   0.096   2.694  0.00  0.00     0.030 A 
ATOM     21  C   UNL d   1       3.153   0.334   3.863  0.00  0.00     0.020 A 
ATOM     22  C   UNL d   1       4.543   0.404   3.840  0.00  0.00     0.037 A 
ATOM     23  C   UNL d   1       5.206   0.237   2.625  0.00  0.00     0.020 A 
ATOM     24  C   UNL d   1       4.469   0.008   1.452  0.00  0.00     0.030 A 
BRANCH  22  25
ATOM     25  C   UNL d   1       5.242   0.688   5.121  0.00  0.00     0.176 C 
ATOM     26  O   UNL d   1       4.736   1.343   6.013  0.00  0.00    -0.646 OA
BRANCH  25  27
ATOM     27  O   UNL d   1       6.457   0.117   5.227  0.00  0.00    -0.773 OA
ATOM     28  H   UNL d   1       6.667  -0.543   4.534  0.00  0.00     0.167 HD
ENDBRANCH  25  27
ENDBRANCH  22  25
ENDBRANCH  17  19
ENDBRANCH   1  17
TORSDOF 9
