REMARK  2 active torsions:
REMARK  status: ('A' for Active; 'I' for Inactive)
REMARK    1  A    between atoms: C_6  and  N_1 
REMARK    2  A    between atoms: N_7  and  C_6 
ROOT
ATOM      1  N   UNL d   1       0.050  -1.425   0.108  0.00  0.00    -0.319 N 
ATOM      2  C   UNL d   1       1.134  -0.560   0.051  0.00  0.00     0.047 A 
ATOM      3  C   UNL d   1       0.618   0.739   0.060  0.00  0.00     0.005 A 
ATOM      4  C   UNL d   1      -1.139  -0.713   0.097  0.00  0.00     0.047 A 
ATOM      5  C   UNL d   1      -0.807   0.641   0.071  0.00  0.00     0.003 A 
ATOM      6  C   UNL d   1       2.518  -0.803  -0.007  0.00  0.00     0.032 A 
ATOM      7  C   UNL d   1       1.512   1.832   0.032  0.00  0.00     0.033 A 
ATOM      8  C   UNL d   1       2.886   1.590  -0.004  0.00  0.00     0.011 A 
ATOM      9  C   UNL d   1       3.386   0.293  -0.027  0.00  0.00     0.021 A 
ATOM     10 BR   UNL d   1       4.086   3.053  -0.030  0.00  0.00    -0.051 Br
ATOM     11  C   UNL d   1      -2.477  -1.147   0.097  0.00  0.00     0.030 A 
ATOM     12  C   UNL d   1      -1.845   1.598   0.042  0.00  0.00     0.014 A 
ATOM     13  C   UNL d   1      -3.178   1.175   0.028  0.00  0.00     0.001 A 
ATOM     14  C   UNL d   1      -3.486  -0.180   0.054  0.00  0.00     0.002 A 
ENDROOT
BRANCH   1  15
ATOM     15  C   UNL d   1       0.132  -2.885   0.001  0.00  0.00     0.403 C 
BRANCH  15  16
ATOM     16  N   UNL d   1       0.045  -3.510   1.341  0.00  0.00     0.106 N 
ATOM     17  C   UNL d   1       1.306  -3.342   2.082  0.00  0.00     0.274 C 
ATOM     18  C   UNL d   1       1.367  -4.132   3.390  0.00  0.00     0.030 C 
ATOM     19  C   UNL d   1       1.069  -5.604   3.154  0.00  0.00     0.003 C 
ATOM     20  C   UNL d   1      -0.281  -5.735   2.468  0.00  0.00     0.030 C 
ATOM     21  C   UNL d   1      -0.311  -4.929   1.168  0.00  0.00     0.274 C 
ENDBRANCH  15  16
ENDBRANCH   1  15
TORSDOF 2
