REMARK  4 active torsions:
REMARK  status: ('A' for Active; 'I' for Inactive)
REMARK    1  A    between atoms: C_8  and  C_4 
REMARK    2  A    between atoms: N_6  and  C_9 
REMARK    3  A    between atoms: C_14  and  N_10 
REMARK    4  A    between atoms: C_17  and  C_14 
ROOT
ATOM      1  C   UNL d   1      -3.397  -2.389  -0.173  0.00  0.00    -0.009 A 
ATOM      2  C   UNL d   1      -3.898  -1.375  -1.040  0.00  0.00     0.040 A 
ATOM      3  C   UNL d   1      -4.212  -2.962   0.825  0.00  0.00     0.014 A 
ATOM      4  C   UNL d   1      -5.245  -1.005  -0.836  0.00  0.00     0.030 A 
ATOM      5  C   UNL d   1      -5.527  -2.549   0.998  0.00  0.00     0.001 A 
ATOM      6  C   UNL d   1      -6.046  -1.572   0.163  0.00  0.00     0.002 A 
ENDROOT
BRANCH   2   7
ATOM      7  N   UNL d   1      -3.140  -0.719  -2.004  0.00  0.00    -0.377 N 
ATOM      8  C   UNL d   1      -2.160  -1.400  -2.866  0.00  0.00     0.153 C 
ATOM      9  C   UNL d   1      -0.892  -0.522  -2.967  0.00  0.00     0.292 C 
ATOM     10  N   UNL d   1      -1.128   0.832  -3.530  0.00  0.00     0.095 N 
ATOM     11  C   UNL d   1      -2.212   1.474  -2.747  0.00  0.00     0.292 C 
ATOM     12  C   UNL d   1      -3.493   0.626  -2.502  0.00  0.00     0.153 C 
BRANCH  10  13
ATOM     13  C   UNL d   1      -1.452   0.803  -4.966  0.00  0.00     0.311 C 
BRANCH  13  14
ATOM     14  C   UNL d   1      -0.367   0.172  -5.815  0.00  0.00    -0.030 A 
ATOM     15  C   UNL d   1      -0.629  -0.989  -6.558  0.00  0.00     0.009 A 
ATOM     16  C   UNL d   1       0.381  -1.592  -7.309  0.00  0.00     0.001 A 
ATOM     17  C   UNL d   1       1.661  -1.042  -7.328  0.00  0.00     0.000 A 
ATOM     18  C   UNL d   1       1.934   0.113  -6.596  0.00  0.00     0.001 A 
ATOM     19  C   UNL d   1       0.925   0.718  -5.845  0.00  0.00     0.009 A 
ENDBRANCH  13  14
ENDBRANCH  10  13
ENDBRANCH   2   7
BRANCH   1  20
ATOM     20  C   UNL d   1      -2.016  -2.890  -0.205  0.00  0.00     0.031 C 
ATOM     21  C   UNL d   1      -0.943  -2.270   0.306  0.00  0.00     0.045 A 
ATOM     22  C   UNL d   1       0.436  -2.728  -0.086  0.00  0.00     0.257 A 
ATOM     23  C   UNL d   1      -0.793  -1.048   1.093  0.00  0.00     0.006 A 
ATOM     24  N   UNL d   1       1.284  -1.736   0.387  0.00  0.00    -0.322 N 
ATOM     25  O   UNL d   1       0.739  -3.716  -0.724  0.00  0.00    -0.267 OA
ATOM     26  C   UNL d   1       0.576  -0.755   1.076  0.00  0.00     0.046 A 
ATOM     27  H   UNL d   1       2.279  -1.752   0.238  0.00  0.00     0.169 HD
ATOM     28  C   UNL d   1       1.100   0.364   1.693  0.00  0.00     0.030 A 
ATOM     29  C   UNL d   1       0.212   1.188   2.387  0.00  0.00     0.002 A 
ATOM     30  C   UNL d   1      -1.157   0.874   2.456  0.00  0.00     0.001 A 
ATOM     31  C   UNL d   1      -1.671  -0.252   1.802  0.00  0.00     0.015 A 
ENDBRANCH   1  20
TORSDOF 4
