REMARK  3 active torsions:
REMARK  status: ('A' for Active; 'I' for Inactive)
REMARK    1  A    between atoms: N_10  and  C_3 
REMARK    2  A    between atoms: N_16  and  C_6 
REMARK    3  A    between atoms: C_13  and  N_10 
ROOT
ATOM      1  N   UNL d   1      -0.082  -1.242   0.049  0.00  0.00    -0.166 N 
ATOM      2  HN  UNL d   1      -0.512  -2.166   0.079  1.00  0.00     0.187 HD
ATOM      3  C   UNL d   1      -0.812  -0.132  -0.024  0.00  0.00     0.685 A 
ATOM      4  N   UNL d   1      -0.288   1.088  -0.093  0.00  0.00    -0.188 N 
ATOM      5  HN  UNL d   1      -0.861   1.929  -0.167  1.00  0.00     0.185 HD
ATOM      6  C   UNL d   1       1.229  -1.084   0.080  0.00  0.00     0.170 A 
ATOM      7  N   UNL d   1       1.853   0.078   0.017  0.00  0.00    -0.328 N 
ATOM      8  HN  UNL d   1       2.869   0.164   0.026  1.00  0.00     0.169 HD
ATOM      9  C   UNL d   1       1.041   1.125  -0.058  0.00  0.00     0.200 A 
ENDROOT
BRANCH   3  10
ATOM     10  N   UNL d   1      -2.203  -0.207  -0.084  0.00  0.00    -0.192 N 
ATOM     11  H   UNL d   1      -2.600   0.708  -0.244  0.00  0.00     0.184 HD
BRANCH  10  12
ATOM     12  C   UNL d   1      -3.087  -1.276   0.116  0.00  0.00     0.051 A 
ATOM     13  C   UNL d   1      -2.710  -2.470   0.748  0.00  0.00     0.057 A 
ATOM     14  C   UNL d   1      -3.597  -3.543   0.850  0.00  0.00     0.074 A 
ATOM     15 CL   UNL d   1      -3.090  -4.988   1.639  0.00  0.00    -0.081 Cl
ATOM     16  C   UNL d   1      -4.873  -3.439   0.310  0.00  0.00     0.138 A 
ATOM     17  C   UNL d   1      -5.273  -2.269  -0.325  0.00  0.00     0.046 A 
ATOM     18  F   UNL d   1      -5.737  -4.462   0.385  0.00  0.00    -0.204 F 
ATOM     19  C   UNL d   1      -4.383  -1.195  -0.421  0.00  0.00     0.033 A 
ENDBRANCH  10  12
ENDBRANCH   3  10
BRANCH   6  20
ATOM     20  N   UNL d   1       1.997  -2.229   0.144  0.00  0.00    -0.273 NA
ATOM     21  H   UNL d   1       1.474  -3.018  -0.210  0.00  0.00     0.127 HD
ATOM     22  H   UNL d   1       2.912  -2.066  -0.252  0.00  0.00     0.127 HD
ENDBRANCH   6  20
TORSDOF 3
