REMARK  2 active torsions:
REMARK  status: ('A' for Active; 'I' for Inactive)
REMARK    1  A    between atoms: N_3  and  C_1 
REMARK       I    between atoms: C_4  and  N_3 
REMARK    2  A    between atoms: C_7  and  C_4 
ROOT
ATOM      1  C   UNL d   1       0.869   3.116   0.148  0.00  0.00     0.097 A 
ATOM      2  C   UNL d   1       2.172   2.657   0.090  0.00  0.00     0.079 A 
ATOM      3  C   UNL d   1       2.525   1.276  -0.044  0.00  0.00     0.102 C 
ATOM      4  S   UNL d   1       0.823   4.815   0.305  0.00  0.00    -0.083 SA
ATOM      5  N   UNL d   1       2.784   0.150  -0.153  0.00  0.00    -0.191 NA
ATOM      6  C   UNL d   1       3.128   3.717   0.155  0.00  0.00     0.033 A 
ATOM      7  C   UNL d   1       2.523   4.949   0.273  0.00  0.00     0.053 A 
ENDROOT
BRANCH   1   8
ATOM      8  N   UNL d   1      -0.301   2.363   0.146  0.00  0.00    -0.316 N 
ATOM      9  C   UNL d   1      -1.581   2.859  -0.049  0.00  0.00     0.256 C 
ATOM     10  O   UNL d   1      -1.897   3.996  -0.377  0.00  0.00    -0.267 OA
ATOM     11  H   UNL d   1      -0.196   1.355   0.169  0.00  0.00     0.169 HD
BRANCH   9  12
ATOM     12  C   UNL d   1      -2.670   1.852   0.085  0.00  0.00     0.033 A 
ATOM     13  C   UNL d   1      -3.762   1.941  -0.793  0.00  0.00     0.027 A 
ATOM     14  C   UNL d   1      -4.782   1.015  -0.669  0.00  0.00    -0.022 A 
ATOM     15  C   UNL d   1      -5.997   0.839  -1.494  0.00  0.00     0.068 C 
ATOM     16  C   UNL d   1      -4.731   0.027   0.299  0.00  0.00     0.075 A 
ATOM     17  C   UNL d   1      -6.728  -0.207  -0.649  0.00  0.00     0.180 C 
ATOM     18  O   UNL d   1      -5.801  -0.826   0.275  0.00  0.00    -0.350 OA
ATOM     19  C   UNL d   1      -3.675  -0.076   1.184  0.00  0.00     0.038 A 
ATOM     20  C   UNL d   1      -2.633   0.852   1.079  0.00  0.00     0.020 A 
ENDBRANCH   9  12
ENDBRANCH   1   8
TORSDOF 2
