REMARK  7 active torsions:
REMARK  status: ('A' for Active; 'I' for Inactive)
REMARK       I    between atoms: N_2  and  C_1 
REMARK       I    between atoms: N_8  and  C_1 
REMARK    1  A    between atoms: C_3  and  N_2 
REMARK    2  A    between atoms: C_4  and  C_12 
REMARK    3  A    between atoms: O_11  and  C_7 
REMARK    4  A    between atoms: C_16  and  N_8 
REMARK    5  A    between atoms: S_10  and  C_18 
REMARK    6  A    between atoms: C_12  and  S_10 
REMARK    7  A    between atoms: C_18  and  C_16 
ROOT
ATOM      1  C   UNL d   1       1.356   0.197   1.628  0.00  0.00     0.320 C 
ATOM      2  N   UNL d   1       0.954   1.408   2.099  0.00  0.00    -0.306 N 
ATOM      3  O   UNL d   1       0.747  -0.866   1.819  0.00  0.00    -0.247 OA
ATOM      4  N   UNL d   1       2.482   0.173   0.877  0.00  0.00    -0.342 N 
ATOM      5  H   UNL d   1       1.218   2.226   1.553  0.00  0.00     0.171 HD
ATOM      6  H   UNL d   1       2.668  -0.742   0.488  0.00  0.00     0.164 HD
ENDROOT
BRANCH   4   7
ATOM      7  C   UNL d   1       3.399   1.247   0.519  0.00  0.00     0.134 C 
BRANCH   7   8
ATOM      8  C   UNL d   1       4.795   0.729   0.152  0.00  0.00     0.094 C 
BRANCH   8   9
ATOM      9  S   UNL d   1       4.818  -0.425  -1.279  0.00  0.00    -0.163 SA
BRANCH   9  10
ATOM     10  C   UNL d   1       4.250   0.698  -2.597  0.00  0.00     0.114 C 
BRANCH  10  11
ATOM     11  C   UNL d   1       4.012  -0.011  -3.909  0.00  0.00    -0.027 A 
ATOM     12  C   UNL d   1       4.929   0.002  -4.972  0.00  0.00     0.041 A 
ATOM     13 CL   UNL d   1       6.457   0.798  -4.856  0.00  0.00    -0.084 Cl
ATOM     14  C   UNL d   1       4.621  -0.628  -6.185  0.00  0.00     0.024 A 
ATOM     15  C   UNL d   1       3.406  -1.293  -6.347  0.00  0.00     0.002 A 
ATOM     16  C   UNL d   1       2.495  -1.333  -5.296  0.00  0.00     0.001 A 
ATOM     17  C   UNL d   1       2.795  -0.698  -4.090  0.00  0.00     0.009 A 
ENDBRANCH  10  11
ENDBRANCH   9  10
ENDBRANCH   8   9
ENDBRANCH   7   8
ENDBRANCH   4   7
BRANCH   2  18
ATOM     18  C   UNL d   1      -0.138   1.595   2.990  0.00  0.00     0.069 A 
ATOM     19  C   UNL d   1      -1.058   2.641   2.827  0.00  0.00     0.095 A 
ATOM     20  C   UNL d   1      -1.947   2.946   3.870  0.00  0.00     0.039 A 
ATOM     21  C   UNL d   1      -1.929   2.218   5.064  0.00  0.00     0.003 A 
ATOM     22  C   UNL d   1      -1.052   1.145   5.202  0.00  0.00     0.002 A 
ATOM     23  C   UNL d   1      -0.176   0.823   4.164  0.00  0.00     0.032 A 
BRANCH  19  24
ATOM     24  O   UNL d   1      -1.167   3.476   1.743  0.00  0.00    -0.354 OA
ATOM     25  C   UNL d   1      -1.067   2.879   0.454  0.00  0.00     0.210 C 
ENDBRANCH  19  24
ENDBRANCH   2  18
TORSDOF 7
