REMARK  1 active torsions:
REMARK  status: ('A' for Active; 'I' for Inactive)
REMARK    1  A    between atoms: C_6  and  N_1 
ROOT
ATOM      1  N   UNL d   1      -1.205   0.016  -0.342  0.00  0.00    -0.245 N 
ATOM      2  C   UNL d   1      -0.406   1.127  -0.344  0.00  0.00     0.255 A 
ATOM      3  C   UNL d   1      -0.433  -1.098  -0.143  0.00  0.00     0.261 A 
ATOM      4  C   UNL d   1       0.972  -0.653  -0.083  0.00  0.00     0.012 A 
ATOM      5  C   UNL d   1       0.979   0.676  -0.177  0.00  0.00     0.087 A 
ATOM      6  O   UNL d   1      -0.678   2.312  -0.430  0.00  0.00    -0.268 OA
ATOM      7  O   UNL d   1      -0.743  -2.276  -0.071  0.00  0.00    -0.267 OA
ATOM      8  C   UNL d   1       2.125  -1.575   0.014  0.00  0.00     0.054 C 
ENDROOT
BRANCH   1   9
ATOM      9  C   UNL d   1      -2.609   0.014  -0.566  0.00  0.00     0.046 A 
ATOM     10  C   UNL d   1      -3.233   1.080  -1.239  0.00  0.00     0.033 A 
ATOM     11  C   UNL d   1      -4.601   1.054  -1.526  0.00  0.00     0.044 A 
ATOM     12  C   UNL d   1      -5.367  -0.027  -1.120  0.00  0.00     0.116 A 
ATOM     13  C   UNL d   1      -4.789  -1.082  -0.431  0.00  0.00     0.044 A 
ATOM     14  F   UNL d   1      -6.676  -0.055  -1.400  0.00  0.00    -0.206 F 
ATOM     15  C   UNL d   1      -3.415  -1.065  -0.162  0.00  0.00     0.033 A 
ENDBRANCH   1   9
TORSDOF 1
