REMARK  6 active torsions:
REMARK  status: ('A' for Active; 'I' for Inactive)
REMARK    1  A    between atoms: C_6  and  C_1 
REMARK    2  A    between atoms: C_7  and  N_2 
REMARK    3  A    between atoms: C_8  and  C_4 
REMARK    4  A    between atoms: O_13  and  C_6 
REMARK    5  A    between atoms: C_20  and  O_13 
REMARK    6  A    between atoms: N_15  and  C_14 
ROOT
ATOM      1  C   UNL d   1      -0.319   1.182  -0.022  0.00  0.00     0.064 A 
ATOM      2  N   UNL d   1       1.024  -0.647   0.001  0.00  0.00    -0.314 N 
ATOM      3  C   UNL d   1       1.006   0.755   0.014  0.00  0.00     0.030 A 
ATOM      4  C   UNL d   1      -0.306  -1.105  -0.033  0.00  0.00     0.051 A 
ATOM      5  C   UNL d   1      -1.121   0.015  -0.070  0.00  0.00     0.050 A 
ATOM      6  C   UNL d   1       2.216   1.620   0.175  0.00  0.00     0.070 C 
ENDROOT
BRANCH   2   7
ATOM      7  C   UNL d   1       2.199  -1.461   0.048  0.00  0.00     0.040 A 
ATOM      8  C   UNL d   1       2.244  -2.601   0.856  0.00  0.00     0.032 A 
ATOM      9  C   UNL d   1       3.356  -3.450   0.813  0.00  0.00     0.025 A 
ATOM     10  C   UNL d   1       4.466  -3.135   0.028  0.00  0.00     0.005 A 
ATOM     11  C   UNL d   1       4.410  -2.001  -0.785  0.00  0.00     0.025 A 
ATOM     12  C   UNL d   1       3.292  -1.159  -0.771  0.00  0.00     0.032 A 
BRANCH  10  13
ATOM     13  N   UNL d   1       5.504  -4.061  -0.126  0.00  0.00    -0.303 NA
ATOM     14  H   UNL d   1       6.382  -3.647  -0.422  0.00  0.00     0.124 HD
ATOM     15  H   UNL d   1       5.619  -4.686   0.665  0.00  0.00     0.124 HD
ENDBRANCH  10  13
ENDBRANCH   2   7
BRANCH   4  16
ATOM     16  C   UNL d   1      -0.761  -2.509  -0.053  0.00  0.00    -0.009 A 
ATOM     17  C   UNL d   1      -0.168  -3.476  -0.875  0.00  0.00     0.014 A 
ATOM     18  C   UNL d   1      -0.540  -4.821  -0.780  0.00  0.00     0.001 A 
ATOM     19  C   UNL d   1      -1.552  -5.206   0.095  0.00  0.00     0.000 A 
ATOM     20  C   UNL d   1      -2.204  -4.246   0.864  0.00  0.00     0.001 A 
ATOM     21  C   UNL d   1      -1.809  -2.907   0.792  0.00  0.00     0.014 A 
ENDBRANCH   4  16
BRANCH   1  22
ATOM     22  C   UNL d   1      -0.778   2.572   0.058  0.00  0.00     0.295 C 
ATOM     23  O   UNL d   1      -0.026   3.538   0.051  0.00  0.00    -0.259 OA
BRANCH  22  24
ATOM     24  O   UNL d   1      -2.129   2.650   0.233  0.00  0.00    -0.318 OA
BRANCH  24  25
ATOM     25  C   UNL d   1      -2.620   3.921   0.684  0.00  0.00     0.174 C 
ATOM     26  C   UNL d   1      -2.652   3.910   2.201  0.00  0.00     0.034 C 
ENDBRANCH  24  25
ENDBRANCH  22  24
ENDBRANCH   1  22
TORSDOF 6
