REMARK  4 active torsions:
REMARK  status: ('A' for Active; 'I' for Inactive)
REMARK    1  A    between atoms: C_3  and  C_1 
REMARK       I    between atoms: C_2  and  N_5 
REMARK    2  A    between atoms: C_4  and  C_2 
REMARK    3  A    between atoms: N_5  and  C_7 
REMARK    4  A    between atoms: O_18  and  C_10 
ROOT
ATOM      1  C   UNL d   1       0.212   1.089  -0.158  0.00  0.00     0.071 A 
ATOM      2  C   UNL d   1       1.617   1.169  -0.171  0.00  0.00     0.050 A 
ATOM      3  C   UNL d   1       2.434   0.023  -0.115  0.00  0.00     0.069 A 
ATOM      4  C   UNL d   1      -0.370  -0.172  -0.059  0.00  0.00     0.051 A 
ATOM      5  C   UNL d   1       0.432  -1.317  -0.033  0.00  0.00     0.063 A 
ATOM      6  C   UNL d   1       1.834  -1.244  -0.083  0.00  0.00     0.096 A 
ATOM      7 CL   UNL d   1      -2.079  -0.391   0.040  0.00  0.00    -0.083 Cl
ENDROOT
BRANCH   3   8
ATOM      8  N   UNL d   1       3.830   0.209  -0.134  0.00  0.00    -0.320 N 
ATOM      9  C   UNL d   1       4.494   1.147   0.635  0.00  0.00     0.258 C 
ATOM     10  O   UNL d   1       3.960   1.951   1.397  0.00  0.00    -0.267 OA
ATOM     11  H   UNL d   1       4.393  -0.505  -0.569  0.00  0.00     0.169 HD
BRANCH   9  12
ATOM     12  C   UNL d   1       5.976   1.033   0.642  0.00  0.00     0.054 A 
ATOM     13  C   UNL d   1       6.749   0.829  -0.507  0.00  0.00     0.049 A 
ATOM     14 CL   UNL d   1       6.081   0.782  -2.099  0.00  0.00    -0.083 Cl
ATOM     15  C   UNL d   1       8.135   0.671  -0.394  0.00  0.00     0.025 A 
ATOM     16  C   UNL d   1       8.754   0.729   0.857  0.00  0.00     0.002 A 
ATOM     17  C   UNL d   1       7.992   0.954   2.000  0.00  0.00     0.001 A 
ATOM     18  C   UNL d   1       6.609   1.111   1.895  0.00  0.00     0.019 A 
ENDBRANCH   9  12
ENDBRANCH   3   8
BRANCH   6  19
ATOM     19  O   UNL d   1       2.392  -2.491  -0.040  0.00  0.00    -0.354 OA
ATOM     20  C   UNL d   1       3.783  -2.679   0.141  0.00  0.00     0.210 C 
ENDBRANCH   6  19
BRANCH   1  21
ATOM     21  C   UNL d   1      -0.617   2.340  -0.247  0.00  0.00     0.419 C 
ATOM     22  F   UNL d   1       0.127   3.471  -0.422  0.00  0.00    -0.166 F 
ATOM     23  F   UNL d   1      -1.489   2.326  -1.294  0.00  0.00    -0.166 F 
ATOM     24  F   UNL d   1      -1.363   2.566   0.869  0.00  0.00    -0.166 F 
ENDBRANCH   1  21
TORSDOF 4
