REMARK  4 active torsions:
REMARK  status: ('A' for Active; 'I' for Inactive)
REMARK    1  A    between atoms: C_7  and  N_1 
REMARK    2  A    between atoms: S_10  and  C_2 
REMARK    3  A    between atoms: C_9  and  C_12 
REMARK    4  A    between atoms: C_12  and  S_10 
ROOT
ATOM      1  N   UNL d   1       2.386  -0.735  -0.019  0.00  0.00    -0.255 N 
ATOM      2  C   UNL d   1       2.355   0.659  -0.137  0.00  0.00     0.155 A 
ATOM      3  C   UNL d   1       1.197  -1.464   0.120  0.00  0.00     0.267 A 
ATOM      4  N   UNL d   1       1.265   1.357  -0.123  0.00  0.00    -0.335 N 
ATOM      5  HN  UNL d   1       1.300   2.375  -0.180  1.00  0.00     0.168 HD
ATOM      6  C   UNL d   1      -0.050  -0.696   0.071  0.00  0.00     0.059 A 
ATOM      7  C   UNL d   1       0.038   0.689  -0.029  0.00  0.00     0.049 A 
ATOM      8  O   UNL d   1       1.122  -2.686   0.248  0.00  0.00    -0.267 OA
ATOM      9  C   UNL d   1      -1.290  -1.350   0.098  0.00  0.00     0.019 A 
ATOM     10  C   UNL d   1      -1.147   1.426  -0.066  0.00  0.00     0.030 A 
ATOM     11  C   UNL d   1      -2.464  -0.604   0.038  0.00  0.00     0.001 A 
ATOM     12  C   UNL d   1      -2.393   0.786  -0.035  0.00  0.00     0.002 A 
ENDROOT
BRANCH   2  13
ATOM     13  S   UNL d   1       3.876   1.525  -0.280  0.00  0.00    -0.088 SA
BRANCH  13  14
ATOM     14  C   UNL d   1       3.554   3.117   0.522  0.00  0.00     0.126 C 
BRANCH  14  15
ATOM     15  C   UNL d   1       3.367   3.070   2.017  0.00  0.00     0.012 A 
ATOM     16  C   UNL d   1       2.212   3.651   2.563  0.00  0.00     0.125 A 
ATOM     17  F   UNL d   1       1.332   4.269   1.763  0.00  0.00    -0.205 F 
ATOM     18  C   UNL d   1       1.950   3.638   3.932  0.00  0.00     0.043 A 
ATOM     19  C   UNL d   1       2.852   3.035   4.801  0.00  0.00     0.005 A 
ATOM     20  C   UNL d   1       4.033   2.499   4.295  0.00  0.00     0.024 A 
ATOM     21  C   UNL d   1       4.303   2.541   2.920  0.00  0.00     0.044 A 
ATOM     22 CL   UNL d   1       5.858   1.967   2.426  0.00  0.00    -0.084 Cl
ENDBRANCH  14  15
ENDBRANCH  13  14
ENDBRANCH   2  13
BRANCH   1  23
ATOM     23  C   UNL d   1       3.586  -1.515  -0.091  0.00  0.00     0.083 A 
ATOM     24  C   UNL d   1       4.385  -1.517  -1.243  0.00  0.00     0.146 A 
ATOM     25  C   UNL d   1       5.498  -2.346  -1.350  0.00  0.00     0.086 A 
ATOM     26  F   UNL d   1       4.044  -0.771  -2.306  0.00  0.00    -0.204 F 
ATOM     27  C   UNL d   1       5.805  -3.200  -0.301  0.00  0.00     0.119 A 
ATOM     28  C   UNL d   1       5.022  -3.238   0.848  0.00  0.00     0.045 A 
ATOM     29  F   UNL d   1       6.857  -4.022  -0.406  0.00  0.00    -0.206 F 
ATOM     30  C   UNL d   1       3.911  -2.398   0.952  0.00  0.00     0.036 A 
ENDBRANCH   1  23
TORSDOF 4
