REMARK  0 active torsions:
REMARK  status: ('A' for Active; 'I' for Inactive)
ROOT
ATOM      1  C   UNL d   1       1.840  -0.445  -0.632  0.00  0.00     0.217 C 
ATOM      2  C   UNL d   1       2.542   2.166  -3.634  0.00  0.00     0.217 A 
ATOM      3  N   UNL d   1       3.628   1.827  -2.670  0.00  0.00    -0.303 N 
ATOM      4  N   UNL d   1       3.213  -0.317  -1.217  0.00  0.00    -0.303 N 
ATOM      5  CA  UNL d   1       4.016   0.700  -0.524  0.00  0.00     0.200 C 
ATOM      6  CA  UNL d   1       4.426   0.691  -3.150  0.00  0.00     0.200 C 
ATOM      7  C   UNL d   1       3.602   2.017  -1.274  0.00  0.00     0.247 C 
ATOM      8  C   UNL d   1       3.604  -0.554  -2.565  0.00  0.00     0.247 C 
ATOM      9  S   UNL d   1       2.205  -0.135   1.259  0.00  0.00    -0.109 SA
ATOM     10  S   UNL d   1       3.494   2.182  -5.241  0.00  0.00    -0.109 SA
ATOM     11  C   UNL d   1       0.815   0.708  -0.837  0.00  0.00     0.207 C 
ATOM     12  C   UNL d   1       0.885  -1.669  -0.635  0.00  0.00     0.207 C 
ATOM     13  C   UNL d   1       1.491   1.054  -3.955  0.00  0.00     0.207 A 
ATOM     14  C   UNL d   1       1.629   3.412  -3.518  0.00  0.00     0.207 A 
ATOM     15  C   UNL d   1       3.902   0.433   0.977  0.00  0.00     0.033 C 
ATOM     16  C   UNL d   1       4.819   1.065  -4.595  0.00  0.00     0.033 C 
ATOM     17  C   UNL d   1      -0.505  -1.173  -0.500  0.00  0.00     0.028 A 
ATOM     18  C   UNL d   1      -0.526   0.217  -0.568  0.00  0.00     0.028 A 
ATOM     19  C   UNL d   1       0.160   1.608  -3.917  0.00  0.00     0.028 A 
ATOM     20  C   UNL d   1       0.215   2.957  -3.618  0.00  0.00     0.028 A 
ATOM     21  O   UNL d   1       3.405   3.096  -0.738  0.00  0.00    -0.271 OA
ATOM     22  O   UNL d   1       3.493  -1.648  -3.100  0.00  0.00    -0.271 OA
ATOM     23  O   UNL d   1       1.173  -2.852  -0.628  0.00  0.00    -0.288 OA
ATOM     24  O   UNL d   1       1.646  -0.120  -4.232  0.00  0.00    -0.288 OA
ATOM     25  O   UNL d   1       1.002   1.882  -1.096  0.00  0.00    -0.288 OA
ATOM     26  O   UNL d   1       1.943   4.583  -3.389  0.00  0.00    -0.288 OA
ATOM     27  C   UNL d   1       6.069   1.988  -4.542  0.00  0.00     0.029 C 
ATOM     28  C   UNL d   1       5.109  -0.107  -5.515  0.00  0.00     0.029 C 
ATOM     29  C   UNL d   1       4.776  -0.791   1.347  0.00  0.00     0.029 C 
ATOM     30  C   UNL d   1       4.289   1.613   1.854  0.00  0.00     0.029 C 
ATOM     31  C   UNL d   1      -1.682  -1.845  -0.220  0.00  0.00     0.016 A 
ATOM     32  C   UNL d   1      -1.648   0.984  -0.314  0.00  0.00     0.016 A 
ATOM     33  C   UNL d   1      -1.013   0.869  -4.005  0.00  0.00     0.016 A 
ATOM     34  C   UNL d   1      -0.965   3.628  -3.349  0.00  0.00     0.016 A 
ATOM     35  C   UNL d   1      -2.827   0.315  -0.015  0.00  0.00     0.001 A 
ATOM     36  C   UNL d   1      -2.847  -1.091   0.019  0.00  0.00     0.001 A 
ATOM     37  C   UNL d   1      -2.199   1.534  -3.730  0.00  0.00     0.001 A 
ATOM     38  C   UNL d   1      -2.172   2.900  -3.395  0.00  0.00     0.001 A 
ENDROOT
TORSDOF 0
