REMARK  4 active torsions:
REMARK  status: ('A' for Active; 'I' for Inactive)
REMARK    1  A    between atoms: C_4  and  C_1 
REMARK    2  A    between atoms: C_2  and  C_4 
REMARK    3  A    between atoms: N_8  and  C_2 
REMARK    4  A    between atoms: O_9  and  N_5 
ROOT
ATOM      1  C   UNL d   1       4.622  -5.039   0.067  0.00  0.00    -0.041 A 
ATOM      2  C   UNL d   1       5.085  -6.385   0.109  0.00  0.00    -0.019 A 
ATOM      3  C   UNL d   1       6.483  -6.627   0.052  0.00  0.00    -0.025 A 
ATOM      4  C   UNL d   1       5.554  -3.985   0.024  0.00  0.00     0.008 A 
ATOM      5  C   UNL d   1       6.921  -4.239  -0.019  0.00  0.00     0.001 A 
ATOM      6  C   UNL d   1       4.233  -7.510   0.189  0.00  0.00     0.013 A 
ATOM      7  C   UNL d   1       7.380  -5.552  -0.016  0.00  0.00     0.012 A 
ATOM      8  C   UNL d   1       6.974  -7.943   0.056  0.00  0.00     0.012 A 
ATOM      9  C   UNL d   1       4.736  -8.814   0.194  0.00  0.00     0.001 A 
ATOM     10  C   UNL d   1       6.106  -9.030   0.124  0.00  0.00     0.001 A 
ENDROOT
BRANCH   1  11
ATOM     11  C   UNL d   1       3.150  -4.676   0.023  0.00  0.00     0.111 C 
BRANCH  11  12
ATOM     12  C   UNL d   1       2.450  -4.537   1.370  0.00  0.00     0.079 C 
ATOM     13  N   UNL d   1       1.174  -4.798   1.398  0.00  0.00    -0.262 N 
ATOM     14  HN  UNL d   1       0.630  -5.114   0.596  1.00  0.00     0.195 HD
BRANCH  13  15
ATOM     15  O   UNL d   1       0.649  -4.586   2.685  0.00  0.00    -0.289 OA
ATOM     16  H   UNL d   1      -0.310  -4.678   2.530  0.00  0.00     0.244 HD
ENDBRANCH  13  15
BRANCH  12  17
ATOM     17  N   UNL d   1       3.143  -4.086   2.467  0.00  0.00    -0.290 NA
ATOM     18  H   UNL d   1       4.100  -4.407   2.543  0.00  0.00     0.125 HD
ATOM     19  H   UNL d   1       2.599  -4.228   3.314  0.00  0.00     0.125 HD
ENDBRANCH  12  17
ENDBRANCH  11  12
ENDBRANCH   1  11
TORSDOF 4
