REMARK  1 active torsions:
REMARK  status: ('A' for Active; 'I' for Inactive)
REMARK    1  A    between atoms: C_10  and  C_5 
ROOT
ATOM      1  N   UNL d   1       1.421  -0.609  -0.014  0.00  0.00    -0.347 N 
ATOM      2  HN  UNL d   1       2.304  -1.120  -0.002  1.00  0.00     0.167 HD
ATOM      3  C   UNL d   1       0.226  -1.165  -0.032  0.00  0.00     0.111 A 
ATOM      4  C   UNL d   1       0.032  -2.586  -0.004  0.00  0.00     0.134 A 
ATOM      5  C   UNL d   1       1.302   0.773  -0.015  0.00  0.00     0.050 A 
ATOM      6  S   UNL d   1      -1.096  -0.071  -0.085  0.00  0.00    -0.079 SA
ATOM      7  C   UNL d   1       0.003   1.243  -0.060  0.00  0.00     0.082 A 
ATOM      8  N   UNL d   1      -1.063  -4.563  -0.013  0.00  0.00    -0.272 N 
ATOM      9  HN  UNL d   1      -1.807  -5.260  -0.043  1.00  0.00     0.194 HD
ATOM     10  O   UNL d   1      -1.199  -3.187  -0.072  0.00  0.00    -0.236 OA
ATOM     11  C   UNL d   1       0.980  -3.585   0.101  0.00  0.00     0.061 A 
ATOM     12  C   UNL d   1       0.248  -4.781   0.092  0.00  0.00     0.117 A 
ENDROOT
BRANCH   5  13
ATOM     13  C   UNL d   1       2.479   1.634   0.003  0.00  0.00    -0.007 A 
ATOM     14  C   UNL d   1       3.673   1.186  -0.581  0.00  0.00     0.039 A 
ATOM     15  C   UNL d   1       4.812   1.999  -0.592  0.00  0.00     0.056 A 
ATOM     16 CL   UNL d   1       6.235   1.380  -1.352  0.00  0.00    -0.083 Cl
ATOM     17  C   UNL d   1       4.770   3.269  -0.007  0.00  0.00     0.055 A 
ATOM     18  C   UNL d   1       3.589   3.717   0.590  0.00  0.00     0.026 A 
ATOM     19 CL   UNL d   1       6.133   4.329   0.015  0.00  0.00    -0.083 Cl
ATOM     20  C   UNL d   1       2.451   2.904   0.596  0.00  0.00     0.015 A 
ENDBRANCH   5  13
TORSDOF 1
