REMARK  3 active torsions:
REMARK  status: ('A' for Active; 'I' for Inactive)
REMARK    1  A    between atoms: C_7  and  C_1 
REMARK       I    between atoms: C_6  and  N_8 
REMARK       I    between atoms: N_9  and  C_6 
REMARK    2  A    between atoms: N_8  and  C_7 
REMARK    3  A    between atoms: C_11  and  N_9 
ROOT
ATOM      1  C   UNL d   1       3.452  -4.042  -0.573  0.00  0.00     0.320 C 
ATOM      2  N   UNL d   1       3.080  -2.878   0.059  0.00  0.00    -0.339 N 
ATOM      3  N   UNL d   1       4.817  -4.187  -0.671  0.00  0.00    -0.309 N 
ATOM      4  O   UNL d   1       2.614  -4.810  -1.034  0.00  0.00    -0.247 OA
ATOM      5  H   UNL d   1       3.748  -2.369   0.614  0.00  0.00     0.164 HD
ATOM      6  H   UNL d   1       5.377  -3.603  -0.072  0.00  0.00     0.170 HD
ENDROOT
BRANCH   2   7
ATOM      7  C   UNL d   1       1.675  -2.553   0.205  0.00  0.00     0.166 C 
BRANCH   7   8
ATOM      8  C   UNL d   1       1.486  -1.076   0.194  0.00  0.00     0.002 A 
ATOM      9  C   UNL d   1       0.849  -0.284   1.141  0.00  0.00     0.058 A 
ATOM     10  O   UNL d   1       0.830   1.019   0.743  0.00  0.00    -0.314 OA
ATOM     11  C   UNL d   1       0.189  -0.541   2.439  0.00  0.00     0.077 C 
ATOM     12  C   UNL d   1       1.443   1.084  -0.467  0.00  0.00     0.086 A 
ATOM     13  C   UNL d   1       1.865  -0.179  -0.859  0.00  0.00     0.008 A 
ATOM     14  C   UNL d   1       1.626   2.242  -1.218  0.00  0.00     0.038 A 
ATOM     15  C   UNL d   1       2.512  -0.307  -2.103  0.00  0.00     0.015 A 
ATOM     16  C   UNL d   1       2.725   0.842  -2.877  0.00  0.00     0.001 A 
ATOM     17  C   UNL d   1       2.290   2.095  -2.439  0.00  0.00     0.003 A 
ENDBRANCH   7   8
ENDBRANCH   2   7
BRANCH   3  18
ATOM     18  C   UNL d   1       5.508  -5.108  -1.496  0.00  0.00     0.036 A 
ATOM     19  C   UNL d   1       4.880  -5.887  -2.474  0.00  0.00     0.031 A 
ATOM     20  C   UNL d   1       5.625  -6.708  -3.328  0.00  0.00     0.021 A 
ATOM     21  C   UNL d   1       7.008  -6.763  -3.202  0.00  0.00     0.011 A 
ATOM     22  C   UNL d   1       7.649  -6.023  -2.213  0.00  0.00     0.021 A 
ATOM     23 BR   UNL d   1       8.017  -7.823  -4.397  0.00  0.00    -0.051 Br
ATOM     24  C   UNL d   1       6.901  -5.196  -1.363  0.00  0.00     0.031 A 
ENDBRANCH   3  18
TORSDOF 3
