REMARK  5 active torsions:
REMARK  status: ('A' for Active; 'I' for Inactive)
REMARK    1  A    between atoms: C_2  and  S_1 
REMARK    2  A    between atoms: N_4  and  S_1 
REMARK    3  A    between atoms: C_18  and  N_4 
REMARK    4  A    between atoms: C_20  and  N_4 
REMARK    5  A    between atoms: C_19  and  C_20 
ROOT
ATOM      1  N   UNL d   1       2.785   2.361  -4.861  0.00  0.00    -0.197 NA
ATOM      2  C   UNL d   1       2.504   1.609  -4.023  0.00  0.00     0.060 C 
ATOM      3  C   UNL d   1       2.137   0.677  -2.947  0.00  0.00     0.139 C 
ENDROOT
BRANCH   3   4
ATOM      4  C   UNL d   1       0.667   0.860  -2.567  0.00  0.00     0.122 C 
BRANCH   4   5
ATOM      5  N   UNL d   1       0.160  -0.135  -1.542  0.00  0.00    -0.202 NA
BRANCH   5   6
ATOM      6  S   UNL d   1       0.964   0.016  -0.016  0.00  0.00     0.246 S 
ATOM      7  O   UNL d   1       2.369  -0.267  -0.189  0.00  0.00    -0.206 OA
ATOM      8  O   UNL d   1       0.563   1.299   0.535  0.00  0.00    -0.206 OA
BRANCH   6   9
ATOM      9  C   UNL d   1       0.320  -1.238   1.020  0.00  0.00     0.104 A 
ATOM     10  C   UNL d   1       0.491  -2.611   0.741  0.00  0.00     0.090 A 
ATOM     11  N   UNL d   1       1.063  -3.172  -0.336  0.00  0.00    -0.309 N 
ATOM     12  C   UNL d   1      -0.012  -3.642   1.725  0.00  0.00     0.068 A 
ATOM     13  S   UNL d   1       1.018  -4.816  -0.112  0.00  0.00     0.068 SA
ATOM     14  HN  UNL d   1       1.453  -2.680  -1.140  1.00  0.00     0.176 HD
ATOM     15  N   UNL d   1       0.222  -4.906   1.341  0.00  0.00    -0.310 N 
ATOM     16  HN  UNL d   1      -0.037  -5.755   1.843  1.00  0.00     0.176 HD
ATOM     17  C   UNL d   1      -0.664  -3.254   2.924  0.00  0.00     0.032 A 
ATOM     18  C   UNL d   1      -0.804  -1.874   3.140  0.00  0.00     0.004 A 
ATOM     19  C   UNL d   1      -0.329  -0.904   2.230  0.00  0.00     0.027 A 
ENDBRANCH   6   9
ENDBRANCH   5   6
BRANCH   5  20
ATOM     20  C   UNL d   1      -1.353  -0.256  -1.488  0.00  0.00     0.066 C 
ATOM     21  C   UNL d   1      -2.047   0.960  -0.878  0.00  0.00     0.027 C 
ATOM     22  C   UNL d   1      -1.965  -0.598  -2.850  0.00  0.00     0.027 C 
ENDBRANCH   5  20
ENDBRANCH   4   5
ENDBRANCH   3   4
TORSDOF 5
