REMARK  3 active torsions:
REMARK  status: ('A' for Active; 'I' for Inactive)
REMARK    1  A    between atoms: C_6  and  C_1 
REMARK    2  A    between atoms: O_13  and  C_6 
REMARK    3  A    between atoms: O_15  and  C_12 
ROOT
ATOM      1  C   UNL d   1      -1.789  -1.295  -0.095  0.00  0.00     0.114 A 
ATOM      2  C   UNL d   1      -2.088   0.147  -0.071  0.00  0.00     0.305 A 
ATOM      3  C   UNL d   1      -0.518  -1.730  -0.056  0.00  0.00     0.039 A 
ATOM      4  O   UNL d   1      -1.025   1.037  -0.073  0.00  0.00    -0.274 OA
ATOM      5  C   UNL d   1       0.585  -0.783  -0.008  0.00  0.00     0.002 A 
ATOM      6  C   UNL d   1       0.301   0.577  -0.038  0.00  0.00     0.089 A 
ATOM      7  O   UNL d   1      -3.254   0.540  -0.060  0.00  0.00    -0.259 OA
ATOM      8  C   UNL d   1       1.920  -1.189   0.053  0.00  0.00     0.051 A 
ATOM      9  C   UNL d   1       1.310   1.534  -0.028  0.00  0.00     0.041 A 
ATOM     10  C   UNL d   1       2.953  -0.241   0.074  0.00  0.00     0.069 A 
ATOM     11  C   UNL d   1       2.642   1.121   0.026  0.00  0.00     0.039 A 
ENDROOT
BRANCH   1  12
ATOM     12  C   UNL d   1      -2.861  -2.317  -0.168  0.00  0.00     0.182 C 
ATOM     13  O   UNL d   1      -2.636  -3.518  -0.203  0.00  0.00    -0.646 OA
BRANCH  12  14
ATOM     14  O   UNL d   1      -4.122  -1.834  -0.202  0.00  0.00    -0.772 OA
ATOM     15  H   UNL d   1      -4.204  -0.851  -0.158  0.00  0.00     0.167 HD
ENDBRANCH  12  14
ENDBRANCH   1  12
BRANCH  10  16
ATOM     16  O   UNL d   1       4.213  -0.769   0.142  0.00  0.00    -0.356 OA
ATOM     17  C   UNL d   1       5.296   0.153   0.173  0.00  0.00     0.210 C 
ENDBRANCH  10  16
TORSDOF 3
