REMARK  1 active torsions:
REMARK  status: ('A' for Active; 'I' for Inactive)
REMARK    1  A    between atoms: O_13  and  C_7 
ROOT
ATOM      1  C   UNL d   1      -0.269   0.920  -0.010  0.00  0.00     0.077 A 
ATOM      2  C   UNL d   1       0.126  -0.406  -0.012  0.00  0.00     0.138 A 
ATOM      3  N   UNL d   1       2.018   0.864  -0.015  0.00  0.00    -0.307 N 
ATOM      4  HN  UNL d   1       3.001   1.139  -0.016  1.00  0.00     0.186 HD
ATOM      5  N   UNL d   1       1.495  -0.386  -0.015  0.00  0.00    -0.281 N 
ATOM      6  C   UNL d   1       0.934   1.650  -0.011  0.00  0.00     0.127 A 
ATOM      7  C   UNL d   1      -1.637   1.163  -0.008  0.00  0.00     0.158 A 
ATOM      8  N   UNL d   1      -0.681  -1.482  -0.012  0.00  0.00    -0.337 N 
ATOM      9  HN  UNL d   1      -0.351  -2.447  -0.014  1.00  0.00     0.168 HD
ATOM     10  N   UNL d   1      -2.499   0.119  -0.007  0.00  0.00    -0.332 N 
ATOM     11  HN  UNL d   1      -3.508   0.268  -0.006  1.00  0.00     0.168 HD
ATOM     12  C   UNL d   1      -1.978  -1.124  -0.009  0.00  0.00     0.184 A 
ATOM     13  C   UNL d   1       2.376  -1.526  -0.022  0.00  0.00     0.179 C 
ENDROOT
BRANCH   7  14
ATOM     14  O   UNL d   1      -2.109   2.460  -0.005  0.00  0.00    -0.340 OA
ATOM     15  C   UNL d   1      -3.532   2.532  -0.019  0.00  0.00     0.211 C 
ENDBRANCH   7  14
TORSDOF 1
