REMARK  4 active torsions:
REMARK  status: ('A' for Active; 'I' for Inactive)
REMARK    1  A    between atoms: C_2  and  S_1 
REMARK    2  A    between atoms: N_8  and  S_1 
REMARK    3  A    between atoms: C_11  and  N_8 
REMARK    4  A    between atoms: O_19  and  C_12 
ROOT
ATOM      1  S   UNL d   1       0.969   0.006  -0.017  0.00  0.00     0.250 S 
ATOM      2  O   UNL d   1       0.204  -0.742   0.951  0.00  0.00    -0.205 OA
ATOM      3  O   UNL d   1       2.408  -0.144  -0.090  0.00  0.00    -0.205 OA
ENDROOT
BRANCH   1   4
ATOM      4  C   UNL d   1       0.690   1.646   0.369  0.00  0.00     0.130 A 
ATOM      5  C   UNL d   1       1.502   2.729   0.121  0.00  0.00     0.097 A 
ATOM      6  O   UNL d   1       0.877   3.854   0.568  0.00  0.00    -0.241 OA
ATOM      7  C   UNL d   1       2.821   2.956  -0.497  0.00  0.00     0.081 C 
ATOM      8  N   UNL d   1      -0.347   3.523   1.111  0.00  0.00    -0.264 N 
ATOM      9  C   UNL d   1      -0.457   2.193   0.994  0.00  0.00     0.054 A 
ATOM     10  HN  UNL d   1      -1.030   4.162   1.518  1.00  0.00     0.194 HD
ATOM     11  C   UNL d   1      -1.679   1.524   1.499  0.00  0.00     0.072 C 
ENDBRANCH   1   4
BRANCH   1  12
ATOM     12  N   UNL d   1       0.304  -0.353  -1.534  0.00  0.00    -0.181 NA
ATOM     13  H   UNL d   1       0.267  -1.366  -1.641  0.00  0.00     0.146 HD
BRANCH  12  14
ATOM     14  C   UNL d   1       0.845   0.335  -2.662  0.00  0.00     0.023 A 
ATOM     15  C   UNL d   1       1.995  -0.110  -3.315  0.00  0.00     0.027 A 
ATOM     16  C   UNL d   1       2.513   0.620  -4.396  0.00  0.00     0.038 A 
ATOM     17  C   UNL d   1       1.889   1.799  -4.812  0.00  0.00     0.068 A 
ATOM     18  C   UNL d   1       0.728   2.221  -4.160  0.00  0.00     0.038 A 
ATOM     19  C   UNL d   1       0.211   1.497  -3.086  0.00  0.00     0.027 A 
BRANCH  17  20
ATOM     20  O   UNL d   1       2.303   2.623  -5.820  0.00  0.00    -0.356 OA
ATOM     21  C   UNL d   1       3.521   2.289  -6.474  0.00  0.00     0.210 C 
ENDBRANCH  17  20
ENDBRANCH  12  14
ENDBRANCH   1  12
TORSDOF 4
