REMARK  5 active torsions:
REMARK  status: ('A' for Active; 'I' for Inactive)
REMARK    1  A    between atoms: C_9  and  C_1 
REMARK    2  A    between atoms: C_10  and  C_1 
REMARK    3  A    between atoms: N_11  and  C_6 
REMARK    4  A    between atoms: C_12  and  C_8 
REMARK    5  A    between atoms: O_18  and  C_10 
ROOT
ATOM      1  C   UNL d   1       1.386  -0.219   0.157  0.00  0.00     0.298 A 
ATOM      2  N   UNL d   1       0.802   1.118  -0.007  0.00  0.00    -0.314 N 
ATOM      3  HN  UNL d   1       1.404   1.941   0.009  1.00  0.00     0.166 HD
ATOM      4  N   UNL d   1       0.420  -1.303  -0.024  0.00  0.00    -0.328 N 
ATOM      5  HN  UNL d   1       0.727  -2.275  -0.043  1.00  0.00     0.165 HD
ATOM      6  C   UNL d   1      -0.459   1.252  -0.169  0.00  0.00     0.226 A 
ATOM      7  O   UNL d   1      -1.331   0.227  -0.184  0.00  0.00    -0.262 OA
ATOM      8  C   UNL d   1      -0.813  -1.008  -0.158  0.00  0.00     0.160 A 
ENDROOT
BRANCH   1   9
ATOM      9  C   UNL d   1       2.593  -0.428  -0.811  0.00  0.00     0.442 C 
ATOM     10  F   UNL d   1       2.910   0.704  -1.495  0.00  0.00    -0.166 F 
ATOM     11  F   UNL d   1       3.728  -0.843  -0.199  0.00  0.00    -0.166 F 
ATOM     12  F   UNL d   1       2.318  -1.363  -1.764  0.00  0.00    -0.166 F 
ENDBRANCH   1   9
BRANCH   1  13
ATOM     13  C   UNL d   1       1.942  -0.335   1.590  0.00  0.00     0.318 C 
ATOM     14  O   UNL d   1       1.600  -1.182   2.409  0.00  0.00    -0.260 OA
BRANCH  13  15
ATOM     15  O   UNL d   1       2.850   0.651   1.870  0.00  0.00    -0.323 OA
ATOM     16  C   UNL d   1       3.412   0.545   3.182  0.00  0.00     0.213 C 
ENDBRANCH  13  15
ENDBRANCH   1  13
BRANCH   6  17
ATOM     17  N   UNL d   1      -1.055   2.474  -0.375  0.00  0.00    -0.343 N 
ATOM     18  C   UNL d   1      -2.501   2.693  -0.481  0.00  0.00     0.152 C 
ATOM     19  C   UNL d   1      -2.810   3.562  -1.709  0.00  0.00     0.187 C 
ATOM     20  O   UNL d   1      -2.087   4.802  -1.668  0.00  0.00    -0.388 OA
ATOM     21  C   UNL d   1      -0.673   4.551  -1.643  0.00  0.00     0.187 C 
ATOM     22  C   UNL d   1      -0.273   3.721  -0.414  0.00  0.00     0.152 C 
ENDBRANCH   6  17
BRANCH   8  23
ATOM     23  C   UNL d   1      -1.841  -2.051  -0.392  0.00  0.00     0.015 A 
ATOM     24  C   UNL d   1      -3.212  -1.768  -0.430  0.00  0.00     0.016 A 
ATOM     25  C   UNL d   1      -4.122  -2.776  -0.756  0.00  0.00     0.001 A 
ATOM     26  C   UNL d   1      -3.672  -4.067  -1.038  0.00  0.00     0.000 A 
ATOM     27  C   UNL d   1      -2.313  -4.363  -0.970  0.00  0.00     0.001 A 
ATOM     28  C   UNL d   1      -1.402  -3.360  -0.642  0.00  0.00     0.016 A 
ENDBRANCH   8  23
TORSDOF 5
