REMARK  6 active torsions:
REMARK  status: ('A' for Active; 'I' for Inactive)
REMARK    1  A    between atoms: C_3  and  C_1 
REMARK    2  A    between atoms: C_8  and  C_2 
REMARK       I    between atoms: N_4  and  C_3 
REMARK    3  A    between atoms: N_7  and  C_9 
REMARK    4  A    between atoms: C_22  and  C_12 
REMARK    5  A    between atoms: C_13  and  O_21 
REMARK    6  A    between atoms: O_21  and  C_22 
ROOT
ATOM      1  C   UNL d   1       0.423  -3.076   0.202  0.00  0.00     0.259 C 
ATOM      2  N   UNL d   1      -0.741  -3.837   0.037  0.00  0.00    -0.332 N 
ATOM      3  C   UNL d   1      -1.428  -3.815  -1.254  0.00  0.00     0.173 C 
ATOM      4  O   UNL d   1       0.883  -2.418  -0.725  0.00  0.00    -0.267 OA
ATOM      5  S   UNL d   1      -3.144  -4.322  -0.874  0.00  0.00    -0.140 SA
ATOM      6  C   UNL d   1      -1.296  -4.801   0.983  0.00  0.00     0.137 C 
ATOM      7  C   UNL d   1      -2.688  -5.270   0.581  0.00  0.00     0.096 C 
ENDROOT
BRANCH   1   8
ATOM      8  C   UNL d   1       1.036  -3.018   1.521  0.00  0.00     0.092 C 
ATOM      9  C   UNL d   1       1.482  -1.851   2.237  0.00  0.00     0.086 C 
ATOM     10  N   UNL d   1       1.889  -2.199   3.469  0.00  0.00    -0.259 N 
ATOM     11  O   UNL d   1       1.917  -3.566   3.501  0.00  0.00    -0.241 OA
ATOM     12  HN  UNL d   1       2.131  -1.566   4.232  1.00  0.00     0.195 HD
ATOM     13  C   UNL d   1       1.471  -4.060   2.320  0.00  0.00     0.090 C 
ATOM     14  C   UNL d   1       1.598  -5.525   2.198  0.00  0.00     0.080 C 
BRANCH   9  15
ATOM     15  C   UNL d   1       1.553  -0.438   1.842  0.00  0.00     0.037 A 
ATOM     16  C   UNL d   1       0.428   0.280   1.400  0.00  0.00     0.048 A 
ATOM     17 CL   UNL d   1      -1.156  -0.413   1.306  0.00  0.00    -0.083 Cl
ATOM     18  C   UNL d   1       0.529   1.641   1.064  0.00  0.00     0.025 A 
ATOM     19  C   UNL d   1       1.737   2.320   1.199  0.00  0.00     0.003 A 
ATOM     20  C   UNL d   1       2.857   1.635   1.651  0.00  0.00     0.025 A 
ATOM     21  C   UNL d   1       2.776   0.269   1.952  0.00  0.00     0.048 A 
ATOM     22 CL   UNL d   1       4.268  -0.479   2.434  0.00  0.00    -0.083 Cl
ENDBRANCH   9  15
ENDBRANCH   1   8
BRANCH   3  23
ATOM     23  C   UNL d   1      -0.750  -4.791  -2.237  0.00  0.00     0.212 C 
BRANCH  23  24
ATOM     24  O   UNL d   1      -1.506  -5.000  -3.436  0.00  0.00    -0.346 OA
BRANCH  24  25
ATOM     25  C   UNL d   1      -0.930  -5.846  -4.350  0.00  0.00     0.101 A 
ATOM     26  C   UNL d   1      -1.252  -5.707  -5.704  0.00  0.00     0.136 A 
ATOM     27  C   UNL d   1      -0.685  -6.532  -6.692  0.00  0.00     0.045 A 
ATOM     28  C   UNL d   1       0.218  -7.535  -6.322  0.00  0.00    -0.059 A 
ATOM     29  C   UNL d   1       0.509  -7.714  -4.968  0.00  0.00     0.009 A 
ATOM     30  C   UNL d   1       0.874  -8.394  -7.362  0.00  0.00     0.048 C 
ATOM     31  C   UNL d   1      -0.063  -6.887  -3.996  0.00  0.00     0.040 A 
BRANCH  26  32
ATOM     32  N   UNL d   1      -2.182  -4.681  -6.138  0.00  0.00    -0.113 N 
ATOM     33  O   UNL d   1      -1.904  -3.503  -5.872  0.00  0.00    -0.532 OA
ATOM     34  O   UNL d   1      -3.154  -5.054  -6.808  0.00  0.00    -0.532 OA
ENDBRANCH  26  32
ENDBRANCH  24  25
ENDBRANCH  23  24
ENDBRANCH   3  23
TORSDOF 6
