REMARK  3 active torsions:
REMARK  status: ('A' for Active; 'I' for Inactive)
REMARK    1  A    between atoms: C_2  and  C_1 
REMARK       I    between atoms: N_6  and  C_2 
REMARK    2  A    between atoms: C_5  and  C_10 
REMARK    3  A    between atoms: C_11  and  N_6 
ROOT
ATOM      1  C   UNL d   1      -0.036   2.430   0.390  0.00  0.00     0.260 C 
ATOM      2  N   UNL d   1      -1.140   3.085  -0.122  0.00  0.00    -0.321 N 
ATOM      3  O   UNL d   1      -0.090   1.457   1.136  0.00  0.00    -0.267 OA
ATOM      4  H   UNL d   1      -1.016   3.617  -0.975  0.00  0.00     0.169 HD
ENDROOT
BRANCH   2   5
ATOM      5  C   UNL d   1      -2.479   2.904   0.310  0.00  0.00     0.057 A 
ATOM      6  C   UNL d   1      -3.538   3.294  -0.524  0.00  0.00     0.061 A 
ATOM      7  C   UNL d   1      -4.868   3.182  -0.100  0.00  0.00     0.042 A 
ATOM      8 CL   UNL d   1      -3.237   3.910  -2.113  0.00  0.00    -0.082 Cl
ATOM      9  C   UNL d   1      -5.167   2.701   1.184  0.00  0.00     0.049 A 
ATOM     10  C   UNL d   1      -4.110   2.305   2.014  0.00  0.00     0.018 A 
ATOM     11  C   UNL d   1      -2.783   2.401   1.581  0.00  0.00     0.032 A 
BRANCH   9  12
ATOM     12  C   UNL d   1      -6.586   2.641   1.695  0.00  0.00     0.417 C 
ATOM     13  F   UNL d   1      -7.512   3.020   0.772  0.00  0.00    -0.166 F 
ATOM     14  F   UNL d   1      -6.946   1.392   2.099  0.00  0.00    -0.166 F 
ATOM     15  F   UNL d   1      -6.777   3.453   2.771  0.00  0.00    -0.166 F 
ENDBRANCH   9  12
ENDBRANCH   2   5
BRANCH   1  16
ATOM     16  C   UNL d   1       1.240   2.934  -0.074  0.00  0.00     0.087 A 
ATOM     17  C   UNL d   1       2.363   2.156  -0.283  0.00  0.00     0.090 A 
ATOM     18  O   UNL d   1       3.396   2.941  -0.679  0.00  0.00    -0.242 OA
ATOM     19  C   UNL d   1       2.640   0.710  -0.177  0.00  0.00     0.080 C 
ATOM     20  N   UNL d   1       2.985   4.258  -0.720  0.00  0.00    -0.265 N 
ATOM     21  C   UNL d   1       1.702   4.255  -0.334  0.00  0.00     0.047 A 
ATOM     22  HN  UNL d   1       3.544   5.067  -0.989  1.00  0.00     0.194 HD
ATOM     23  C   UNL d   1       0.998   5.552  -0.198  0.00  0.00     0.071 C 
ENDBRANCH   1  16
TORSDOF 3
