REMARK  3 active torsions:
REMARK  status: ('A' for Active; 'I' for Inactive)
REMARK    1  A    between atoms: C_5  and  C_3 
REMARK    2  A    between atoms: C_10  and  C_4 
REMARK    3  A    between atoms: S_16  and  C_9 
ROOT
ATOM      1  N   UNL d   1      -1.293  -0.025  -0.009  0.00  0.00    -0.354 N 
ATOM      2  HN  UNL d   1      -2.313  -0.061  -0.015  1.00  0.00     0.166 HD
ATOM      3  C   UNL d   1      -0.638   1.163  -0.056  0.00  0.00     0.051 A 
ATOM      4  C   UNL d   1      -0.556  -1.164   0.044  0.00  0.00     0.044 A 
ATOM      5  C   UNL d   1       0.749   1.256  -0.014  0.00  0.00     0.049 A 
ATOM      6  C   UNL d   1       0.837  -1.130   0.043  0.00  0.00     0.049 A 
ATOM      7  C   UNL d   1       1.506   0.093   0.025  0.00  0.00     0.004 A 
ENDROOT
BRANCH   4   8
ATOM      8  C   UNL d   1      -1.308  -2.440   0.075  0.00  0.00    -0.009 A 
ATOM      9  C   UNL d   1      -2.567  -2.559  -0.542  0.00  0.00     0.015 A 
ATOM     10  C   UNL d   1      -3.260  -3.776  -0.564  0.00  0.00     0.024 A 
ATOM     11  C   UNL d   1      -2.706  -4.900   0.041  0.00  0.00     0.034 A 
ATOM     12  C   UNL d   1      -1.475  -4.812   0.680  0.00  0.00     0.024 A 
ATOM     13 CL   UNL d   1      -3.542  -6.402  -0.002  0.00  0.00    -0.084 Cl
ATOM     14  C   UNL d   1      -0.789  -3.593   0.701  0.00  0.00     0.015 A 
ENDBRANCH   4   8
BRANCH   3  15
ATOM     15  C   UNL d   1      -1.509   2.347  -0.159  0.00  0.00     0.031 A 
ATOM     16  S   UNL d   1      -0.957   3.787  -0.930  0.00  0.00    -0.100 SA
ATOM     17  C   UNL d   1      -2.434   4.595  -0.666  0.00  0.00     0.050 A 
ATOM     18  C   UNL d   1      -3.347   3.796  -0.018  0.00  0.00     0.008 A 
ATOM     19  C   UNL d   1      -2.817   2.502   0.266  0.00  0.00     0.021 A 
ENDBRANCH   3  15
BRANCH   7  20
ATOM     20  S   UNL d   1       3.295   0.035   0.042  0.00  0.00    -0.134 SA
ATOM     21  C   UNL d   1       3.772   1.784  -0.010  0.00  0.00     0.095 C 
ENDBRANCH   7  20
TORSDOF 3
