REMARK  5 active torsions:
REMARK  status: ('A' for Active; 'I' for Inactive)
REMARK    1  A    between atoms: N_2  and  C_1 
REMARK    2  A    between atoms: C_3  and  O_8 
REMARK    3  A    between atoms: C_4  and  C_3 
REMARK    4  A    between atoms: C_5  and  C_9 
REMARK    5  A    between atoms: O_8  and  C_6 
ROOT
ATOM      1  C   UNL d   1       1.258   0.305  -0.065  0.00  0.00     0.137 A 
ATOM      2  C   UNL d   1       0.715  -0.976   0.070  0.00  0.00     0.112 A 
ATOM      3  C   UNL d   1       0.459   1.455  -0.086  0.00  0.00     0.055 A 
ATOM      4  C   UNL d   1      -0.931   1.323   0.033  0.00  0.00     0.050 A 
ATOM      5  C   UNL d   1      -0.667  -1.109   0.171  0.00  0.00     0.041 A 
ATOM      6  C   UNL d   1      -1.481   0.034   0.157  0.00  0.00     0.019 A 
ENDROOT
BRANCH   2   7
ATOM      7  O   UNL d   1       1.614  -2.069   0.052  0.00  0.00    -0.272 OA
BRANCH   7   8
ATOM      8  C   UNL d   1       1.292  -3.410   0.216  0.00  0.00     0.302 C 
ATOM      9  O   UNL d   1       0.215  -3.901   0.499  0.00  0.00    -0.259 OA
BRANCH   8  10
ATOM     10  C   UNL d   1       2.524  -4.182   0.001  0.00  0.00     0.083 A 
ATOM     11  C   UNL d   1       3.140  -4.194  -1.258  0.00  0.00     0.052 A 
ATOM     12 CL   UNL d   1       2.502  -3.336  -2.617  0.00  0.00    -0.083 Cl
ATOM     13  C   UNL d   1       4.303  -4.942  -1.462  0.00  0.00     0.025 A 
ATOM     14  C   UNL d   1       4.846  -5.693  -0.420  0.00  0.00     0.003 A 
ATOM     15  C   UNL d   1       4.227  -5.694   0.830  0.00  0.00     0.025 A 
ATOM     16  C   UNL d   1       3.068  -4.939   1.045  0.00  0.00     0.052 A 
ATOM     17 CL   UNL d   1       2.387  -4.963   2.632  0.00  0.00    -0.083 Cl
ENDBRANCH   8  10
ENDBRANCH   7   8
ENDBRANCH   2   7
BRANCH   1  18
ATOM     18  N   UNL d   1       2.687   0.462  -0.203  0.00  0.00    -0.113 N 
ATOM     19  O   UNL d   1       3.374   0.296   0.814  0.00  0.00    -0.532 OA
ATOM     20  O   UNL d   1       3.110   0.775  -1.323  0.00  0.00    -0.532 OA
ENDBRANCH   1  18
BRANCH   4  21
ATOM     21  C   UNL d   1      -1.837   2.534   0.042  0.00  0.00     0.417 C 
ATOM     22  F   UNL d   1      -1.174   3.703  -0.169  0.00  0.00    -0.166 F 
ATOM     23  F   UNL d   1      -2.801   2.470  -0.916  0.00  0.00    -0.166 F 
ATOM     24  F   UNL d   1      -2.489   2.680   1.226  0.00  0.00    -0.166 F 
ENDBRANCH   4  21
TORSDOF 5
