REMARK  6 active torsions:
REMARK  status: ('A' for Active; 'I' for Inactive)
REMARK    1  A    between atoms: N_2  and  C_1 
REMARK    2  A    between atoms: N_8  and  C_1 
REMARK       I    between atoms: C_7  and  N_2 
REMARK    3  A    between atoms: C_11  and  C_7 
REMARK    4  A    between atoms: C_22  and  N_8 
REMARK    5  A    between atoms: C_9  and  C_10 
REMARK    6  A    between atoms: C_24  and  C_22 
ROOT
ATOM      1  C   UNL d   1       2.086   0.032  -0.219  0.00  0.00     0.362 A 
ATOM      2  C   UNL d   1       1.164  -1.202  -0.092  0.00  0.00     0.228 A 
ATOM      3  C   UNL d   1       1.121   1.212   0.058  0.00  0.00     0.228 A 
ATOM      4  C   UNL d   1      -0.223   0.661   0.260  0.00  0.00     0.029 A 
ATOM      5  C   UNL d   1      -0.207  -0.724   0.139  0.00  0.00     0.029 A 
ATOM      6  O   UNL d   1       1.365   2.409   0.077  0.00  0.00    -0.287 OA
ATOM      7  O   UNL d   1       1.476  -2.376  -0.191  0.00  0.00    -0.287 OA
ATOM      8  C   UNL d   1      -1.402   1.358   0.468  0.00  0.00     0.016 A 
ATOM      9  C   UNL d   1      -1.376  -1.467   0.182  0.00  0.00     0.016 A 
ATOM     10  C   UNL d   1      -2.579  -0.776   0.355  0.00  0.00     0.001 A 
ATOM     11  C   UNL d   1      -2.591   0.624   0.510  0.00  0.00     0.001 A 
ENDROOT
BRANCH   1  12
ATOM     12  N   UNL d   1       2.791   0.037  -1.476  0.00  0.00    -0.309 N 
ATOM     13  C   UNL d   1       2.121   0.098  -2.674  0.00  0.00     0.254 C 
ATOM     14  O   UNL d   1       0.901   0.111  -2.761  0.00  0.00    -0.268 OA
ATOM     15  H   UNL d   1       3.714  -0.365  -1.485  0.00  0.00     0.166 HD
BRANCH  13  16
ATOM     16  C   UNL d   1       2.976   0.163  -3.891  0.00  0.00     0.032 A 
ATOM     17  C   UNL d   1       2.493  -0.365  -5.092  0.00  0.00     0.018 A 
ATOM     18  C   UNL d   1       3.207  -0.171  -6.279  0.00  0.00     0.017 A 
ATOM     19  C   UNL d   1       4.401   0.568  -6.282  0.00  0.00     0.048 A 
ATOM     20  C   UNL d   1       4.904   1.049  -5.062  0.00  0.00     0.017 A 
ATOM     21  C   UNL d   1       4.196   0.849  -3.873  0.00  0.00     0.018 A 
BRANCH  19  22
ATOM     22  C   UNL d   1       5.110   0.910  -7.572  0.00  0.00     0.417 C 
ATOM     23  F   UNL d   1       4.503   0.404  -8.681  0.00  0.00    -0.166 F 
ATOM     24  F   UNL d   1       5.187   2.256  -7.772  0.00  0.00    -0.166 F 
ATOM     25  F   UNL d   1       6.392   0.455  -7.603  0.00  0.00    -0.166 F 
ENDBRANCH  19  22
ENDBRANCH  13  16
ENDBRANCH   1  12
BRANCH   1  26
ATOM     26  N   UNL d   1       3.128  -0.048   0.825  0.00  0.00     0.133 N 
ATOM     27  H   UNL d   1       3.622  -0.933   0.724  0.00  0.00     0.320 HD
BRANCH  26  28
ATOM     28  C   UNL d   1       4.071   1.073   0.818  0.00  0.00     0.312 C 
BRANCH  28  29
ATOM     29  C   UNL d   1       5.196   0.851   1.803  0.00  0.00    -0.030 A 
ATOM     30  C   UNL d   1       6.371   0.185   1.417  0.00  0.00     0.010 A 
ATOM     31  C   UNL d   1       7.412  -0.000   2.330  0.00  0.00     0.024 A 
ATOM     32  C   UNL d   1       7.282   0.473   3.634  0.00  0.00     0.034 A 
ATOM     33  C   UNL d   1       6.120   1.130   4.033  0.00  0.00     0.024 A 
ATOM     34 CL   UNL d   1       8.564   0.244   4.758  0.00  0.00    -0.084 Cl
ATOM     35  C   UNL d   1       5.079   1.313   3.122  0.00  0.00     0.010 A 
ENDBRANCH  28  29
ENDBRANCH  26  28
ENDBRANCH   1  26
TORSDOF 6
