REMARK  5 active torsions:
REMARK  status: ('A' for Active; 'I' for Inactive)
REMARK    1  A    between atoms: N_3  and  C_1 
REMARK    2  A    between atoms: C_2  and  N_4 
REMARK    3  A    between atoms: N_8  and  C_2 
REMARK    4  A    between atoms: N_4  and  N_3 
REMARK    5  A    between atoms: C_9  and  N_5 
ROOT
ATOM      1  C   UNL d   1       1.164   0.204  -0.863  0.00  0.00     0.186 C 
ATOM      2  N   UNL d   1       0.378  -0.677  -0.186  0.00  0.00    -0.361 N 
ATOM      3  S   UNL d   1       2.590   0.684  -0.126  0.00  0.00    -0.040 SA
ATOM      4  H   UNL d   1       0.792  -0.928   0.703  0.00  0.00     0.162 HD
ENDROOT
BRANCH   1   5
ATOM      5  N   UNL d   1       0.685   0.688  -2.053  0.00  0.00    -0.274 N 
ATOM      6  H   UNL d   1       0.063   0.128  -2.628  0.00  0.00     0.189 HD
BRANCH   5   7
ATOM      7  N   UNL d   1       1.347   1.746  -2.683  0.00  0.00    -0.274 N 
ATOM      8  H   UNL d   1       1.923   2.317  -2.076  0.00  0.00     0.189 HD
BRANCH   7   9
ATOM      9  C   UNL d   1       1.186   2.043  -4.008  0.00  0.00     0.186 C 
ATOM     10  S   UNL d   1       0.287   1.144  -5.092  0.00  0.00    -0.040 SA
BRANCH   9  11
ATOM     11  N   UNL d   1       1.808   3.176  -4.449  0.00  0.00    -0.370 N 
ATOM     12  C   UNL d   1       2.561   4.130  -3.662  0.00  0.00     0.148 C 
ATOM     13  H   UNL d   1       1.616   3.411  -5.415  0.00  0.00     0.161 HD
ENDBRANCH   9  11
ENDBRANCH   7   9
ENDBRANCH   5   7
ENDBRANCH   1   5
BRANCH   2  14
ATOM     14  C   UNL d   1      -1.050  -0.966  -0.353  0.00  0.00     0.083 C 
ATOM     15  C   UNL d   1      -1.931   0.271  -0.121  0.00  0.00     0.025 C 
ATOM     16  C   UNL d   1      -1.877   0.763   1.325  0.00  0.00     0.002 C 
ATOM     17  C   UNL d   1      -2.222  -0.344   2.318  0.00  0.00     0.000 C 
ATOM     18  C   UNL d   1      -1.415  -1.618   2.085  0.00  0.00     0.002 C 
ATOM     19  C   UNL d   1      -1.464  -2.079   0.624  0.00  0.00     0.025 C 
ENDBRANCH   2  14
TORSDOF 5
