REMARK  7 active torsions:
REMARK  status: ('A' for Active; 'I' for Inactive)
REMARK    1  A    between atoms: C_8  and  N_3 
REMARK    2  A    between atoms: C_9  and  C_8 
REMARK       I    between atoms: N_12  and  C_9 
REMARK    3  A    between atoms: C_11  and  N_13 
REMARK    4  A    between atoms: N_18  and  C_11 
REMARK    5  A    between atoms: N_13  and  N_12 
REMARK    6  A    between atoms: C_14  and  C_21 
REMARK    7  A    between atoms: C_21  and  N_18 
ROOT
ATOM      1  C   UNL d   1       2.053  -1.230   0.292  0.00  0.00     0.215 C 
ATOM      2  C   UNL d   1       1.925  -2.712  -0.037  0.00  0.00     0.046 C 
ENDROOT
BRANCH   1   3
ATOM      3  N   UNL d   1       0.761  -0.571   0.265  0.00  0.00    -0.189 N 
ATOM      4  N   UNL d   1      -0.198  -0.838   1.172  0.00  0.00    -0.115 N 
ATOM      5  C   UNL d   1      -1.215  -0.128   0.668  0.00  0.00     0.709 A 
ATOM      6  HN  UNL d   1      -0.161  -1.419   2.009  1.00  0.00     0.207 HD
ATOM      7  N   UNL d   1      -0.878   0.503  -0.506  0.00  0.00    -0.113 N 
ATOM      8  N   UNL d   1      -2.434   0.023   1.223  0.00  0.00    -0.211 N 
ATOM      9  N   UNL d   1       0.386   0.201  -0.765  0.00  0.00     0.012 NA
ATOM     10  HN  UNL d   1      -1.487   1.093  -1.073  1.00  0.00     0.203 HD
ATOM     11  C   UNL d   1      -3.542   0.634   0.488  0.00  0.00     0.167 C 
ATOM     12  C   UNL d   1      -2.843  -0.764   2.388  0.00  0.00     0.167 C 
ATOM     13  C   UNL d   1      -4.414   1.438   1.467  0.00  0.00     0.188 C 
ATOM     14  O   UNL d   1      -4.864   0.624   2.564  0.00  0.00    -0.388 OA
ATOM     15  C   UNL d   1      -3.737   0.100   3.290  0.00  0.00     0.188 C 
ENDBRANCH   1   3
BRANCH   1  16
ATOM     16  C   UNL d   1       2.792  -1.014   1.603  0.00  0.00     0.262 C 
ATOM     17  N   UNL d   1       2.072  -1.115   2.781  0.00  0.00    -0.266 N 
ATOM     18  H   UNL d   1       1.053  -0.978   2.770  0.00  0.00     0.190 HD
ATOM     19  O   UNL d   1       4.019  -0.858   1.624  0.00  0.00    -0.269 OA
BRANCH  17  20
ATOM     20  N   UNL d   1       2.740  -0.692   3.964  0.00  0.00    -0.274 N 
ATOM     21  H   UNL d   1       3.754  -0.735   3.870  0.00  0.00     0.189 HD
BRANCH  20  22
ATOM     22  C   UNL d   1       2.212   0.353   4.716  0.00  0.00     0.186 C 
ATOM     23  S   UNL d   1       0.607   0.830   4.634  0.00  0.00    -0.040 SA
BRANCH  22  24
ATOM     24  N   UNL d   1       3.172   0.917   5.535  0.00  0.00    -0.366 N 
ATOM     25  H   UNL d   1       4.074   0.462   5.583  0.00  0.00     0.161 HD
BRANCH  24  26
ATOM     26  C   UNL d   1       3.068   2.173   6.263  0.00  0.00     0.126 C 
BRANCH  26  27
ATOM     27  C   UNL d   1       3.212   1.941   7.735  0.00  0.00     0.003 A 
ATOM     28  C   UNL d   1       3.227   3.136   8.658  0.00  0.00     0.007 A 
ATOM     29  C   UNL d   1       4.474   2.319   8.472  0.00  0.00     0.007 A 
ENDBRANCH  26  27
ENDBRANCH  24  26
ENDBRANCH  22  24
ENDBRANCH  20  22
ENDBRANCH  17  20
ENDBRANCH   1  16
TORSDOF 7
