REMARK  4 active torsions:
REMARK  status: ('A' for Active; 'I' for Inactive)
REMARK    1  A    between atoms: N_10  and  C_1 
REMARK    2  A    between atoms: N_5  and  C_15 
REMARK       I    between atoms: C_13  and  N_10 
REMARK    3  A    between atoms: C_14  and  C_13 
REMARK    4  A    between atoms: C_15  and  C_14 
ROOT
ATOM      1  N   UNL d   1      -0.963   2.926   0.100  0.00  0.00    -0.311 N 
ATOM      2  C   UNL d   1      -2.079   3.732   0.150  0.00  0.00     0.224 C 
ATOM      3  O   UNL d   1      -2.079   4.960   0.256  0.00  0.00    -0.273 OA
ATOM      4  H   UNL d   1      -1.036   1.922   0.063  0.00  0.00     0.170 HD
ENDROOT
BRANCH   2   5
ATOM      5  C   UNL d   1      -3.445   3.069   0.016  0.00  0.00     0.123 C 
BRANCH   5   6
ATOM      6  C   UNL d   1      -3.607   1.595   0.351  0.00  0.00     0.138 C 
BRANCH   6   7
ATOM      7  N   UNL d   1      -3.021   0.668  -0.604  0.00  0.00    -0.355 N 
ATOM      8  C   UNL d   1      -3.034   0.817  -1.965  0.00  0.00     0.099 A 
ATOM      9  C   UNL d   1      -2.234  -0.162  -2.520  0.00  0.00    -0.034 A 
ATOM     10  C   UNL d   1      -1.948  -0.354  -3.966  0.00  0.00     0.050 C 
ATOM     11  C   UNL d   1      -1.762  -0.970  -1.441  0.00  0.00    -0.002 A 
ATOM     12  C   UNL d   1      -2.330  -0.478  -0.263  0.00  0.00     0.045 A 
ATOM     13  C   UNL d   1      -0.918  -2.097  -1.367  0.00  0.00     0.014 A 
ATOM     14  C   UNL d   1      -2.146  -1.117   0.974  0.00  0.00     0.030 A 
ATOM     15  C   UNL d   1      -1.328  -2.249   1.015  0.00  0.00     0.002 A 
ATOM     16  C   UNL d   1      -0.705  -2.722  -0.135  0.00  0.00     0.001 A 
ENDBRANCH   6   7
ENDBRANCH   5   6
ENDBRANCH   2   5
BRANCH   1  17
ATOM     17  C   UNL d   1       0.340   3.411   0.064  0.00  0.00     0.135 A 
ATOM     18  N   UNL d   1       0.655   4.701  -0.037  0.00  0.00    -0.282 N 
ATOM     19  N   UNL d   1       1.989   4.735  -0.076  0.00  0.00    -0.294 N 
ATOM     20  HN  UNL d   1       0.014   5.494  -0.075  1.00  0.00     0.189 HD
ATOM     21  C   UNL d   1       2.659   6.010  -0.170  0.00  0.00     0.178 C 
ATOM     22  C   UNL d   1       2.584   3.503  -0.014  0.00  0.00     0.064 A 
ATOM     23  C   UNL d   1       1.523   2.602   0.103  0.00  0.00     0.038 A 
ATOM     24  C   UNL d   1       3.927   3.104  -0.042  0.00  0.00     0.032 A 
ATOM     25  C   UNL d   1       1.820   1.228   0.225  0.00  0.00     0.017 A 
ATOM     26  C   UNL d   1       3.162   0.815   0.217  0.00  0.00     0.001 A 
ATOM     27  C   UNL d   1       4.196   1.739   0.076  0.00  0.00     0.002 A 
ENDBRANCH   1  17
TORSDOF 4
