REMARK  2 active torsions:
REMARK  status: ('A' for Active; 'I' for Inactive)
REMARK    1  A    between atoms: N_12  and  C_6 
REMARK    2  A    between atoms: N_13  and  C_7 
ROOT
ATOM      1  N   UNL d   1       0.512   0.283   1.439  0.00  0.00    -0.348 N 
ATOM      2  HN  UNL d   1       1.278   0.596   2.036  1.00  0.00     0.163 HD
ATOM      3  N   UNL d   1      -1.617   0.833   2.449  0.00  0.00    -0.348 N 
ATOM      4  HN  UNL d   1      -1.665  -0.011   3.021  1.00  0.00     0.163 HD
ATOM      5  C   UNL d   1      -0.756   1.015   1.254  0.00  0.00     0.124 C 
ATOM      6  C   UNL d   1       0.526  -0.800   0.748  0.00  0.00     0.114 C 
ATOM      7  C   UNL d   1      -2.294   1.912   2.648  0.00  0.00     0.114 C 
ATOM      8  S   UNL d   1      -0.831  -1.166  -0.267  0.00  0.00    -0.096 SA
ATOM      9  S   UNL d   1      -1.943   3.307   1.666  0.00  0.00    -0.096 SA
ATOM     10  C   UNL d   1      -1.493   0.489   0.004  0.00  0.00     0.136 C 
ATOM     11  C   UNL d   1      -0.414   2.509   1.142  0.00  0.00     0.136 C 
ENDROOT
BRANCH   7  12
ATOM     12  N   UNL d   1      -3.240   2.081   3.596  0.00  0.00    -0.283 NA
ATOM     13  H   UNL d   1      -3.174   1.419   4.359  0.00  0.00     0.126 HD
ATOM     14  H   UNL d   1      -3.404   3.040   3.873  0.00  0.00     0.126 HD
ENDBRANCH   7  12
BRANCH   6  15
ATOM     15  N   UNL d   1       1.564  -1.660   0.688  0.00  0.00    -0.283 NA
ATOM     16  H   UNL d   1       2.437  -1.268   1.015  0.00  0.00     0.126 HD
ATOM     17  H   UNL d   1       1.628  -2.196  -0.169  0.00  0.00     0.126 HD
ENDBRANCH   6  15
TORSDOF 2
