REMARK  4 active torsions:
REMARK  status: ('A' for Active; 'I' for Inactive)
REMARK    1  A    between atoms: C_11  and  N_3 
REMARK    2  A    between atoms: C_9  and  N_4 
REMARK    3  A    between atoms: C_10  and  C_8 
REMARK    4  A    between atoms: N_15  and  C_14 
ROOT
ATOM      1  C   UNL d   1      -0.084  -0.739  -0.674  0.00  0.00     0.260 C 
ATOM      2  C   UNL d   1       0.015   0.759  -0.737  0.00  0.00     0.149 C 
ATOM      3  N   UNL d   1      -1.719   0.115   0.705  0.00  0.00    -0.250 N 
ATOM      4  N   UNL d   1       1.561  -0.102   0.752  0.00  0.00    -0.247 N 
ATOM      5  C   UNL d   1      -1.387  -1.007  -0.010  0.00  0.00     0.263 C 
ATOM      6  C   UNL d   1      -1.041   1.214   0.234  0.00  0.00     0.241 C 
ATOM      7  O   UNL d   1       0.861  -1.224   0.293  0.00  0.00    -0.261 OA
ATOM      8  C   UNL d   1       1.380   1.040  -0.144  0.00  0.00     0.164 C 
ATOM      9  O   UNL d   1      -2.005  -2.064  -0.104  0.00  0.00    -0.270 OA
ATOM     10  O   UNL d   1      -1.189   2.400   0.522  0.00  0.00    -0.272 OA
ENDROOT
BRANCH   8  11
ATOM     11  C   UNL d   1       2.479   1.075  -1.197  0.00  0.00    -0.032 A 
ATOM     12  C   UNL d   1       2.808   2.275  -1.831  0.00  0.00     0.011 A 
ATOM     13  C   UNL d   1       3.852   2.329  -2.771  0.00  0.00     0.030 A 
ATOM     14  C   UNL d   1       4.609   1.200  -3.125  0.00  0.00     0.029 A 
ATOM     15  C   UNL d   1       4.255   0.006  -2.483  0.00  0.00     0.030 A 
ATOM     16  C   UNL d   1       3.209  -0.063  -1.556  0.00  0.00     0.011 A 
BRANCH  14  17
ATOM     17  N   UNL d   1       5.676   1.250  -4.006  0.00  0.00    -0.390 N 
ATOM     18  C   UNL d   1       6.045   0.093  -4.820  0.00  0.00     0.149 C 
ATOM     19  C   UNL d   1       6.308   2.504  -4.400  0.00  0.00     0.149 C 
ENDBRANCH  14  17
ENDBRANCH   8  11
BRANCH   4  20
ATOM     20  C   UNL d   1       2.328  -0.107   1.917  0.00  0.00     0.064 A 
ATOM     21  C   UNL d   1       2.926  -1.277   2.442  0.00  0.00    -0.033 A 
ATOM     22  C   UNL d   1       2.894  -2.635   1.788  0.00  0.00     0.050 C 
ATOM     23  C   UNL d   1       3.659  -1.212   3.650  0.00  0.00     0.009 A 
ATOM     24  C   UNL d   1       3.822  -0.016   4.339  0.00  0.00     0.001 A 
ATOM     25  C   UNL d   1       3.249   1.138   3.834  0.00  0.00     0.002 A 
ATOM     26  C   UNL d   1       2.514   1.088   2.646  0.00  0.00     0.032 A 
ENDBRANCH   4  20
BRANCH   3  27
ATOM     27  C   UNL d   1      -2.480   0.084   1.905  0.00  0.00     0.045 A 
ATOM     28  C   UNL d   1      -2.496  -1.092   2.676  0.00  0.00     0.030 A 
ATOM     29  C   UNL d   1      -3.087  -1.119   3.940  0.00  0.00     0.002 A 
ATOM     30  C   UNL d   1      -3.701   0.023   4.440  0.00  0.00     0.000 A 
ATOM     31  C   UNL d   1      -3.721   1.187   3.677  0.00  0.00     0.002 A 
ATOM     32  C   UNL d   1      -3.106   1.224   2.424  0.00  0.00     0.030 A 
ENDBRANCH   3  27
TORSDOF 4
