REMARK  6 active torsions:
REMARK  status: ('A' for Active; 'I' for Inactive)
REMARK       I    between atoms: N_3  and  C_1 
REMARK       I    between atoms: N_6  and  C_1 
REMARK    1  A    between atoms: N_2  and  C_8 
REMARK    2  A    between atoms: C_4  and  N_3 
REMARK    3  A    between atoms: C_18  and  N_6 
REMARK    4  A    between atoms: C_25  and  C_19 
REMARK    5  A    between atoms: C_26  and  C_25 
REMARK    6  A    between atoms: C_27  and  C_26 
ROOT
ATOM      1  C   UNL d   1       0.965   0.056   0.159  0.00  0.00     0.325 C 
ATOM      2  N   UNL d   1       0.330  -0.850  -0.675  0.00  0.00    -0.308 N 
ATOM      3  N   UNL d   1       0.070   1.033   0.572  0.00  0.00    -0.309 N 
ATOM      4  O   UNL d   1       2.153   0.027   0.449  0.00  0.00    -0.247 OA
ATOM      5  H   UNL d   1      -0.433  -0.445  -1.193  0.00  0.00     0.170 HD
ATOM      6  H   UNL d   1      -0.871   0.715   0.745  0.00  0.00     0.170 HD
ENDROOT
BRANCH   2   7
ATOM      7  C   UNL d   1       0.998  -1.949  -1.260  0.00  0.00     0.042 A 
ATOM      8  C   UNL d   1       0.761  -2.303  -2.600  0.00  0.00    -0.035 A 
ATOM      9  C   UNL d   1       1.410  -3.436  -3.127  0.00  0.00     0.016 A 
ATOM     10  C   UNL d   1      -0.111  -1.514  -3.539  0.00  0.00     0.050 C 
ATOM     11  C   UNL d   1       2.293  -4.204  -2.357  0.00  0.00    -0.058 A 
ATOM     12  C   UNL d   1       2.535  -3.823  -1.036  0.00  0.00     0.009 A 
ATOM     13  C   UNL d   1       1.888  -2.712  -0.494  0.00  0.00     0.031 A 
BRANCH  11  14
ATOM     14  C   UNL d   1       2.981  -5.407  -2.954  0.00  0.00     0.038 C 
BRANCH  14  15
ATOM     15  C   UNL d   1       2.668  -6.730  -2.243  0.00  0.00     0.004 C 
BRANCH  15  16
ATOM     16  C   UNL d   1       1.183  -7.098  -2.288  0.00  0.00    -0.004 C 
ATOM     17  C   UNL d   1       0.925  -8.435  -1.611  0.00  0.00     0.005 C 
ENDBRANCH  15  16
ENDBRANCH  14  15
ENDBRANCH  11  14
ENDBRANCH   2   7
BRANCH   3  18
ATOM     18  C   UNL d   1       0.435   2.298   1.071  0.00  0.00     0.036 A 
ATOM     19  C   UNL d   1       1.675   2.870   0.804  0.00  0.00     0.032 A 
ATOM     20  C   UNL d   1       1.988   4.139   1.295  0.00  0.00     0.031 A 
ATOM     21  C   UNL d   1       1.086   4.885   2.065  0.00  0.00     0.030 A 
ATOM     22  C   UNL d   1      -0.162   4.297   2.314  0.00  0.00     0.031 A 
ATOM     23  C   UNL d   1      -0.494   3.027   1.812  0.00  0.00     0.032 A 
BRANCH  21  24
ATOM     24  N   UNL d   1       1.472   6.105   2.586  0.00  0.00    -0.378 N 
ATOM     25  C   UNL d   1       0.817   6.706   3.755  0.00  0.00     0.153 C 
ATOM     26  C   UNL d   1       1.851   7.558   4.537  0.00  0.00     0.291 C 
ATOM     27  N   UNL d   1       2.533   8.577   3.703  0.00  0.00     0.087 N 
ATOM     28  C   UNL d   1       3.135   7.921   2.518  0.00  0.00     0.291 C 
ATOM     29  C   UNL d   1       3.566   9.263   4.478  0.00  0.00     0.310 C 
ATOM     30  C   UNL d   1       2.110   7.100   1.705  0.00  0.00     0.153 C 
ENDBRANCH  21  24
ENDBRANCH   3  18
TORSDOF 6
