REMARK  4 active torsions:
REMARK  status: ('A' for Active; 'I' for Inactive)
REMARK    1  A    between atoms: C_2  and  C_1 
REMARK    2  A    between atoms: C_3  and  C_2 
REMARK    3  A    between atoms: C_10  and  C_3 
REMARK    4  A    between atoms: N_11  and  C_5 
ROOT
ATOM      1  C   UNL d   1      -0.203   1.108  -0.128  0.00  0.00     0.148 A 
ATOM      2  S   UNL d   1       1.048  -0.052   0.175  0.00  0.00    -0.031 SA
ATOM      3  C   UNL d   1      -0.117  -1.262  -0.086  0.00  0.00     0.171 A 
ATOM      4  N   UNL d   1      -1.364   0.553  -0.412  0.00  0.00    -0.290 N 
ATOM      5  HN  UNL d   1      -2.204   1.086  -0.641  1.00  0.00     0.187 HD
ATOM      6  N   UNL d   1      -1.323  -0.823  -0.366  0.00  0.00    -0.278 N 
ATOM      7  HN  UNL d   1      -2.129  -1.427  -0.530  1.00  0.00     0.189 HD
ENDROOT
BRANCH   1   8
ATOM      8  C   UNL d   1       0.102   2.569  -0.042  0.00  0.00     0.366 C 
ATOM      9  F   UNL d   1       0.690   2.841   1.167  0.00  0.00    -0.191 F 
ATOM     10  F   UNL d   1       1.077   2.865  -0.965  0.00  0.00    -0.191 F 
BRANCH   8  11
ATOM     11  C   UNL d   1      -1.054   3.522  -0.252  0.00  0.00     0.409 C 
ATOM     12  F   UNL d   1      -0.555   4.802  -0.141  0.00  0.00    -0.189 F 
ATOM     13  F   UNL d   1      -1.550   3.447  -1.522  0.00  0.00    -0.189 F 
BRANCH  11  14
ATOM     14  C   UNL d   1      -2.152   3.338   0.777  0.00  0.00     0.461 C 
ATOM     15  F   UNL d   1      -1.665   3.160   2.027  0.00  0.00    -0.165 F 
ATOM     16  F   UNL d   1      -2.960   4.430   0.825  0.00  0.00    -0.165 F 
ATOM     17  F   UNL d   1      -2.961   2.291   0.514  0.00  0.00    -0.165 F 
ENDBRANCH  11  14
ENDBRANCH   8  11
ENDBRANCH   1   8
BRANCH   3  18
ATOM     18  N   UNL d   1       0.215  -2.615  -0.008  0.00  0.00    -0.312 N 
ATOM     19  C   UNL d   1       1.449  -3.198   0.249  0.00  0.00     0.098 A 
ATOM     20  C   UNL d   1       1.328  -4.570   0.205  0.00  0.00     0.019 A 
ATOM     21  C   UNL d   1      -0.022  -4.862  -0.078  0.00  0.00     0.019 A 
ATOM     22  C   UNL d   1      -0.680  -3.659  -0.197  0.00  0.00     0.098 A 
ENDBRANCH   3  18
TORSDOF 4
