REMARK  10 active torsions:
REMARK  status: ('A' for Active; 'I' for Inactive)
REMARK    1  A    between atoms: C_4  and  O_1 
REMARK    2  A    between atoms: C_6  and  O_1 
REMARK    3  A    between atoms: O_2  and  C_3 
REMARK    4  A    between atoms: C_7  and  O_2 
REMARK    5  A    between atoms: O_5  and  C_21 
REMARK    6  A    between atoms: C_20  and  O_5 
REMARK    7  A    between atoms: C_18  and  C_6 
REMARK    8  A    between atoms: C_19  and  C_7 
REMARK    9  A    between atoms: C_8  and  C_20 
REMARK   10  A    between atoms: C_21  and  C_9 
ROOT
ATOM      1  O   UNL d   1      -1.303   3.228  -5.004  0.00  0.00    -0.382 OA
ENDROOT
BRANCH   1   2
ATOM      2  C   UNL d   1      -1.889   3.201  -3.701  0.00  0.00     0.206 C 
BRANCH   2   3
ATOM      3  C   UNL d   1      -1.141   2.270  -2.782  0.00  0.00    -0.034 A 
ATOM      4  C   UNL d   1      -1.068   2.581  -1.417  0.00  0.00     0.012 A 
ATOM      5  C   UNL d   1      -0.396   1.742  -0.530  0.00  0.00     0.037 A 
ATOM      6  C   UNL d   1       0.226   0.587  -1.000  0.00  0.00     0.069 A 
ATOM      7  C   UNL d   1       0.112   0.240  -2.346  0.00  0.00     0.037 A 
ATOM      8  C   UNL d   1      -0.566   1.078  -3.235  0.00  0.00     0.012 A 
BRANCH   6   9
ATOM      9  O   UNL d   1       0.959  -0.269  -0.223  0.00  0.00    -0.347 OA
BRANCH   9  10
ATOM     10  C   UNL d   1       1.559   0.336   0.925  0.00  0.00     0.214 C 
BRANCH  10  11
ATOM     11  C   UNL d   1       2.745  -0.482   1.365  0.00  0.00    -0.034 A 
ATOM     12  C   UNL d   1       3.768  -0.788   0.455  0.00  0.00     0.009 A 
ATOM     13  C   UNL d   1       4.897  -1.489   0.870  0.00  0.00     0.001 A 
ATOM     14  C   UNL d   1       5.020  -1.887   2.200  0.00  0.00     0.000 A 
ATOM     15  C   UNL d   1       4.011  -1.586   3.115  0.00  0.00     0.001 A 
ATOM     16  C   UNL d   1       2.879  -0.885   2.701  0.00  0.00     0.009 A 
ENDBRANCH  10  11
ENDBRANCH   9  10
ENDBRANCH   6   9
ENDBRANCH   2   3
ENDBRANCH   1   2
BRANCH   1  17
ATOM     17  C   UNL d   1      -1.952   4.165  -5.870  0.00  0.00     0.206 C 
BRANCH  17  18
ATOM     18  C   UNL d   1      -1.732   5.580  -5.395  0.00  0.00    -0.034 A 
ATOM     19  C   UNL d   1      -0.428   6.072  -5.269  0.00  0.00     0.012 A 
ATOM     20  C   UNL d   1      -0.195   7.315  -4.680  0.00  0.00     0.037 A 
ATOM     21  C   UNL d   1      -1.262   8.072  -4.196  0.00  0.00     0.069 A 
ATOM     22  C   UNL d   1      -2.569   7.615  -4.377  0.00  0.00     0.037 A 
ATOM     23  C   UNL d   1      -2.806   6.374  -4.971  0.00  0.00     0.012 A 
BRANCH  21  24
ATOM     24  O   UNL d   1      -1.139   9.258  -3.523  0.00  0.00    -0.347 OA
BRANCH  24  25
ATOM     25  C   UNL d   1       0.122   9.450  -2.875  0.00  0.00     0.214 C 
BRANCH  25  26
ATOM     26  C   UNL d   1       0.034  10.496  -1.788  0.00  0.00    -0.034 A 
ATOM     27  C   UNL d   1      -1.150  10.725  -1.075  0.00  0.00     0.009 A 
ATOM     28  C   UNL d   1      -1.179  11.644  -0.025  0.00  0.00     0.001 A 
ATOM     29  C   UNL d   1      -0.021  12.332   0.333  0.00  0.00     0.000 A 
ATOM     30  C   UNL d   1       1.167  12.105  -0.358  0.00  0.00     0.001 A 
ATOM     31  C   UNL d   1       1.196  11.189  -1.410  0.00  0.00     0.009 A 
ENDBRANCH  25  26
ENDBRANCH  24  25
ENDBRANCH  21  24
ENDBRANCH  17  18
ENDBRANCH   1  17
TORSDOF 10
