REMARK  5 active torsions:
REMARK  status: ('A' for Active; 'I' for Inactive)
REMARK    1  A    between atoms: C_11  and  N_4 
REMARK    2  A    between atoms: C_9  and  C_6 
REMARK    3  A    between atoms: C_21  and  C_11 
REMARK    4  A    between atoms: C_18  and  C_12 
REMARK    5  A    between atoms: O_20  and  C_21 
ROOT
ATOM      1  N   UNL d   1      -1.748   1.478  -0.117  0.00  0.00    -0.305 N 
ATOM      2  HN  UNL d   1      -1.465   2.400  -0.448  1.00  0.00     0.186 HD
ATOM      3  C   UNL d   1      -0.983   0.460   0.134  0.00  0.00     0.043 C 
ATOM      4  N   UNL d   1      -3.011   1.046   0.158  0.00  0.00    -0.316 N 
ATOM      5  C   UNL d   1      -1.691  -0.747   0.686  0.00  0.00     0.067 C 
ATOM      6  C   UNL d   1      -3.124  -0.427   0.247  0.00  0.00     0.145 C 
ATOM      7  C   UNL d   1       0.473   0.420   0.008  0.00  0.00    -0.005 A 
ATOM      8  C   UNL d   1      -1.047  -2.094   0.376  0.00  0.00     0.018 C 
ATOM      9  C   UNL d   1       1.061  -0.832  -0.226  0.00  0.00    -0.046 A 
ATOM     10  C   UNL d   1       0.178  -2.014  -0.537  0.00  0.00     0.040 C 
ATOM     11  C   UNL d   1       1.245   1.569   0.175  0.00  0.00     0.014 A 
ATOM     12  C   UNL d   1       2.455  -0.922  -0.260  0.00  0.00     0.008 A 
ATOM     13  C   UNL d   1       2.634   1.463   0.145  0.00  0.00     0.001 A 
ATOM     14  C   UNL d   1       3.236   0.220  -0.060  0.00  0.00     0.001 A 
ENDROOT
BRANCH   6  15
ATOM     15  C   UNL d   1      -3.661  -1.127  -0.989  0.00  0.00    -0.033 A 
ATOM     16  C   UNL d   1      -3.406  -0.691  -2.295  0.00  0.00     0.010 A 
ATOM     17  C   UNL d   1      -4.130  -1.212  -3.374  0.00  0.00     0.008 A 
ATOM     18  C   UNL d   1      -5.113  -2.193  -3.177  0.00  0.00    -0.055 A 
ATOM     19  C   UNL d   1      -5.281  -2.713  -1.889  0.00  0.00     0.008 A 
ATOM     20  C   UNL d   1      -4.561  -2.192  -0.812  0.00  0.00     0.010 A 
BRANCH  18  21
ATOM     21  C   UNL d   1      -6.042  -2.645  -4.291  0.00  0.00     0.010 C 
ATOM     22  C   UNL d   1      -6.858  -1.469  -4.842  0.00  0.00     0.015 C 
ATOM     23  C   UNL d   1      -5.299  -3.368  -5.413  0.00  0.00     0.015 C 
ENDBRANCH  18  21
ENDBRANCH   6  15
BRANCH   4  24
ATOM     24  C   UNL d   1      -4.153   1.850  -0.274  0.00  0.00     0.169 C 
BRANCH  24  25
ATOM     25  C   UNL d   1      -5.546   1.327   0.099  0.00  0.00     0.185 C 
BRANCH  25  26
ATOM     26  O   UNL d   1      -6.538   2.312  -0.187  0.00  0.00    -0.399 OA
ATOM     27  H   UNL d   1      -7.402   1.882  -0.064  0.00  0.00     0.209 HD
ENDBRANCH  25  26
ENDBRANCH  24  25
ENDBRANCH   4  24
TORSDOF 5
