REMARK  9 active torsions:
REMARK  status: ('A' for Active; 'I' for Inactive)
REMARK    1  A    between atoms: C_14  and  C_1 
REMARK    2  A    between atoms: C_13  and  C_2 
REMARK    3  A    between atoms: C_4  and  C_3 
REMARK    4  A    between atoms: C_11  and  C_8 
REMARK    5  A    between atoms: C_10  and  C_12 
REMARK    6  A    between atoms: O_22  and  C_13 
REMARK    7  A    between atoms: O_23  and  C_14 
REMARK    8  A    between atoms: C_28  and  O_22 
REMARK    9  A    between atoms: C_29  and  O_23 
ROOT
ATOM      1  C   UNL d   1      -1.266  -1.056   0.108  0.00  0.00     0.054 C 
ATOM      2  C   UNL d   1       1.290  -1.018   0.077  0.00  0.00     0.054 C 
ATOM      3  C   UNL d   1       0.024  -1.848  -0.184  0.00  0.00     0.125 C 
ATOM      4  C   UNL d   1      -1.236   0.298   0.087  0.00  0.00     0.018 C 
ATOM      5  C   UNL d   1       1.218   0.335   0.067  0.00  0.00     0.018 C 
ATOM      6  N   UNL d   1      -0.015   0.949  -0.068  0.00  0.00    -0.362 N 
ATOM      7  C   UNL d   1      -2.407   1.243   0.216  0.00  0.00     0.069 C 
ATOM      8  C   UNL d   1       2.406   1.259   0.175  0.00  0.00     0.069 C 
ATOM      9  H   UNL d   1      -0.031   1.966  -0.006  0.00  0.00     0.165 HD
ENDROOT
BRANCH   3  10
ATOM     10  C   UNL d   1       0.008  -2.339  -1.619  0.00  0.00     0.067 A 
ATOM     11  O   UNL d   1       0.169  -3.675  -1.850  0.00  0.00    -0.313 OA
ATOM     12  C   UNL d   1       0.004  -3.878  -3.189  0.00  0.00     0.086 A 
ATOM     13  C   UNL d   1      -0.163  -2.661  -3.823  0.00  0.00     0.040 A 
ATOM     14  C   UNL d   1      -0.155  -1.672  -2.817  0.00  0.00     0.036 A 
BRANCH  12  15
ATOM     15  C   UNL d   1       0.089  -5.250  -3.682  0.00  0.00     0.013 A 
ATOM     16  C   UNL d   1      -0.455  -6.378  -3.033  0.00  0.00     0.060 A 
ATOM     17  C   UNL d   1      -0.302  -7.652  -3.634  0.00  0.00     0.017 A 
ATOM     18  C   UNL d   1       0.345  -7.814  -4.855  0.00  0.00     0.001 A 
ATOM     19  C   UNL d   1       0.856  -6.703  -5.508  0.00  0.00     0.001 A 
ATOM     20  C   UNL d   1       0.730  -5.441  -4.925  0.00  0.00     0.015 A 
BRANCH  16  21
ATOM     21  C   UNL d   1      -1.243  -6.360  -1.748  0.00  0.00     0.418 C 
ATOM     22  F   UNL d   1      -1.546  -5.151  -1.220  0.00  0.00    -0.166 F 
ATOM     23  F   UNL d   1      -2.456  -6.979  -1.906  0.00  0.00    -0.166 F 
ATOM     24  F   UNL d   1      -0.622  -7.058  -0.753  0.00  0.00    -0.166 F 
ENDBRANCH  16  21
ENDBRANCH  12  15
ENDBRANCH   3  10
BRANCH   2  25
ATOM     25  C   UNL d   1       2.586  -1.729   0.253  0.00  0.00     0.292 C 
ATOM     26  O   UNL d   1       3.675  -1.183   0.349  0.00  0.00    -0.259 OA
BRANCH  25  27
ATOM     27  O   UNL d   1       2.400  -3.072   0.246  0.00  0.00    -0.318 OA
BRANCH  27  28
ATOM     28  C   UNL d   1       3.590  -3.852   0.065  0.00  0.00     0.174 C 
ATOM     29  C   UNL d   1       3.842  -4.008  -1.423  0.00  0.00     0.034 C 
ENDBRANCH  27  28
ENDBRANCH  25  27
ENDBRANCH   2  25
BRANCH   1  30
ATOM     30  C   UNL d   1      -2.518  -1.838   0.329  0.00  0.00     0.292 C 
ATOM     31  O   UNL d   1      -3.644  -1.419   0.114  0.00  0.00    -0.259 OA
BRANCH  30  32
ATOM     32  O   UNL d   1      -2.241  -3.055   0.864  0.00  0.00    -0.318 OA
BRANCH  32  33
ATOM     33  C   UNL d   1      -3.379  -3.816   1.306  0.00  0.00     0.174 C 
ATOM     34  C   UNL d   1      -4.105  -4.505   0.163  0.00  0.00     0.034 C 
ENDBRANCH  32  33
ENDBRANCH  30  32
ENDBRANCH   1  30
TORSDOF 9
