REMARK  7 active torsions:
REMARK  status: ('A' for Active; 'I' for Inactive)
REMARK    1  A    between atoms: C_3  and  C_6 
REMARK    2  A    between atoms: O_12  and  N_4 
REMARK    3  A    between atoms: C_10  and  O_19 
REMARK    4  A    between atoms: O_20  and  C_11 
REMARK    5  A    between atoms: O_19  and  C_23 
REMARK    6  A    between atoms: C_22  and  O_20 
REMARK    7  A    between atoms: C_23  and  C_22 
ROOT
ATOM      1  N   UNL d   1       3.493  -4.329   7.345  0.00  0.00    -0.191 NA
ATOM      2  C   UNL d   1       3.755  -3.734   6.386  0.00  0.00     0.099 C 
ATOM      3  C   UNL d   1       4.081  -2.988   5.209  0.00  0.00     0.044 A 
ATOM      4  C   UNL d   1       4.728  -1.523   2.903  0.00  0.00     0.068 A 
ATOM      5  C   UNL d   1       4.732  -1.754   5.316  0.00  0.00     0.025 A 
ATOM      6  C   UNL d   1       3.755  -3.488   3.945  0.00  0.00     0.025 A 
ATOM      7  C   UNL d   1       5.051  -1.024   4.167  0.00  0.00     0.038 A 
ATOM      8  C   UNL d   1       4.080  -2.757   2.799  0.00  0.00     0.038 A 
ENDROOT
BRANCH   4   9
ATOM      9  O   UNL d   1       4.991  -0.908   1.710  0.00  0.00    -0.349 OA
BRANCH   9  10
ATOM     10  C   UNL d   1       5.656   0.354   1.780  0.00  0.00     0.202 C 
BRANCH  10  11
ATOM     11  C   UNL d   1       5.972   0.832   0.365  0.00  0.00     0.202 C 
BRANCH  11  12
ATOM     12  O   UNL d   1       6.674   2.077   0.381  0.00  0.00    -0.349 OA
BRANCH  12  13
ATOM     13  C   UNL d   1       8.040   2.022   0.363  0.00  0.00     0.068 A 
ATOM     14  C   UNL d   1       8.679   3.171  -0.099  0.00  0.00     0.037 A 
ATOM     15  C   UNL d   1      10.078   3.229  -0.178  0.00  0.00     0.016 A 
ATOM     16  C   UNL d   1      10.864   2.152   0.252  0.00  0.00    -0.012 A 
ATOM     17  C   UNL d   1      10.212   1.025   0.763  0.00  0.00     0.016 A 
ATOM     18  C   UNL d   1       8.814   0.949   0.791  0.00  0.00     0.037 A 
BRANCH  16  19
ATOM     19  C   UNL d   1      12.365   2.223   0.206  0.00  0.00     0.038 C 
ATOM     20  N   UNL d   1      13.210   1.241   0.056  0.00  0.00    -0.273 N 
ATOM     21  HN  UNL d   1      14.221   1.374   0.103  1.00  0.00     0.193 HD
ATOM     22  C   UNL d   1      13.023   3.583   0.353  0.00  0.00     0.071 C 
BRANCH  20  23
ATOM     23  O   UNL d   1      12.627  -0.003  -0.172  0.00  0.00    -0.290 OA
ATOM     24  H   UNL d   1      13.406  -0.587  -0.232  0.00  0.00     0.244 HD
ENDBRANCH  20  23
ENDBRANCH  16  19
ENDBRANCH  12  13
ENDBRANCH  11  12
ENDBRANCH  10  11
ENDBRANCH   9  10
ENDBRANCH   4   9
TORSDOF 7
