REMARK  1 active torsions:
REMARK  status: ('A' for Active; 'I' for Inactive)
REMARK    1  A    between atoms: C_5  and  N_1 
ROOT
ATOM      1  N   UNL d   1      -1.896   0.151  -0.002  0.00  0.00    -0.242 N 
ATOM      2  C   UNL d   1      -1.242  -1.048   0.153  0.00  0.00     0.268 A 
ATOM      3  C   UNL d   1      -1.015   1.210  -0.049  0.00  0.00     0.283 A 
ATOM      4  C   UNL d   1       0.182  -0.747   0.116  0.00  0.00     0.065 A 
ATOM      5  C   UNL d   1       0.325   0.615   0.025  0.00  0.00     0.117 A 
ATOM      6  N   UNL d   1       1.494   1.278  -0.040  0.00  0.00    -0.361 N 
ATOM      7  HN  UNL d   1       1.553   2.294  -0.097  1.00  0.00     0.165 HD
ATOM      8  O   UNL d   1      -1.672  -2.180   0.260  0.00  0.00    -0.267 OA
ATOM      9  O   UNL d   1      -1.244   2.407  -0.108  0.00  0.00    -0.265 OA
ATOM     10  C   UNL d   1       1.294  -1.560   0.112  0.00  0.00     0.021 A 
ATOM     11  C   UNL d   1       2.586   0.476  -0.023  0.00  0.00     0.088 A 
ATOM     12  C   UNL d   1       2.535  -0.924   0.039  0.00  0.00     0.018 A 
ENDROOT
BRANCH   1  13
ATOM     13  C   UNL d   1      -3.297   0.280  -0.082  0.00  0.00     0.053 A 
ATOM     14  C   UNL d   1      -4.083  -0.268   0.944  0.00  0.00     0.054 A 
ATOM     15  C   UNL d   1      -5.467  -0.107   0.931  0.00  0.00     0.036 A 
ATOM     16 CL   UNL d   1      -6.415  -0.727   2.227  0.00  0.00    -0.084 Cl
ATOM     17  C   UNL d   1      -6.089   0.567  -0.114  0.00  0.00     0.024 A 
ATOM     18  C   UNL d   1      -5.320   1.079  -1.159  0.00  0.00     0.011 A 
ATOM     19  C   UNL d   1      -3.921   0.938  -1.162  0.00  0.00    -0.035 A 
ATOM     20  C   UNL d   1      -3.184   1.438  -2.377  0.00  0.00     0.050 C 
ENDBRANCH   1  13
TORSDOF 1
