REMARK  6 active torsions:
REMARK  status: ('A' for Active; 'I' for Inactive)
REMARK    1  A    between atoms: C_10  and  C_3 
REMARK    2  A    between atoms: O_18  and  C_4 
REMARK    3  A    between atoms: S_13  and  C_5 
REMARK    4  A    between atoms: C_8  and  C_10 
REMARK    5  A    between atoms: C_9  and  C_12 
REMARK    6  A    between atoms: C_12  and  S_13 
ROOT
ATOM      1  N   UNL d   1      -0.520   1.301   0.072  0.00  0.00    -0.317 N 
ATOM      2  HN  UNL d   1      -0.970   2.216   0.089  1.00  0.00     0.170 HD
ATOM      3  C   UNL d   1      -0.690  -1.123   0.039  0.00  0.00     0.019 A 
ATOM      4  C   UNL d   1      -1.225   0.159   0.071  0.00  0.00     0.150 A 
ATOM      5  C   UNL d   1       0.806   1.166   0.050  0.00  0.00     0.146 A 
ATOM      6  N   UNL d   1       1.443  -0.014   0.044  0.00  0.00    -0.340 N 
ATOM      7  HN  UNL d   1       2.462  -0.058   0.047  1.00  0.00     0.167 HD
ATOM      8  C   UNL d   1       0.699  -1.142   0.035  0.00  0.00     0.018 A 
ATOM      9  C   UNL d   1       1.502  -2.406  -0.011  0.00  0.00     0.069 C 
ENDROOT
BRANCH   5  10
ATOM     10  S   UNL d   1       1.847   2.597  -0.083  0.00  0.00    -0.089 SA
BRANCH  10  11
ATOM     11  C   UNL d   1       0.864   3.811   0.848  0.00  0.00     0.126 C 
BRANCH  11  12
ATOM     12  C   UNL d   1       1.617   5.110   1.006  0.00  0.00     0.012 A 
ATOM     13  C   UNL d   1       1.435   6.125   0.054  0.00  0.00     0.125 A 
ATOM     14  F   UNL d   1       0.584   5.940  -0.963  0.00  0.00    -0.205 F 
ATOM     15  C   UNL d   1       2.119   7.339   0.127  0.00  0.00     0.043 A 
ATOM     16  C   UNL d   1       3.015   7.568   1.167  0.00  0.00     0.005 A 
ATOM     17  C   UNL d   1       3.220   6.574   2.123  0.00  0.00     0.024 A 
ATOM     18  C   UNL d   1       2.531   5.356   2.042  0.00  0.00     0.044 A 
ATOM     19 CL   UNL d   1       2.856   4.182   3.270  0.00  0.00    -0.084 Cl
ENDBRANCH  11  12
ENDBRANCH  10  11
ENDBRANCH   5  10
BRANCH   4  20
ATOM     20  O   UNL d   1      -2.575   0.366   0.061  0.00  0.00    -0.346 OA
ATOM     21  H   UNL d   1      -2.959  -0.223   0.732  0.00  0.00     0.219 HD
ENDBRANCH   4  20
BRANCH   3  22
ATOM     22  C   UNL d   1      -1.540  -2.371  -0.049  0.00  0.00     0.088 C 
BRANCH  22  23
ATOM     23  C   UNL d   1      -1.798  -3.081   1.265  0.00  0.00     0.007 A 
ATOM     24  C   UNL d   1      -2.624  -2.468   2.217  0.00  0.00     0.124 A 
ATOM     25  F   UNL d   1      -3.226  -1.306   1.924  0.00  0.00    -0.205 F 
ATOM     26  C   UNL d   1      -2.875  -3.030   3.467  0.00  0.00     0.043 A 
ATOM     27  C   UNL d   1      -2.300  -4.249   3.798  0.00  0.00     0.005 A 
ATOM     28  C   UNL d   1      -1.514  -4.911   2.858  0.00  0.00     0.024 A 
ATOM     29  C   UNL d   1      -1.279  -4.343   1.596  0.00  0.00     0.043 A 
ATOM     30 CL   UNL d   1      -0.375  -5.302   0.477  0.00  0.00    -0.084 Cl
ENDBRANCH  22  23
ENDBRANCH   3  22
TORSDOF 6
