REMARK  3 active torsions:
REMARK  status: ('A' for Active; 'I' for Inactive)
REMARK    1  A    between atoms: C_8  and  C_1 
REMARK    2  A    between atoms: C_10  and  N_6 
REMARK    3  A    between atoms: C_9  and  C_10 
ROOT
ATOM      1  C   UNL d   1      -0.065  -1.326  -0.005  0.00  0.00     0.148 A 
ATOM      2  N   UNL d   1       1.182  -0.841  -0.151  0.00  0.00    -0.268 N 
ATOM      3  HN  UNL d   1       2.062  -1.336  -0.294  1.00  0.00     0.190 HD
ATOM      4  N   UNL d   1      -1.004  -0.329   0.106  0.00  0.00    -0.266 N 
ATOM      5  HN  UNL d   1      -2.011  -0.452   0.212  1.00  0.00     0.186 HD
ATOM      6  N   UNL d   1       0.942   0.480  -0.057  0.00  0.00    -0.212 N 
ATOM      7  N   UNL d   1      -0.352   0.824   0.049  0.00  0.00    -0.002 NA
ENDROOT
BRANCH   6   8
ATOM      8  C   UNL d   1       2.009   1.465  -0.068  0.00  0.00     0.210 C 
BRANCH   8   9
ATOM      9  C   UNL d   1       2.340   1.926   1.326  0.00  0.00     0.023 A 
ATOM     10  C   UNL d   1       3.286   1.210   2.070  0.00  0.00     0.126 A 
ATOM     11  F   UNL d   1       3.926   0.175   1.508  0.00  0.00    -0.205 F 
ATOM     12  C   UNL d   1       3.597   1.547   3.387  0.00  0.00     0.043 A 
ATOM     13  C   UNL d   1       2.957   2.620   3.993  0.00  0.00     0.005 A 
ATOM     14  C   UNL d   1       2.016   3.354   3.273  0.00  0.00     0.024 A 
ATOM     15  C   UNL d   1       1.711   3.012   1.949  0.00  0.00     0.045 A 
ATOM     16 CL   UNL d   1       0.552   3.993   1.125  0.00  0.00    -0.084 Cl
ENDBRANCH   8   9
ENDBRANCH   6   8
BRANCH   1  17
ATOM     17  C   UNL d   1      -0.390  -2.742   0.006  0.00  0.00     0.054 A 
ATOM     18  C   UNL d   1       0.336  -3.650   0.803  0.00  0.00     0.049 A 
ATOM     19 CL   UNL d   1       1.557  -3.158   1.933  0.00  0.00    -0.083 Cl
ATOM     20  C   UNL d   1       0.070  -5.026   0.751  0.00  0.00     0.025 A 
ATOM     21  C   UNL d   1      -0.936  -5.519  -0.072  0.00  0.00     0.003 A 
ATOM     22  C   UNL d   1      -1.689  -4.633  -0.837  0.00  0.00     0.025 A 
ATOM     23  C   UNL d   1      -1.420  -3.257  -0.804  0.00  0.00     0.049 A 
ATOM     24 CL   UNL d   1      -2.397  -2.269  -1.841  0.00  0.00    -0.083 Cl
ENDBRANCH   1  17
TORSDOF 3
