REMARK  4 active torsions:
REMARK  status: ('A' for Active; 'I' for Inactive)
REMARK    1  A    between atoms: C_9  and  N_1 
REMARK    2  A    between atoms: C_12  and  N_6 
REMARK    3  A    between atoms: C_10  and  C_8 
REMARK    4  A    between atoms: O_21  and  C_10 
ROOT
ATOM      1  N   UNL d   1      -0.829  -1.086  -0.159  0.00  0.00    -0.257 N 
ATOM      2  C   UNL d   1      -1.219   0.245  -0.314  0.00  0.00     0.161 C 
ATOM      3  C   UNL d   1       1.034   0.053   0.778  0.00  0.00     0.082 C 
ATOM      4  C   UNL d   1       0.441  -1.264   0.403  0.00  0.00     0.271 C 
ATOM      5  S   UNL d   1      -0.138   1.275   0.606  0.00  0.00    -0.048 SA
ATOM      6  N   UNL d   1      -2.217   0.635  -1.040  0.00  0.00    -0.322 N 
ATOM      7  HN  UNL d   1      -2.800  -0.068  -1.493  1.00  0.00     0.169 HD
ATOM      8  C   UNL d   1       2.311   0.180   1.165  0.00  0.00     0.106 C 
ATOM      9  O   UNL d   1       1.056  -2.302   0.619  0.00  0.00    -0.266 OA
ENDROOT
BRANCH   1  10
ATOM     10  C   UNL d   1      -1.665  -2.203  -0.542  0.00  0.00     0.045 A 
ATOM     11  C   UNL d   1      -1.141  -3.486  -0.776  0.00  0.00     0.037 A 
ATOM     12  C   UNL d   1      -1.958  -4.592  -1.104  0.00  0.00    -0.054 A 
ATOM     13  C   UNL d   1      -1.319  -5.938  -1.325  0.00  0.00     0.049 C 
ATOM     14  C   UNL d   1      -3.346  -4.420  -1.215  0.00  0.00    -0.056 A 
ATOM     15  C   UNL d   1      -3.882  -3.152  -0.986  0.00  0.00     0.009 A 
ATOM     16  C   UNL d   1      -4.264  -5.560  -1.559  0.00  0.00     0.049 C 
ATOM     17  C   UNL d   1      -3.058  -2.072  -0.648  0.00  0.00     0.031 A 
ENDBRANCH   1  10
BRANCH   6  18
ATOM     18  C   UNL d   1      -2.523   1.988  -1.228  0.00  0.00     0.106 A 
ATOM     19  N   UNL d   1      -1.505   2.829  -1.493  0.00  0.00    -0.352 N 
ATOM     20  C   UNL d   1      -1.797   4.139  -1.639  0.00  0.00     0.089 A 
ATOM     21  HN  UNL d   1      -0.548   2.488  -1.582  1.00  0.00     0.166 HD
ATOM     22  C   UNL d   1      -3.083   4.646  -1.608  0.00  0.00     0.017 A 
ATOM     23  C   UNL d   1      -4.130   3.756  -1.413  0.00  0.00     0.005 A 
ATOM     24  C   UNL d   1      -3.847   2.405  -1.214  0.00  0.00     0.048 A 
ENDBRANCH   6  18
BRANCH   8  25
ATOM     25  C   UNL d   1       2.930   1.467   1.539  0.00  0.00     0.283 C 
ATOM     26  O   UNL d   1       2.336   2.481   1.872  0.00  0.00    -0.260 OA
BRANCH  25  27
ATOM     27  O   UNL d   1       4.278   1.347   1.445  0.00  0.00    -0.323 OA
ATOM     28  C   UNL d   1       4.966   2.569   1.726  0.00  0.00     0.213 C 
ENDBRANCH  25  27
ENDBRANCH   8  25
TORSDOF 4
