REMARK  5 active torsions:
REMARK  status: ('A' for Active; 'I' for Inactive)
REMARK    1  A    between atoms: C_10  and  N_1 
REMARK    2  A    between atoms: C_4  and  C_7 
REMARK    3  A    between atoms: C_7  and  N_11 
REMARK    4  A    between atoms: C_8  and  C_9 
REMARK       I    between atoms: N_11  and  C_8 
REMARK    5  A    between atoms: C_9  and  C_10 
ROOT
ATOM      1  C   UNL d   1       1.471   4.949   0.099  0.00  0.00     0.219 C 
ATOM      2  N   UNL d   1       2.633   5.178  -0.596  0.00  0.00    -0.357 N 
ATOM      3  O   UNL d   1       0.855   5.856   0.651  0.00  0.00    -0.274 OA
ATOM      4  H   UNL d   1       3.209   4.405  -0.897  0.00  0.00     0.162 HD
ENDROOT
BRANCH   1   5
ATOM      5  C   UNL d   1       0.878   3.557   0.027  0.00  0.00     0.123 C 
BRANCH   5   6
ATOM      6  C   UNL d   1       1.824   2.366  -0.029  0.00  0.00     0.138 C 
BRANCH   6   7
ATOM      7  N   UNL d   1       2.806   2.260   1.036  0.00  0.00    -0.355 N 
ATOM      8  C   UNL d   1       4.159   2.228   0.807  0.00  0.00     0.099 A 
ATOM      9  C   UNL d   1       4.805   2.004   2.005  0.00  0.00    -0.034 A 
ATOM     10  C   UNL d   1       6.271   1.875   2.209  0.00  0.00     0.050 C 
ATOM     11  C   UNL d   1       3.791   1.891   3.005  0.00  0.00    -0.002 A 
ATOM     12  C   UNL d   1       2.549   2.032   2.373  0.00  0.00     0.045 A 
ATOM     13  C   UNL d   1       3.825   1.654   4.397  0.00  0.00     0.014 A 
ATOM     14  C   UNL d   1       1.345   1.927   3.090  0.00  0.00     0.030 A 
ATOM     15  C   UNL d   1       1.408   1.699   4.468  0.00  0.00     0.002 A 
ATOM     16  C   UNL d   1       2.630   1.566   5.117  0.00  0.00     0.001 A 
ENDBRANCH   6   7
ENDBRANCH   5   6
ENDBRANCH   1   5
BRANCH   2  17
ATOM     17  C   UNL d   1       3.226   6.501  -0.586  0.00  0.00     0.166 C 
BRANCH  17  18
ATOM     18  C   UNL d   1       4.507   6.664  -1.369  0.00  0.00     0.020 A 
ATOM     19  C   UNL d   1       5.178   5.590  -1.968  0.00  0.00     0.126 A 
ATOM     20  F   UNL d   1       4.714   4.338  -1.834  0.00  0.00    -0.205 F 
ATOM     21  C   UNL d   1       6.335   5.768  -2.727  0.00  0.00     0.043 A 
ATOM     22  C   UNL d   1       6.861   7.043  -2.903  0.00  0.00     0.005 A 
ATOM     23  C   UNL d   1       6.239   8.128  -2.292  0.00  0.00     0.024 A 
ATOM     24  C   UNL d   1       5.081   7.940  -1.525  0.00  0.00     0.044 A 
ATOM     25 CL   UNL d   1       4.396   9.344  -0.781  0.00  0.00    -0.084 Cl
ENDBRANCH  17  18
ENDBRANCH   2  17
TORSDOF 5
