REMARK  6 active torsions:
REMARK  status: ('A' for Active; 'I' for Inactive)
REMARK    1  A    between atoms: C_14  and  N_8 
REMARK    2  A    between atoms: S_12  and  C_20 
REMARK    3  A    between atoms: C_19  and  S_12 
REMARK    4  A    between atoms: C_18  and  C_14 
REMARK    5  A    between atoms: C_20  and  C_18 
REMARK    6  A    between atoms: O_29  and  C_18 
ROOT
ATOM      1  C   UNL d   1      -3.053   0.297  -0.290  0.00  0.00     0.148 A 
ATOM      2  N   UNL d   1      -2.308  -0.478   0.470  0.00  0.00    -0.336 N 
ATOM      3  HN  UNL d   1      -2.662  -1.016   1.261  1.00  0.00     0.168 HD
ATOM      4  S   UNL d   1      -2.145   1.143  -1.499  0.00  0.00    -0.052 SA
ATOM      5  N   UNL d   1      -4.402   0.424  -0.122  0.00  0.00    -0.358 N 
ATOM      6  C   UNL d   1      -0.703   0.350  -1.018  0.00  0.00     0.036 A 
ATOM      7  C   UNL d   1      -0.987  -0.473   0.067  0.00  0.00     0.051 A 
ATOM      8  N   UNL d   1      -7.151  -0.602  -0.557  0.00  0.00     0.094 N 
ATOM      9  C   UNL d   1       0.588   0.449  -1.564  0.00  0.00     0.045 A 
ATOM     10  C   UNL d   1      -5.071  -0.348   0.931  0.00  0.00     0.155 C 
ATOM     11  C   UNL d   1      -5.293   1.111  -1.062  0.00  0.00     0.155 C 
ATOM     12  C   UNL d   1       0.059  -1.225   0.643  0.00  0.00     0.032 A 
ATOM     13  C   UNL d   1       1.600  -0.322  -0.987  0.00  0.00     0.035 A 
ATOM     14  C   UNL d   1      -6.148  -1.279   0.318  0.00  0.00     0.292 C 
ATOM     15  C   UNL d   1      -6.392   0.150  -1.588  0.00  0.00     0.292 C 
ATOM     16  C   UNL d   1       1.349  -1.147   0.105  0.00  0.00     0.026 A 
ATOM     17 CL   UNL d   1       3.189  -0.253  -1.648  0.00  0.00    -0.084 Cl
ENDROOT
BRANCH   8  18
ATOM     18  C   UNL d   1      -8.034   0.252   0.258  0.00  0.00     0.304 C 
BRANCH  18  19
ATOM     19  C   UNL d   1      -9.174   1.022  -0.454  0.00  0.00     0.156 C 
BRANCH  19  20
ATOM     20  C   UNL d   1     -10.190   0.124  -1.188  0.00  0.00     0.113 C 
BRANCH  20  21
ATOM     21  S   UNL d   1     -11.345   1.197  -2.147  0.00  0.00    -0.127 SA
BRANCH  21  22
ATOM     22  C   UNL d   1     -12.648   0.110  -2.707  0.00  0.00     0.000 A 
ATOM     23  C   UNL d   1     -12.591  -1.287  -2.691  0.00  0.00     0.021 A 
ATOM     24  C   UNL d   1     -13.665  -2.046  -3.172  0.00  0.00     0.043 A 
ATOM     25  C   UNL d   1     -14.795  -1.410  -3.674  0.00  0.00     0.116 A 
ATOM     26  C   UNL d   1     -14.872  -0.025  -3.707  0.00  0.00     0.043 A 
ATOM     27  F   UNL d   1     -15.817  -2.142  -4.136  0.00  0.00    -0.206 F 
ATOM     28  C   UNL d   1     -13.801   0.730  -3.225  0.00  0.00     0.021 A 
ENDBRANCH  21  22
ENDBRANCH  20  21
ENDBRANCH  19  20
BRANCH  19  29
ATOM     29  O   UNL d   1      -9.837   1.801   0.561  0.00  0.00    -0.393 OA
ATOM     30  H   UNL d   1     -10.331   1.192   1.136  0.00  0.00     0.210 HD
ENDBRANCH  19  29
ENDBRANCH  18  19
ENDBRANCH   8  18
TORSDOF 6
