REMARK  5 active torsions:
REMARK  status: ('A' for Active; 'I' for Inactive)
REMARK    1  A    between atoms: C_8  and  S_1 
REMARK    2  A    between atoms: N_9  and  S_1 
REMARK    3  A    between atoms: C_17  and  N_9 
REMARK    4  A    between atoms: O_25  and  C_13 
REMARK    5  A    between atoms: O_26  and  C_19 
ROOT
ATOM      1  C   UNL d   1       3.538   4.706  -2.401  0.00  0.00     0.199 A 
ATOM      2  C   UNL d   1       3.818   6.146  -2.381  0.00  0.00     0.066 A 
ATOM      3  C   UNL d   1       2.393   4.239  -1.608  0.00  0.00     0.051 A 
ATOM      4  C   UNL d   1       2.997   6.982  -1.643  0.00  0.00     0.162 A 
ATOM      5  O   UNL d   1       1.924   6.532  -0.909  0.00  0.00    -0.292 OA
ATOM      6  C   UNL d   1       1.652   5.187  -0.905  0.00  0.00     0.092 A 
ATOM      7  N   UNL d   1       3.184   8.323  -1.583  0.00  0.00    -0.346 N 
ATOM      8  HN  UNL d   1       2.564   8.922  -1.038  1.00  0.00     0.167 HD
ATOM      9  C   UNL d   1       2.040   2.884  -1.579  0.00  0.00     0.048 A 
ATOM     10  C   UNL d   1       0.930   2.488  -0.835  0.00  0.00     0.043 A 
ATOM     11  O   UNL d   1       4.224   3.934  -3.056  0.00  0.00    -0.286 OA
ATOM     12  C   UNL d   1       0.550   4.778  -0.153  0.00  0.00     0.040 A 
ATOM     13  C   UNL d   1       0.186   3.430  -0.124  0.00  0.00     0.033 A 
ATOM     14  C   UNL d   1       4.889   6.692  -3.088  0.00  0.00     0.021 A 
ATOM     15  C   UNL d   1       4.228   8.833  -2.277  0.00  0.00     0.090 A 
ATOM     16  C   UNL d   1       5.100   8.066  -3.034  0.00  0.00     0.018 A 
ENDROOT
BRANCH  10  17
ATOM     17  N   UNL d   1       0.466   1.156  -0.882  0.00  0.00    -0.281 N 
ATOM     18  H   UNL d   1      -0.228   0.871  -1.570  0.00  0.00     0.179 HD
BRANCH  17  19
ATOM     19  S   UNL d   1       1.089  -0.045   0.097  0.00  0.00     0.263 S 
ATOM     20  O   UNL d   1       0.356  -1.248  -0.230  0.00  0.00    -0.200 OA
ATOM     21  O   UNL d   1       2.534  -0.007   0.038  0.00  0.00    -0.200 OA
BRANCH  19  22
ATOM     22  C   UNL d   1       0.587   0.458   1.728  0.00  0.00     0.082 A 
ATOM     23  C   UNL d   1       1.477   1.197   2.513  0.00  0.00     0.065 A 
ATOM     24  C   UNL d   1       1.139   1.524   3.830  0.00  0.00     0.102 A 
ATOM     25  C   UNL d   1      -0.101   1.104   4.358  0.00  0.00     0.101 A 
ATOM     26  C   UNL d   1      -0.987   0.376   3.552  0.00  0.00     0.041 A 
ATOM     27  C   UNL d   1      -0.641   0.042   2.240  0.00  0.00     0.028 A 
BRANCH  24  28
ATOM     28  O   UNL d   1       1.954   2.231   4.680  0.00  0.00    -0.353 OA
ATOM     29  C   UNL d   1       3.212   2.663   4.176  0.00  0.00     0.210 C 
ENDBRANCH  24  28
BRANCH  25  30
ATOM     30  O   UNL d   1      -0.347   1.438   5.667  0.00  0.00    -0.353 OA
ATOM     31  C   UNL d   1      -1.569   0.997   6.244  0.00  0.00     0.210 C 
ENDBRANCH  25  30
ENDBRANCH  19  22
ENDBRANCH  17  19
ENDBRANCH  10  17
TORSDOF 5
