REMARK  4 active torsions:
REMARK  status: ('A' for Active; 'I' for Inactive)
REMARK    1  A    between atoms: S_2  and  C_1 
REMARK    2  A    between atoms: N_7  and  S_2 
REMARK    3  A    between atoms: C_8  and  C_3 
REMARK    4  A    between atoms: O_15  and  C_8 
ROOT
ATOM      1  C   UNL d   1       0.657   1.405   0.204  0.00  0.00     0.122 A 
ATOM      2  C   UNL d   1      -0.772   1.374   0.375  0.00  0.00     0.094 A 
ATOM      3  C   UNL d   1       1.084   0.089   0.151  0.00  0.00     0.073 A 
ATOM      4  C   UNL d   1      -1.110   0.030   0.284  0.00  0.00     0.067 A 
ATOM      5  O   UNL d   1       0.004  -0.738   0.177  0.00  0.00    -0.318 OA
ATOM      6  C   UNL d   1       2.376  -0.624   0.058  0.00  0.00     0.078 C 
ATOM      7  C   UNL d   1      -2.383  -0.727   0.257  0.00  0.00     0.078 C 
ENDROOT
BRANCH   1   8
ATOM      8  S   UNL d   1       1.640   2.815   0.077  0.00  0.00     0.247 S 
ATOM      9  O   UNL d   1       1.363   3.552   1.291  0.00  0.00    -0.206 OA
ATOM     10  O   UNL d   1       2.976   2.349  -0.217  0.00  0.00    -0.206 OA
BRANCH   8  11
ATOM     11  N   UNL d   1       1.102   3.698  -1.268  0.00  0.00    -0.202 NA
ATOM     12  C   UNL d   1       1.358   3.094  -2.613  0.00  0.00     0.134 C 
ATOM     13  C   UNL d   1       2.752   3.454  -3.147  0.00  0.00     0.183 C 
ATOM     14  O   UNL d   1       2.961   4.874  -3.149  0.00  0.00    -0.389 OA
ATOM     15  C   UNL d   1       2.836   5.403  -1.821  0.00  0.00     0.183 C 
ATOM     16  C   UNL d   1       1.430   5.152  -1.270  0.00  0.00     0.134 C 
ENDBRANCH   8  11
ENDBRANCH   1   8
BRANCH   2  17
ATOM     17  C   UNL d   1      -1.753   2.433   0.584  0.00  0.00     0.297 C 
ATOM     18  O   UNL d   1      -2.918   2.209   0.892  0.00  0.00    -0.259 OA
BRANCH  17  19
ATOM     19  O   UNL d   1      -1.267   3.687   0.395  0.00  0.00    -0.322 OA
ATOM     20  C   UNL d   1      -2.226   4.726   0.600  0.00  0.00     0.213 C 
ENDBRANCH  17  19
ENDBRANCH   2  17
TORSDOF 4
