REMARK  5 active torsions:
REMARK  status: ('A' for Active; 'I' for Inactive)
REMARK    1  A    between atoms: N_6  and  S_1 
REMARK    2  A    between atoms: C_12  and  S_1 
REMARK    3  A    between atoms: C_4  and  N_9 
REMARK    4  A    between atoms: C_19  and  C_5 
REMARK    5  A    between atoms: C_23  and  C_24 
ROOT
ATOM      1  C   UNL d   1      -1.025  -3.614   4.183  0.00  0.00     0.076 A 
ATOM      2  S   UNL d   1       0.546  -3.437   4.901  0.00  0.00    -0.084 SA
ATOM      3  C   UNL d   1      -1.537  -3.318   2.890  0.00  0.00     0.123 A 
ATOM      4  C   UNL d   1       0.052  -4.004   6.443  0.00  0.00     0.018 A 
ATOM      5  C   UNL d   1      -1.279  -4.363   6.401  0.00  0.00     0.050 A 
ATOM      6  C   UNL d   1      -1.895  -4.136   5.143  0.00  0.00     0.055 A 
ATOM      7  N   UNL d   1      -2.872  -3.560   2.720  0.00  0.00    -0.338 N 
ATOM      8  HN  UNL d   1      -3.311  -3.342   1.825  1.00  0.00     0.168 HD
ATOM      9  N   UNL d   1      -3.203  -4.395   4.921  0.00  0.00    -0.351 N 
ATOM     10  HN  UNL d   1      -3.819  -4.799   5.627  1.00  0.00     0.166 HD
ATOM     11  C   UNL d   1      -3.611  -4.076   3.704  0.00  0.00     0.182 A 
ENDROOT
BRANCH   3  12
ATOM     12  N   UNL d   1      -0.874  -2.852   1.748  0.00  0.00    -0.364 N 
ATOM     13  C   UNL d   1       0.586  -2.712   1.699  0.00  0.00     0.140 C 
ATOM     14  C   UNL d   1       1.085  -2.485   0.255  0.00  0.00     0.127 C 
ATOM     15  N   UNL d   1       0.375  -1.351  -0.426  0.00  0.00    -0.203 NA
ATOM     16  C   UNL d   1      -1.086  -1.658  -0.467  0.00  0.00     0.127 C 
ATOM     17  C   UNL d   1      -1.677  -1.898   0.942  0.00  0.00     0.140 C 
BRANCH  15  18
ATOM     18  S   UNL d   1       0.802   0.215   0.092  0.00  0.00     0.243 S 
ATOM     19  O   UNL d   1       2.094   0.136   0.730  0.00  0.00    -0.206 OA
ATOM     20  O   UNL d   1      -0.325   0.799   0.794  0.00  0.00    -0.206 OA
BRANCH  18  21
ATOM     21  C   UNL d   1       1.023   1.147  -1.415  0.00  0.00     0.074 A 
ATOM     22  C   UNL d   1      -0.035   1.888  -1.956  0.00  0.00     0.025 A 
ATOM     23  C   UNL d   1       0.216   2.846  -2.947  0.00  0.00     0.008 A 
ATOM     24  C   UNL d   1       1.528   3.092  -3.382  0.00  0.00    -0.062 A 
ATOM     25  C   UNL d   1       2.571   2.306  -2.879  0.00  0.00     0.008 A 
ATOM     26  C   UNL d   1       1.817   4.190  -4.368  0.00  0.00     0.048 C 
ATOM     27  C   UNL d   1       2.323   1.338  -1.900  0.00  0.00     0.025 A 
ENDBRANCH  18  21
ENDBRANCH  15  18
ENDBRANCH   3  12
BRANCH   4  28
ATOM     28  C   UNL d   1       0.951  -4.078   7.614  0.00  0.00    -0.019 A 
ATOM     29  C   UNL d   1       2.083  -3.271   7.779  0.00  0.00     0.013 A 
ATOM     30  C   UNL d   1       2.847  -3.324   8.961  0.00  0.00     0.009 A 
ATOM     31  C   UNL d   1       2.512  -4.184  10.024  0.00  0.00    -0.051 A 
ATOM     32  C   UNL d   1       1.389  -5.000   9.842  0.00  0.00     0.009 A 
ATOM     33  C   UNL d   1       0.634  -4.951   8.666  0.00  0.00     0.013 A 
BRANCH  31  34
ATOM     34  C   UNL d   1       3.351  -4.228  11.314  0.00  0.00    -0.024 C 
ATOM     35  C   UNL d   1       2.809  -5.233  12.360  0.00  0.00     0.019 C 
ATOM     36  C   UNL d   1       4.797  -4.647  10.980  0.00  0.00     0.019 C 
ATOM     37  C   UNL d   1       3.374  -2.841  11.993  0.00  0.00     0.019 C 
ENDBRANCH  31  34
ENDBRANCH   4  28
TORSDOF 5
