REMARK  3 active torsions:
REMARK  status: ('A' for Active; 'I' for Inactive)
REMARK    1  A    between atoms: C_7  and  N_1 
REMARK    2  A    between atoms: C_12  and  C_6 
REMARK    3  A    between atoms: C_9  and  C_14 
ROOT
ATOM      1  N   UNL d   1       2.118   0.926   0.274  0.00  0.00    -0.279 N 
ATOM      2  N   UNL d   1       1.228   1.749  -0.379  0.00  0.00    -0.303 N 
ATOM      3  HN  UNL d   1       1.411   2.691  -0.726  1.00  0.00     0.186 HD
ATOM      4  C   UNL d   1       0.115   1.093  -0.466  0.00  0.00     0.044 C 
ATOM      5  C   UNL d   1       0.105  -0.331   0.029  0.00  0.00     0.299 C 
ATOM      6  C   UNL d   1       1.624  -0.472   0.318  0.00  0.00     0.180 C 
ATOM      7  N   UNL d   1      -1.067  -0.388   0.973  0.00  0.00     0.101 N 
ATOM      8  C   UNL d   1      -1.236   1.736  -0.602  0.00  0.00     0.038 C 
ATOM      9  C   UNL d   1      -2.284  -0.455   0.106  0.00  0.00     0.274 C 
ATOM     10  C   UNL d   1      -1.210   0.885   1.756  0.00  0.00     0.274 C 
ATOM     11  C   UNL d   1      -2.253   0.647  -0.988  0.00  0.00     0.041 C 
ATOM     12  C   UNL d   1      -1.515   2.119   0.860  0.00  0.00     0.041 C 
ENDROOT
BRANCH   6  13
ATOM     13  C   UNL d   1       2.063  -1.278   1.524  0.00  0.00    -0.031 A 
ATOM     14  C   UNL d   1       2.803  -2.458   1.329  0.00  0.00     0.010 A 
ATOM     15  C   UNL d   1       3.319  -3.176   2.412  0.00  0.00     0.017 A 
ATOM     16  C   UNL d   1       3.106  -2.737   3.725  0.00  0.00     0.047 A 
ATOM     17  C   UNL d   1       2.348  -1.578   3.928  0.00  0.00     0.017 A 
ATOM     18  C   UNL d   1       1.837  -0.860   2.841  0.00  0.00     0.010 A 
BRANCH  16  19
ATOM     19  C   UNL d   1       3.705  -3.494   4.884  0.00  0.00     0.417 C 
ATOM     20  F   UNL d   1       3.465  -2.920   6.096  0.00  0.00    -0.166 F 
ATOM     21  F   UNL d   1       3.232  -4.768   4.975  0.00  0.00    -0.166 F 
ATOM     22  F   UNL d   1       5.059  -3.605   4.788  0.00  0.00    -0.166 F 
ENDBRANCH  16  19
ENDBRANCH   6  13
BRANCH   1  23
ATOM     23  C   UNL d   1       3.494   1.152   0.077  0.00  0.00     0.075 A 
ATOM     24  C   UNL d   1       4.327   1.086   1.212  0.00  0.00     0.056 A 
ATOM     25  C   UNL d   1       5.695   1.343   1.132  0.00  0.00     0.036 A 
ATOM     26 CL   UNL d   1       6.666   1.238   2.548  0.00  0.00    -0.084 Cl
ATOM     27  C   UNL d   1       6.272   1.690  -0.082  0.00  0.00     0.026 A 
ATOM     28  C   UNL d   1       5.475   1.758  -1.224  0.00  0.00     0.028 A 
ATOM     29  C   UNL d   1       4.100   1.481  -1.152  0.00  0.00     0.062 A 
ATOM     30 CL   UNL d   1       3.235   1.494  -2.654  0.00  0.00    -0.082 Cl
ENDBRANCH   1  23
TORSDOF 3
