REMARK  7 active torsions:
REMARK  status: ('A' for Active; 'I' for Inactive)
REMARK    1  A    between atoms: N_2  and  S_1 
REMARK    2  A    between atoms: C_6  and  S_1 
REMARK       I    between atoms: C_3  and  N_2 
REMARK    3  A    between atoms: O_9  and  C_3 
REMARK    4  A    between atoms: N_4  and  O_9 
REMARK    5  A    between atoms: C_10  and  C_12 
REMARK    6  A    between atoms: C_13  and  C_11 
REMARK    7  A    between atoms: C_27  and  C_11 
ROOT
ATOM      1  N   UNL d   1       2.071   1.119   1.958  0.00  0.00    -0.260 N 
ATOM      2  HN  UNL d   1       1.902   0.427   1.228  1.00  0.00     0.194 HD
ATOM      3  C   UNL d   1       2.725   0.880   3.067  0.00  0.00     0.042 C 
ENDROOT
BRANCH   1   4
ATOM      4  O   UNL d   1       1.627   2.463   1.906  0.00  0.00    -0.180 OA
BRANCH   4   5
ATOM      5  C   UNL d   1       0.762   2.706   0.856  0.00  0.00     0.396 C 
ATOM      6  N   UNL d   1       0.613   1.680  -0.069  0.00  0.00    -0.224 N 
ATOM      7  H   UNL d   1       1.154   0.837   0.102  0.00  0.00     0.184 HD
ATOM      8  O   UNL d   1       0.194   3.786   0.756  0.00  0.00    -0.235 OA
BRANCH   6   9
ATOM      9  S   UNL d   1      -0.514   1.626  -1.268  0.00  0.00     0.267 S 
ATOM     10  O   UNL d   1      -1.823   1.834  -0.690  0.00  0.00    -0.200 OA
ATOM     11  O   UNL d   1      -0.233   0.419  -2.019  0.00  0.00    -0.200 OA
BRANCH   9  12
ATOM     12  C   UNL d   1      -0.134   3.003  -2.328  0.00  0.00     0.080 A 
ATOM     13  C   UNL d   1       0.744   2.840  -3.404  0.00  0.00     0.026 A 
ATOM     14  C   UNL d   1       0.950   3.899  -4.295  0.00  0.00     0.008 A 
ATOM     15  C   UNL d   1       0.276   5.117  -4.125  0.00  0.00    -0.062 A 
ATOM     16  C   UNL d   1      -0.604   5.266  -3.047  0.00  0.00     0.008 A 
ATOM     17  C   UNL d   1       0.480   6.234  -5.109  0.00  0.00     0.048 C 
ATOM     18  C   UNL d   1      -0.817   4.212  -2.156  0.00  0.00     0.026 A 
ENDBRANCH   9  12
ENDBRANCH   6   9
ENDBRANCH   4   5
ENDBRANCH   1   4
BRANCH   3  19
ATOM     19  C   UNL d   1       3.254  -0.513   3.312  0.00  0.00    -0.012 A 
ATOM     20  C   UNL d   1       2.910  -1.528   2.414  0.00  0.00     0.014 A 
ATOM     21  C   UNL d   1       3.379  -2.837   2.590  0.00  0.00     0.013 A 
ATOM     22  C   UNL d   1       4.193  -3.196   3.677  0.00  0.00    -0.023 A 
ATOM     23  C   UNL d   1       4.521  -2.167   4.579  0.00  0.00     0.013 A 
ATOM     24  C   UNL d   1       4.071  -0.846   4.397  0.00  0.00     0.014 A 
BRANCH  22  25
ATOM     25  C   UNL d   1       4.698  -4.584   3.840  0.00  0.00     0.013 A 
ATOM     26  C   UNL d   1       3.943  -5.710   3.462  0.00  0.00     0.127 A 
ATOM     27  F   UNL d   1       2.694  -5.568   2.988  0.00  0.00    -0.205 F 
ATOM     28  C   UNL d   1       4.440  -7.011   3.560  0.00  0.00     0.043 A 
ATOM     29  C   UNL d   1       5.717  -7.230   4.064  0.00  0.00     0.003 A 
ATOM     30  C   UNL d   1       6.487  -6.144   4.469  0.00  0.00     0.001 A 
ATOM     31  C   UNL d   1       5.985  -4.840   4.355  0.00  0.00     0.015 A 
ENDBRANCH  22  25
ENDBRANCH   3  19
BRANCH   3  32
ATOM     32  C   UNL d   1       2.981   1.964   4.118  0.00  0.00     0.055 C 
ATOM     33  C   UNL d   1       4.222   2.773   3.778  0.00  0.00     0.011 C 
ENDBRANCH   3  32
TORSDOF 7
