REMARK  3 active torsions:
REMARK  status: ('A' for Active; 'I' for Inactive)
REMARK    1  A    between atoms: C_2  and  C_1 
REMARK       I    between atoms: N_7  and  C_2 
REMARK    2  A    between atoms: N_3  and  N_7 
REMARK    3  A    between atoms: C_12  and  C_11 
ROOT
ATOM      1  C   UNL d   1       0.255   2.065   0.332  0.00  0.00     0.273 C 
ATOM      2  N   UNL d   1       1.279   2.866  -0.166  0.00  0.00    -0.266 N 
ATOM      3  O   UNL d   1       0.346   0.852   0.495  0.00  0.00    -0.266 OA
ATOM      4  H   UNL d   1       1.186   3.876  -0.154  0.00  0.00     0.190 HD
ENDROOT
BRANCH   2   5
ATOM      5  N   UNL d   1       2.529   2.331  -0.309  0.00  0.00    -0.308 N 
ATOM      6  C   UNL d   1       3.472   3.159  -0.623  0.00  0.00     0.120 C 
ATOM      7  HN  UNL d   1       2.707   1.335  -0.177  1.00  0.00     0.186 HD
BRANCH   6   8
ATOM      8  C   UNL d   1       4.881   2.725  -0.703  0.00  0.00    -0.004 A 
ATOM      9  C   UNL d   1       5.864   3.635  -1.057  0.00  0.00     0.100 A 
ATOM     10  N   UNL d   1       7.187   3.337  -1.080  0.00  0.00    -0.374 N 
ATOM     11  C   UNL d   1       7.532   2.077  -0.740  0.00  0.00     0.087 A 
ATOM     12  HN  UNL d   1       7.887   4.032  -1.342  1.00  0.00     0.164 HD
ATOM     13  C   UNL d   1       6.616   1.088  -0.394  0.00  0.00     0.018 A 
ATOM     14  C   UNL d   1       5.265   1.424  -0.381  0.00  0.00     0.015 A 
ENDBRANCH   6   8
ENDBRANCH   2   5
BRANCH   1  15
ATOM     15  C   UNL d   1      -1.012   2.764   0.700  0.00  0.00     0.077 A 
ATOM     16  C   UNL d   1      -2.260   2.175   0.407  0.00  0.00     0.051 A 
ATOM     17 CL   UNL d   1      -2.447   0.682  -0.448  0.00  0.00    -0.083 Cl
ATOM     18  C   UNL d   1      -3.458   2.815   0.774  0.00  0.00     0.025 A 
ATOM     19  C   UNL d   1      -3.435   4.037   1.434  0.00  0.00     0.003 A 
ATOM     20  C   UNL d   1      -2.213   4.621   1.746  0.00  0.00     0.025 A 
ATOM     21  C   UNL d   1      -1.010   3.990   1.393  0.00  0.00     0.051 A 
ATOM     22 CL   UNL d   1       0.433   4.805   1.902  0.00  0.00    -0.083 Cl
ENDBRANCH   1  15
TORSDOF 3
