REMARK  0 active torsions:
REMARK  status: ('A' for Active; 'I' for Inactive)
ROOT
ATOM      1  S   UNL d   1      -1.887   0.134   1.001  0.00  0.00     0.148 S 
ATOM      2  C   UNL d   1      -0.097  -0.757  -0.709  0.00  0.00     0.055 C 
ATOM      3  C   UNL d   1      -0.017   0.800  -0.769  0.00  0.00     0.098 C 
ATOM      4  C   UNL d   1       1.806  -0.269   0.667  0.00  0.00     0.134 C 
ATOM      5  N   UNL d   1       1.005  -1.216   0.131  0.00  0.00    -0.360 N 
ATOM      6  C   UNL d   1      -1.441  -1.164  -0.118  0.00  0.00     0.172 C 
ATOM      7  C   UNL d   1      -1.061   1.442   0.141  0.00  0.00     0.158 C 
ATOM      8  S   UNL d   1       1.656   1.249  -0.155  0.00  0.00    -0.086 SA
ATOM      9  O   UNL d   1      -3.314   0.344   0.903  0.00  0.00    -0.228 OA
ATOM     10  O   UNL d   1      -1.230  -0.095   2.264  0.00  0.00    -0.228 OA
ATOM     11  N   UNL d   1       2.557  -0.401   1.690  0.00  0.00    -0.380 N 
ATOM     12  HN  UNL d   1       2.706  -1.257   2.224  1.00  0.00     0.158 HD
ATOM     13  C   UNL d   1       0.068  -1.391  -2.096  0.00  0.00     0.041 C 
ATOM     14  H   UNL d   1       0.927  -2.068   0.676  0.00  0.00     0.162 HD
ATOM     15  H   UNL d   1       2.983   0.514   1.877  0.00  0.00     0.158 HD
ENDROOT
TORSDOF 0
