REMARK  3 active torsions:
REMARK  status: ('A' for Active; 'I' for Inactive)
REMARK    1  A    between atoms: C_5  and  C_4 
REMARK    2  A    between atoms: C_8  and  C_5 
REMARK    3  A    between atoms: O_11  and  C_8 
ROOT
ATOM      1  N   UNL d   1       0.756   1.352  -0.130  0.00  0.00    -0.325 N 
ATOM      2  C   UNL d   1       1.925   0.676   0.105  0.00  0.00     0.236 C 
ATOM      3  S   UNL d   1       0.624  -1.741  -0.036  0.00  0.00    -0.113 SA
ATOM      4  C   UNL d   1       1.844  -0.671   0.820  0.00  0.00     0.154 C 
ATOM      5  C   UNL d   1      -0.532   0.797  -0.092  0.00  0.00     0.051 A 
ATOM      6  C   UNL d   1      -0.743  -0.591  -0.045  0.00  0.00     0.028 A 
ATOM      7  O   UNL d   1       2.995   1.215  -0.172  0.00  0.00    -0.272 OA
ATOM      8  C   UNL d   1      -1.622   1.671  -0.114  0.00  0.00     0.031 A 
ATOM      9  C   UNL d   1      -2.047  -1.089  -0.010  0.00  0.00     0.021 A 
ATOM     10  C   UNL d   1      -2.920   1.165  -0.047  0.00  0.00     0.002 A 
ATOM     11  C   UNL d   1      -3.133  -0.212   0.003  0.00  0.00     0.002 A 
ATOM     12  H   UNL d   1       0.877   2.308  -0.443  0.00  0.00     0.169 HD
ENDROOT
BRANCH   4  13
ATOM     13  C   UNL d   1       1.423  -0.528   2.286  0.00  0.00     0.135 C 
BRANCH  13  14
ATOM     14  C   UNL d   1       2.391   0.311   3.072  0.00  0.00     0.141 C 
ATOM     15  O   UNL d   1       3.595   0.345   2.878  0.00  0.00    -0.650 OA
BRANCH  14  16
ATOM     16  O   UNL d   1       1.805   0.989   4.085  0.00  0.00    -0.776 OA
ATOM     17  H   UNL d   1       0.843   0.847   4.177  0.00  0.00     0.167 HD
ENDBRANCH  14  16
ENDBRANCH  13  14
ENDBRANCH   4  13
TORSDOF 3
