REMARK  9 active torsions:
REMARK  status: ('A' for Active; 'I' for Inactive)
REMARK    1  A    between atoms: N_8  and  C_1 
REMARK    2  A    between atoms: S_2  and  N_8 
REMARK    3  A    between atoms: C_10  and  S_2 
REMARK    4  A    between atoms: C_27  and  C_3 
REMARK    5  A    between atoms: C_9  and  N_4 
REMARK    6  A    between atoms: C_11  and  C_16 
REMARK    7  A    between atoms: C_12  and  C_15 
REMARK    8  A    between atoms: C_13  and  C_17 
REMARK    9  A    between atoms: C_14  and  C_18 
ROOT
ATOM      1  C   UNL d   1       0.057  -1.277   0.202  0.00  0.00     0.158 C 
ATOM      2  C   UNL d   1       1.345  -0.802   0.425  0.00  0.00     0.111 C 
ATOM      3  N   UNL d   1       1.146   0.587   0.413  0.00  0.00    -0.235 N 
ATOM      4  N   UNL d   1      -0.167   0.860   0.581  0.00  0.00    -0.013 NA
ATOM      5  N   UNL d   1      -0.838  -0.250   0.308  0.00  0.00    -0.266 N 
ATOM      6  HN  UNL d   1      -1.849  -0.324   0.195  1.00  0.00     0.186 HD
ENDROOT
BRANCH   1   7
ATOM      7  N   UNL d   1      -0.362  -2.525  -0.241  0.00  0.00    -0.263 N 
ATOM      8  H   UNL d   1      -1.026  -2.522  -1.012  0.00  0.00     0.180 HD
BRANCH   7   9
ATOM      9  S   UNL d   1      -0.626  -3.837   0.762  0.00  0.00     0.264 S 
ATOM     10  O   UNL d   1      -1.010  -4.918  -0.115  0.00  0.00    -0.200 OA
ATOM     11  O   UNL d   1       0.492  -3.983   1.671  0.00  0.00    -0.200 OA
BRANCH   9  12
ATOM     12  C   UNL d   1      -2.063  -3.463   1.776  0.00  0.00     0.081 A 
ATOM     13  C   UNL d   1      -3.228  -4.239   1.628  0.00  0.00     0.041 A 
ATOM     14  C   UNL d   1      -4.222  -4.231   2.625  0.00  0.00     0.050 A 
ATOM     15  C   UNL d   1      -4.060  -3.386   3.736  0.00  0.00     0.032 A 
ATOM     16  C   UNL d   1      -2.905  -2.595   3.888  0.00  0.00     0.050 A 
ATOM     17  C   UNL d   1      -1.909  -2.640   2.897  0.00  0.00     0.041 A 
BRANCH  14  18
ATOM     18  C   UNL d   1      -5.388  -5.200   2.594  0.00  0.00     0.417 C 
ATOM     19  F   UNL d   1      -5.377  -6.032   1.517  0.00  0.00    -0.166 F 
ATOM     20  F   UNL d   1      -5.403  -6.010   3.689  0.00  0.00    -0.166 F 
ATOM     21  F   UNL d   1      -6.596  -4.574   2.578  0.00  0.00    -0.166 F 
ENDBRANCH  14  18
BRANCH  16  22
ATOM     22  C   UNL d   1      -2.711  -1.803   5.163  0.00  0.00     0.417 C 
ATOM     23  F   UNL d   1      -1.508  -1.171   5.232  0.00  0.00    -0.166 F 
ATOM     24  F   UNL d   1      -3.657  -0.840   5.330  0.00  0.00    -0.166 F 
ATOM     25  F   UNL d   1      -2.783  -2.594   6.270  0.00  0.00    -0.166 F 
ENDBRANCH  16  22
ENDBRANCH   9  12
ENDBRANCH   7   9
ENDBRANCH   1   7
BRANCH   2  26
ATOM     26  C   UNL d   1       2.667  -1.440   0.530  0.00  0.00    -0.004 A 
ATOM     27  C   UNL d   1       3.013  -2.535  -0.267  0.00  0.00     0.014 A 
ATOM     28  C   UNL d   1       4.319  -3.039  -0.259  0.00  0.00     0.001 A 
ATOM     29  C   UNL d   1       5.298  -2.453   0.541  0.00  0.00     0.000 A 
ATOM     30  C   UNL d   1       4.966  -1.389   1.371  0.00  0.00     0.001 A 
ATOM     31  C   UNL d   1       3.654  -0.908   1.388  0.00  0.00     0.014 A 
ENDBRANCH   2  26
BRANCH   3  32
ATOM     32  C   UNL d   1       2.083   1.636   0.173  0.00  0.00     0.056 A 
ATOM     33  C   UNL d   1       3.203   1.417  -0.649  0.00  0.00     0.047 A 
ATOM     34  C   UNL d   1       4.191   2.398  -0.805  0.00  0.00     0.050 A 
ATOM     35  C   UNL d   1       4.032   3.622  -0.139  0.00  0.00     0.032 A 
ATOM     36  C   UNL d   1       2.890   3.883   0.642  0.00  0.00     0.050 A 
ATOM     37  C   UNL d   1       1.902   2.889   0.773  0.00  0.00     0.047 A 
BRANCH  34  38
ATOM     38  C   UNL d   1       5.420   2.138  -1.648  0.00  0.00     0.417 C 
ATOM     39  F   UNL d   1       5.414   0.922  -2.260  0.00  0.00    -0.166 F 
ATOM     40  F   UNL d   1       5.571   3.056  -2.642  0.00  0.00    -0.166 F 
ATOM     41  F   UNL d   1       6.567   2.184  -0.916  0.00  0.00    -0.166 F 
ENDBRANCH  34  38
BRANCH  36  42
ATOM     42  C   UNL d   1       2.774   5.207   1.364  0.00  0.00     0.417 C 
ATOM     43  F   UNL d   1       1.609   5.356   2.050  0.00  0.00    -0.166 F 
ATOM     44  F   UNL d   1       3.772   5.379   2.276  0.00  0.00    -0.166 F 
ATOM     45  F   UNL d   1       2.855   6.269   0.518  0.00  0.00    -0.166 F 
ENDBRANCH  36  42
ENDBRANCH   3  32
TORSDOF 9
