REMARK  4 active torsions:
REMARK  status: ('A' for Active; 'I' for Inactive)
REMARK    1  A    between atoms: C_3  and  C_1 
REMARK    2  A    between atoms: C_2  and  C_6 
REMARK    3  A    between atoms: O_7  and  C_3 
REMARK    4  A    between atoms: N_4  and  O_7 
ROOT
ATOM      1  N   UNL d   1      -2.375   2.513  -0.018  0.00  0.00    -0.261 N 
ATOM      2  HN  UNL d   1      -1.506   3.048  -0.012  1.00  0.00     0.194 HD
ATOM      3  C   UNL d   1      -3.550   3.065  -0.035  0.00  0.00     0.045 C 
ATOM      4  C   UNL d   1      -4.840   2.277  -0.042  0.00  0.00     0.071 C 
ENDROOT
BRANCH   1   5
ATOM      5  O   UNL d   1      -2.415   1.106  -0.010  0.00  0.00    -0.195 OA
BRANCH   5   6
ATOM      6  C   UNL d   1      -1.134   0.626  -0.081  0.00  0.00     0.321 C 
ATOM      7  O   UNL d   1      -0.118   1.299  -0.195  0.00  0.00    -0.257 OA
BRANCH   6   8
ATOM      8  C   UNL d   1      -1.092  -0.851   0.002  0.00  0.00     0.118 A 
ATOM      9  C   UNL d   1       0.146  -1.495  -0.112  0.00  0.00     0.135 A 
ATOM     10  F   UNL d   1       1.278  -0.811  -0.325  0.00  0.00    -0.205 F 
ATOM     11  C   UNL d   1       0.260  -2.884  -0.007  0.00  0.00     0.043 A 
ATOM     12  C   UNL d   1      -0.874  -3.659   0.214  0.00  0.00     0.006 A 
ATOM     13  C   UNL d   1      -2.115  -3.035   0.321  0.00  0.00     0.043 A 
ATOM     14  C   UNL d   1      -2.220  -1.644   0.216  0.00  0.00     0.135 A 
ATOM     15  F   UNL d   1      -3.444  -1.111   0.335  0.00  0.00    -0.205 F 
ENDBRANCH   6   8
ENDBRANCH   5   6
ENDBRANCH   1   5
BRANCH   3  16
ATOM     16  C   UNL d   1      -3.617   4.549  -0.036  0.00  0.00     0.065 A 
ATOM     17  C   UNL d   1      -2.683   5.291  -0.764  0.00  0.00     0.131 A 
ATOM     18  F   UNL d   1      -1.773   4.690  -1.545  0.00  0.00    -0.205 F 
ATOM     19  C   UNL d   1      -2.686   6.686  -0.730  0.00  0.00     0.043 A 
ATOM     20  C   UNL d   1      -3.635   7.362   0.034  0.00  0.00     0.006 A 
ATOM     21  C   UNL d   1      -4.579   6.633   0.757  0.00  0.00     0.043 A 
ATOM     22  C   UNL d   1      -4.561   5.237   0.724  0.00  0.00     0.131 A 
ATOM     23  F   UNL d   1      -5.460   4.578   1.468  0.00  0.00    -0.205 F 
ENDBRANCH   3  16
TORSDOF 4
