REMARK  2 active torsions:
REMARK  status: ('A' for Active; 'I' for Inactive)
REMARK    1  A    between atoms: C_6  and  C_3 
REMARK    2  A    between atoms: N_9  and  C_7 
ROOT
ATOM      1  C   UNL d   1       1.258  -0.620  -0.044  0.00  0.00     0.024 C 
ATOM      2  C   UNL d   1      -1.277  -0.624  -0.003  0.00  0.00     0.024 C 
ATOM      3  C   UNL d   1      -0.011  -1.460  -0.223  0.00  0.00     0.103 C 
ATOM      4  C   UNL d   1      -1.229   0.718   0.153  0.00  0.00     0.021 C 
ATOM      5  C   UNL d   1       1.215   0.715   0.151  0.00  0.00     0.021 C 
ATOM      6  N   UNL d   1      -0.006   1.366   0.190  0.00  0.00    -0.362 N 
ATOM      7  C   UNL d   1      -2.604  -1.310   0.032  0.00  0.00     0.159 C 
ATOM      8  C   UNL d   1       2.584  -1.301  -0.083  0.00  0.00     0.159 C 
ATOM      9  C   UNL d   1      -2.463   1.590   0.281  0.00  0.00     0.067 C 
ATOM     10  C   UNL d   1       2.451   1.576   0.338  0.00  0.00     0.067 C 
ATOM     11  C   UNL d   1      -3.775   0.890  -0.144  0.00  0.00    -0.036 C 
ATOM     12  C   UNL d   1       3.777   0.890  -0.063  0.00  0.00    -0.036 C 
ATOM     13  C   UNL d   1       3.770  -0.547   0.470  0.00  0.00     0.092 C 
ATOM     14  C   UNL d   1      -3.799  -0.504   0.493  0.00  0.00     0.092 C 
ATOM     15  O   UNL d   1       2.711  -2.434  -0.538  0.00  0.00    -0.293 OA
ATOM     16  O   UNL d   1      -2.729  -2.490  -0.281  0.00  0.00    -0.293 OA
ATOM     17  C   UNL d   1       3.951   0.888  -1.597  0.00  0.00     0.015 C 
ATOM     18  C   UNL d   1      -3.873   0.775  -1.681  0.00  0.00     0.015 C 
ATOM     19  C   UNL d   1       4.964   1.652   0.552  0.00  0.00     0.015 C 
ATOM     20  C   UNL d   1      -4.984   1.702   0.349  0.00  0.00     0.015 C 
ATOM     21  H   UNL d   1      -0.005   2.369   0.362  0.00  0.00     0.165 HD
ENDROOT
BRANCH   3  22
ATOM     22  C   UNL d   1       0.018  -2.769   0.554  0.00  0.00    -0.002 A 
ATOM     23  S   UNL d   1       0.006  -2.799   2.271  0.00  0.00    -0.070 SA
ATOM     24  C   UNL d   1       0.050  -4.497   2.293  0.00  0.00     0.144 A 
ATOM     25  C   UNL d   1       0.084  -5.054   1.033  0.00  0.00     0.045 A 
ATOM     26  C   UNL d   1       0.065  -4.048   0.026  0.00  0.00     0.018 A 
BRANCH  24  27
ATOM     27  N   UNL d   1       0.052  -5.213   3.539  0.00  0.00    -0.108 N 
ATOM     28  O   UNL d   1       0.099  -6.446   3.470  0.00  0.00    -0.531 OA
ATOM     29  O   UNL d   1       0.011  -4.562   4.595  0.00  0.00    -0.531 OA
ENDBRANCH  24  27
ENDBRANCH   3  22
TORSDOF 2
