REMARK  3 active torsions:
REMARK  status: ('A' for Active; 'I' for Inactive)
REMARK    1  A    between atoms: C_2  and  N_1 
REMARK    2  A    between atoms: C_3  and  C_5 
REMARK    3  A    between atoms: C_4  and  C_6 
ROOT
ATOM      1  C   UNL d   1       1.287   2.183  -1.121  0.00  0.00     0.046 A 
ATOM      2  C   UNL d   1       2.406   2.817  -3.224  0.00  0.00     0.050 A 
ATOM      3  C   UNL d   1       1.807   4.535  -1.606  0.00  0.00     0.050 A 
ATOM      4  C   UNL d   1       1.882   1.848  -2.353  0.00  0.00     0.046 A 
ATOM      5  C   UNL d   1       1.260   3.542  -0.770  0.00  0.00     0.046 A 
ATOM      6  C   UNL d   1       2.372   4.160  -2.834  0.00  0.00     0.032 A 
ENDROOT
BRANCH   1   7
ATOM      7  N   UNL d   1       0.582   1.159  -0.385  0.00  0.00    -0.251 N 
ATOM      8  C   UNL d   1       0.976  -0.173  -0.548  0.00  0.00     0.240 C 
ATOM      9  O   UNL d   1       2.140  -0.536  -0.726  0.00  0.00    -0.272 OA
ATOM     10  C   UNL d   1      -0.150  -1.185  -0.587  0.00  0.00     0.178 C 
ATOM     11  S   UNL d   1      -1.190  -1.089   0.879  0.00  0.00    -0.150 SA
ATOM     12  C   UNL d   1      -1.497   0.686   0.808  0.00  0.00     0.178 C 
ATOM     13  C   UNL d   1      -0.199   1.469   0.729  0.00  0.00     0.240 C 
ATOM     14  O   UNL d   1       0.060   2.327   1.573  0.00  0.00    -0.272 OA
ENDBRANCH   1   7
BRANCH   2  15
ATOM     15  C   UNL d   1       2.935   2.422  -4.582  0.00  0.00     0.417 C 
ATOM     16  F   UNL d   1       2.876   1.083  -4.821  0.00  0.00    -0.166 F 
ATOM     17  F   UNL d   1       2.228   3.007  -5.589  0.00  0.00    -0.166 F 
ATOM     18  F   UNL d   1       4.231   2.786  -4.769  0.00  0.00    -0.166 F 
ENDBRANCH   2  15
BRANCH   3  19
ATOM     19  C   UNL d   1       1.753   5.997  -1.221  0.00  0.00     0.417 C 
ATOM     20  F   UNL d   1       1.168   6.228  -0.014  0.00  0.00    -0.166 F 
ATOM     21  F   UNL d   1       2.988   6.564  -1.158  0.00  0.00    -0.166 F 
ATOM     22  F   UNL d   1       1.048   6.734  -2.123  0.00  0.00    -0.166 F 
ENDBRANCH   3  19
TORSDOF 3
