REMARK  2 active torsions:
REMARK  status: ('A' for Active; 'I' for Inactive)
REMARK    1  A    between atoms: C_3  and  N_1 
REMARK    2  A    between atoms: C_2  and  C_3 
ROOT
ATOM      1  C   UNL d   1       0.776   1.372  -1.832  0.00  0.00     0.366 C 
ATOM      2  N   UNL d   1       3.152   0.911  -2.933  0.00  0.00    -0.195 NA
ATOM      3  C   UNL d   1       2.126   1.147  -2.443  0.00  0.00     0.100 C 
ENDROOT
BRANCH   1   4
ATOM      4  C   UNL d   1       0.141   2.669  -2.331  0.00  0.00     0.049 A 
ATOM      5  C   UNL d   1      -1.196   2.616  -2.769  0.00  0.00     0.127 A 
ATOM      6  F   UNL d   1      -1.864   1.456  -2.729  0.00  0.00    -0.205 F 
ATOM      7  C   UNL d   1      -1.885   3.734  -3.227  0.00  0.00     0.043 A 
ATOM      8  C   UNL d   1      -1.233   4.956  -3.301  0.00  0.00     0.005 A 
ATOM      9  C   UNL d   1       0.093   5.047  -2.883  0.00  0.00     0.024 A 
ATOM     10  C   UNL d   1       0.768   3.924  -2.376  0.00  0.00     0.046 A 
ATOM     11 CL   UNL d   1       2.376   4.196  -1.805  0.00  0.00    -0.084 Cl
ENDBRANCH   1   4
BRANCH   1  12
ATOM     12  N   UNL d   1       0.738   1.236  -0.335  0.00  0.00     0.116 N 
ATOM     13  C   UNL d   1       1.411  -0.003   0.157  0.00  0.00     0.306 C 
ATOM     14  C   UNL d   1       0.653  -1.309  -0.191  0.00  0.00     0.146 C 
ATOM     15  C   UNL d   1       1.349  -2.530   0.395  0.00  0.00     0.041 C 
ATOM     16  O   UNL d   1      -0.685  -1.272   0.336  0.00  0.00    -0.378 OA
ATOM     17  C   UNL d   1      -1.402  -0.135  -0.169  0.00  0.00     0.146 C 
ATOM     18  C   UNL d   1      -0.655   1.173   0.196  0.00  0.00     0.306 C 
ATOM     19  C   UNL d   1      -2.811  -0.145   0.406  0.00  0.00     0.041 C 
ENDBRANCH   1  12
TORSDOF 2
