REMARK  9 active torsions:
REMARK  status: ('A' for Active; 'I' for Inactive)
REMARK    1  A    between atoms: C_8  and  C_1 
REMARK    2  A    between atoms: O_7  and  C_4 
REMARK    3  A    between atoms: C_9  and  C_6 
REMARK    4  A    between atoms: C_12  and  C_8 
REMARK    5  A    between atoms: O_10  and  C_9 
REMARK    6  A    between atoms: C_15  and  C_12 
REMARK    7  A    between atoms: C_13  and  C_14 
REMARK    8  A    between atoms: C_14  and  C_16 
REMARK    9  A    between atoms: C_16  and  C_15 
ROOT
ATOM      1  C   UNL d   1      -0.061   1.147   0.013  0.00  0.00     0.020 A 
ATOM      2  N   UNL d   1      -0.623  -0.887   0.919  0.00  0.00    -0.300 N 
ATOM      3  HN  UNL d   1      -0.829  -1.643   1.572  1.00  0.00     0.186 HD
ATOM      4  C   UNL d   1      -0.306   0.259  -1.012  0.00  0.00     0.163 A 
ATOM      5  N   UNL d   1      -0.643  -0.923  -0.423  0.00  0.00    -0.279 N 
ATOM      6  C   UNL d   1      -0.267   0.375   1.198  0.00  0.00     0.060 A 
ATOM      7  H   UNL d   1      -0.902  -1.788  -0.886  0.00  0.00     0.189 HD
ENDROOT
BRANCH   1   8
ATOM      8  C   UNL d   1       0.318   2.589  -0.068  0.00  0.00     0.045 C 
BRANCH   8   9
ATOM      9  C   UNL d   1       1.834   2.776  -0.068  0.00  0.00     0.005 C 
BRANCH   9  10
ATOM     10  C   UNL d   1       2.226   4.253  -0.100  0.00  0.00     0.000 C 
BRANCH  10  11
ATOM     11  C   UNL d   1       3.748   4.392  -0.113  0.00  0.00     0.000 C 
BRANCH  11  12
ATOM     12  C   UNL d   1       4.184   5.855  -0.149  0.00  0.00    -0.000 C 
BRANCH  12  13
ATOM     13  C   UNL d   1       5.708   5.965  -0.167  0.00  0.00    -0.005 C 
ATOM     14  C   UNL d   1       6.155   7.416  -0.205  0.00  0.00     0.005 C 
ENDBRANCH  12  13
ENDBRANCH  11  12
ENDBRANCH  10  11
ENDBRANCH   9  10
ENDBRANCH   8   9
ENDBRANCH   1   8
BRANCH   4  15
ATOM     15  O   UNL d   1      -0.275   0.365  -2.334  0.00  0.00    -0.345 OA
ATOM     16  H   UNL d   1       0.003   1.270  -2.548  0.00  0.00     0.219 HD
ENDBRANCH   4  15
BRANCH   6  17
ATOM     17  C   UNL d   1      -0.179   0.836   2.623  0.00  0.00     0.226 C 
BRANCH  17  18
ATOM     18  O   UNL d   1      -1.030   1.956   2.918  0.00  0.00    -0.390 OA
ATOM     19  C   UNL d   1      -2.409   1.630   2.789  0.00  0.00     0.201 C 
ENDBRANCH  17  18
ENDBRANCH   6  17
TORSDOF 9
