REMARK  5 active torsions:
REMARK  status: ('A' for Active; 'I' for Inactive)
REMARK    1  A    between atoms: C_10  and  C_3 
REMARK    2  A    between atoms: C_4  and  O_6 
REMARK       I    between atoms: N_11  and  C_4 
REMARK    3  A    between atoms: O_6  and  C_5 
REMARK    4  A    between atoms: C_19  and  C_12 
REMARK    5  A    between atoms: O_17  and  C_19 
ROOT
ATOM      1  N   UNL d   1       1.211   0.576  -0.007  0.00  0.00    -0.322 N 
ATOM      2  HN  UNL d   1       2.152   0.954  -0.121  1.00  0.00     0.169 HD
ATOM      3  C   UNL d   1       0.123   1.367  -0.028  0.00  0.00     0.117 A 
ATOM      4  C   UNL d   1       0.994  -0.743   0.172  0.00  0.00     0.156 A 
ATOM      5  N   UNL d   1      -1.142   0.910   0.042  0.00  0.00    -0.343 N 
ATOM      6  HN  UNL d   1      -1.937   1.543  -0.039  1.00  0.00     0.167 HD
ATOM      7  C   UNL d   1      -0.258  -1.290   0.329  0.00  0.00     0.083 A 
ATOM      8  C   UNL d   1      -1.318  -0.415   0.222  0.00  0.00     0.038 A 
ENDROOT
BRANCH   3   9
ATOM      9  C   UNL d   1       0.310   2.834  -0.062  0.00  0.00     0.009 A 
ATOM     10  C   UNL d   1       1.589   3.424  -0.048  0.00  0.00     0.022 A 
ATOM     11  C   UNL d   1       1.763   4.817   0.026  0.00  0.00    -0.061 A 
ATOM     12  C   UNL d   1       3.133   5.422   0.106  0.00  0.00     0.048 C 
ATOM     13  C   UNL d   1       0.637   5.645   0.073  0.00  0.00     0.007 A 
ATOM     14  C   UNL d   1      -0.639   5.094   0.025  0.00  0.00     0.002 A 
ATOM     15  C   UNL d   1      -0.797   3.708  -0.045  0.00  0.00     0.015 A 
ENDBRANCH   3   9
BRANCH   4  16
ATOM     16  O   UNL d   1       2.161  -1.530   0.025  0.00  0.00    -0.244 OA
BRANCH  16  17
ATOM     17  C   UNL d   1       2.277  -2.892   0.292  0.00  0.00     0.368 C 
ATOM     18  N   UNL d   1       3.455  -3.439  -0.198  0.00  0.00    -0.336 N 
ATOM     19  C   UNL d   1       4.503  -2.647  -0.821  0.00  0.00     0.154 C 
ATOM     20  C   UNL d   1       3.769  -4.828   0.090  0.00  0.00     0.154 C 
ATOM     21  O   UNL d   1       1.431  -3.551   0.895  0.00  0.00    -0.238 OA
ENDBRANCH  16  17
ENDBRANCH   4  16
BRANCH   8  22
ATOM     22  C   UNL d   1      -2.734  -0.937   0.215  0.00  0.00     0.224 C 
BRANCH  22  23
ATOM     23  O   UNL d   1      -3.069  -1.515   1.475  0.00  0.00    -0.390 OA
ATOM     24  C   UNL d   1      -4.382  -2.061   1.448  0.00  0.00     0.201 C 
ENDBRANCH  22  23
ENDBRANCH   8  22
TORSDOF 5
