REMARK  2 active torsions:
REMARK  status: ('A' for Active; 'I' for Inactive)
REMARK    1  A    between atoms: C_9  and  C_3 
REMARK    2  A    between atoms: O_15  and  C_4 
ROOT
ATOM      1  N   UNL d   1      -0.677   1.216  -0.049  0.00  0.00    -0.322 N 
ATOM      2  HN  UNL d   1      -1.187   2.099  -0.070  1.00  0.00     0.169 HD
ATOM      3  C   UNL d   1      -1.299   0.027  -0.020  0.00  0.00     0.117 A 
ATOM      4  C   UNL d   1       0.658   1.161  -0.048  0.00  0.00     0.149 A 
ATOM      5  N   UNL d   1      -0.662  -1.160   0.004  0.00  0.00    -0.345 N 
ATOM      6  HN  UNL d   1      -1.184  -2.036   0.023  1.00  0.00     0.167 HD
ATOM      7  C   UNL d   1       1.427   0.018  -0.021  0.00  0.00     0.011 A 
ATOM      8  C   UNL d   1       0.692  -1.156   0.001  0.00  0.00     0.017 A 
ATOM      9  C   UNL d   1       2.920   0.057  -0.020  0.00  0.00     0.055 C 
ATOM     10  C   UNL d   1       1.321  -2.519   0.021  0.00  0.00     0.069 C 
ENDROOT
BRANCH   3  11
ATOM     11  C   UNL d   1      -2.775   0.016  -0.012  0.00  0.00     0.010 A 
ATOM     12  C   UNL d   1      -3.521   1.208  -0.066  0.00  0.00     0.039 A 
ATOM     13  C   UNL d   1      -4.921   1.198  -0.057  0.00  0.00     0.041 A 
ATOM     14 CL   UNL d   1      -5.738   2.719  -0.132  0.00  0.00    -0.084 Cl
ATOM     15  C   UNL d   1      -5.629  -0.009   0.011  0.00  0.00    -0.040 A 
ATOM     16  C   UNL d   1      -4.901  -1.203   0.064  0.00  0.00     0.009 A 
ATOM     17  C   UNL d   1      -7.130  -0.054   0.024  0.00  0.00     0.050 C 
ATOM     18  C   UNL d   1      -3.501  -1.187   0.052  0.00  0.00     0.016 A 
ENDBRANCH   3  11
BRANCH   4  19
ATOM     19  O   UNL d   1       1.233   2.392  -0.076  0.00  0.00    -0.346 OA
ATOM     20  H   UNL d   1       0.439   2.956  -0.087  0.00  0.00     0.219 HD
ENDBRANCH   4  19
TORSDOF 2
