REMARK  4 active torsions:
REMARK  status: ('A' for Active; 'I' for Inactive)
REMARK    1  A    between atoms: C_6  and  N_1 
REMARK    2  A    between atoms: C_7  and  C_12 
REMARK    3  A    between atoms: C_8  and  C_11 
REMARK    4  A    between atoms: C_9  and  C_10 
ROOT
ATOM      1  N   UNL d   1      -2.252  -0.025  -0.336  0.00  0.00    -0.251 N 
ATOM      2  C   UNL d   1      -1.579   1.127   0.007  0.00  0.00     0.237 C 
ATOM      3  C   UNL d   1      -1.522  -1.158  -0.091  0.00  0.00     0.236 C 
ATOM      4  C   UNL d   1      -0.272   0.748   0.688  0.00  0.00     0.104 C 
ATOM      5  C   UNL d   1      -0.276  -0.786   0.675  0.00  0.00     0.096 C 
ATOM      6  C   UNL d   1       1.029   1.466   0.270  0.00  0.00     0.055 C 
ATOM      7  O   UNL d   1      -1.833  -2.315  -0.361  0.00  0.00    -0.272 OA
ATOM      8  O   UNL d   1      -2.007   2.269  -0.063  0.00  0.00    -0.272 OA
ATOM      9  C   UNL d   1       2.048   0.609  -0.433  0.00  0.00    -0.021 C 
ATOM     10  C   UNL d   1       2.010  -0.726  -0.471  0.00  0.00    -0.029 C 
ATOM     11  C   UNL d   1       0.955  -1.545   0.186  0.00  0.00     0.042 C 
ENDROOT
BRANCH   6  12
ATOM     12  C   UNL d   1       0.852   2.813  -0.413  0.00  0.00    -0.048 A 
ATOM     13  C   UNL d   1       0.783   3.981   0.364  0.00  0.00     0.024 A 
ATOM     14  C   UNL d   1       0.606   5.240  -0.229  0.00  0.00     0.049 A 
ATOM     15  C   UNL d   1       0.502   5.324  -1.626  0.00  0.00     0.032 A 
ATOM     16  C   UNL d   1       0.565   4.171  -2.427  0.00  0.00     0.049 A 
ATOM     17  C   UNL d   1       0.735   2.923  -1.808  0.00  0.00     0.024 A 
BRANCH  14  18
ATOM     18  C   UNL d   1       0.518   6.489   0.617  0.00  0.00     0.417 C 
ATOM     19  F   UNL d   1       0.630   6.251   1.954  0.00  0.00    -0.166 F 
ATOM     20  F   UNL d   1       1.498   7.386   0.317  0.00  0.00    -0.166 F 
ATOM     21  F   UNL d   1      -0.659   7.152   0.453  0.00  0.00    -0.166 F 
ENDBRANCH  14  18
BRANCH  16  22
ATOM     22  C   UNL d   1       0.443   4.281  -3.928  0.00  0.00     0.417 C 
ATOM     23  F   UNL d   1       0.535   3.083  -4.571  0.00  0.00    -0.166 F 
ATOM     24  F   UNL d   1      -0.743   4.824  -4.317  0.00  0.00    -0.166 F 
ATOM     25  F   UNL d   1       1.413   5.069  -4.471  0.00  0.00    -0.166 F 
ENDBRANCH  16  22
ENDBRANCH   6  12
BRANCH   1  26
ATOM     26  C   UNL d   1      -3.659  -0.041  -0.542  0.00  0.00     0.057 A 
ATOM     27  C   UNL d   1      -4.513  -0.609   0.443  0.00  0.00    -0.034 A 
ATOM     28  C   UNL d   1      -5.905  -0.610   0.240  0.00  0.00     0.009 A 
ATOM     29  C   UNL d   1      -4.046  -1.163   1.764  0.00  0.00     0.050 C 
ATOM     30  C   UNL d   1      -6.464  -0.035  -0.892  0.00  0.00     0.001 A 
ATOM     31  C   UNL d   1      -5.633   0.548  -1.844  0.00  0.00     0.009 A 
ATOM     32  C   UNL d   1      -4.233   0.551  -1.689  0.00  0.00    -0.034 A 
ATOM     33  C   UNL d   1      -3.436   1.175  -2.804  0.00  0.00     0.050 C 
ENDBRANCH   1  26
TORSDOF 4
