REMARK  4 active torsions:
REMARK  status: ('A' for Active; 'I' for Inactive)
REMARK    1  A    between atoms: N_5  and  C_1 
REMARK    2  A    between atoms: N_9  and  C_1 
REMARK    3  A    between atoms: C_2  and  C_10 
REMARK    4  A    between atoms: C_10  and  N_5 
ROOT
ATOM      1  N   UNL d   1       0.243   0.783  -0.608  0.00  0.00    -0.361 N 
ATOM      2  H   UNL d   1       0.786   1.584  -0.898  0.00  0.00     0.162 HD
ENDROOT
BRANCH   1   3
ATOM      3  C   UNL d   1       0.881  -0.127   0.213  0.00  0.00     0.167 C 
ATOM      4  S   UNL d   1       0.097  -1.222   1.203  0.00  0.00    -0.041 SA
BRANCH   3   5
ATOM      5  N   UNL d   1       2.250  -0.010   0.087  0.00  0.00    -0.372 N 
ATOM      6  C   UNL d   1       3.265  -0.807   0.753  0.00  0.00     0.148 C 
ATOM      7  H   UNL d   1       2.577   0.560  -0.679  0.00  0.00     0.161 HD
ENDBRANCH   3   5
ENDBRANCH   1   3
BRANCH   1   8
ATOM      8  C   UNL d   1      -1.197   0.992  -0.646  0.00  0.00     0.187 C 
BRANCH   8   9
ATOM      9  C   UNL d   1      -1.528   1.983  -1.700  0.00  0.00     0.070 A 
ATOM     10  O   UNL d   1      -0.990   3.232  -1.565  0.00  0.00    -0.325 OA
ATOM     11  C   UNL d   1      -1.459   3.980  -2.597  0.00  0.00     0.142 A 
ATOM     12  C   UNL d   1      -2.284   3.228  -3.402  0.00  0.00     0.027 A 
ATOM     13  C   UNL d   1      -2.323   1.935  -2.826  0.00  0.00     0.036 A 
ENDBRANCH   8   9
ENDBRANCH   1   8
TORSDOF 4
