REMARK  3 active torsions:
REMARK  status: ('A' for Active; 'I' for Inactive)
REMARK    1  A    between atoms: C_5  and  C_1 
REMARK    2  A    between atoms: C_9  and  C_4 
REMARK       I    between atoms: N_11  and  C_5 
REMARK    3  A    between atoms: N_13  and  N_11 
ROOT
ATOM      1  C   UNL d   1       0.293  -0.951  -0.560  0.00  0.00     0.241 A 
ATOM      2  N   UNL d   1       0.771   0.209  -0.973  0.00  0.00    -0.315 N 
ATOM      3  HN  UNL d   1       1.337   0.411  -1.797  1.00  0.00     0.169 HD
ATOM      4  C   UNL d   1       0.305   1.079  -0.003  0.00  0.00     0.138 A 
ATOM      5  N   UNL d   1      -0.433   0.483   0.950  0.00  0.00    -0.242 N 
ATOM      6  HN  UNL d   1      -0.884   0.915   1.756  1.00  0.00     0.196 HD
ATOM      7  O   UNL d   1      -0.441  -0.859   0.581  0.00  0.00    -0.212 OA
ENDROOT
BRANCH   1   8
ATOM      8  C   UNL d   1       0.508  -2.250  -1.159  0.00  0.00     0.309 C 
ATOM      9  O   UNL d   1       0.069  -3.313  -0.710  0.00  0.00    -0.262 OA
ATOM     10  N   UNL d   1       1.296  -2.223  -2.314  0.00  0.00    -0.287 N 
ATOM     11  H   UNL d   1       1.557  -1.318  -2.710  0.00  0.00     0.183 HD
BRANCH  10  12
ATOM     12  N   UNL d   1       1.575  -3.417  -3.022  0.00  0.00    -0.247 NA
ATOM     13  H   UNL d   1       1.111  -4.186  -2.516  0.00  0.00     0.143 HD
ATOM     14  H   UNL d   1       2.574  -3.620  -2.930  0.00  0.00     0.143 HD
ENDBRANCH  10  12
ENDBRANCH   1   8
BRANCH   4  15
ATOM     15  C   UNL d   1       0.608   2.508  -0.015  0.00  0.00     0.010 A 
ATOM     16  C   UNL d   1       1.364   3.065  -1.057  0.00  0.00     0.022 A 
ATOM     17  C   UNL d   1       1.667   4.434  -1.081  0.00  0.00    -0.061 A 
ATOM     18  C   UNL d   1       2.477   5.026  -2.196  0.00  0.00     0.048 C 
ATOM     19  C   UNL d   1       1.209   5.252  -0.041  0.00  0.00     0.007 A 
ATOM     20  C   UNL d   1       0.458   4.713   1.001  0.00  0.00     0.002 A 
ATOM     21  C   UNL d   1       0.159   3.349   1.015  0.00  0.00     0.015 A 
ENDBRANCH   4  15
TORSDOF 3
