REMARK  5 active torsions:
REMARK  status: ('A' for Active; 'I' for Inactive)
REMARK    1  A    between atoms: C_4  and  C_1 
REMARK    2  A    between atoms: S_2  and  N_5 
REMARK    3  A    between atoms: C_9  and  S_2 
REMARK    4  A    between atoms: N_13  and  C_3 
REMARK       I    between atoms: N_6  and  C_4 
REMARK    5  A    between atoms: N_5  and  N_6 
ROOT
ATOM      1  N   UNL d   1      -2.854   2.433  -0.143  0.00  0.00    -0.220 N 
ATOM      2  H   UNL d   1      -2.748   1.434  -0.347  0.00  0.00     0.200 HD
ENDROOT
BRANCH   1   3
ATOM      3  S   UNL d   1      -4.360   3.108   0.198  0.00  0.00     0.276 S 
ATOM      4  O   UNL d   1      -4.343   3.524   1.586  0.00  0.00    -0.199 OA
ATOM      5  O   UNL d   1      -4.655   4.059  -0.852  0.00  0.00    -0.199 OA
BRANCH   3   6
ATOM      6  C   UNL d   1      -5.471   1.734   0.039  0.00  0.00     0.081 A 
ATOM      7  C   UNL d   1      -5.815   0.985   1.167  0.00  0.00     0.026 A 
ATOM      8  C   UNL d   1      -6.758  -0.043   1.054  0.00  0.00     0.008 A 
ATOM      9  C   UNL d   1      -7.366  -0.318  -0.179  0.00  0.00    -0.062 A 
ATOM     10  C   UNL d   1      -7.021   0.450  -1.299  0.00  0.00     0.008 A 
ATOM     11  C   UNL d   1      -8.392  -1.411  -0.278  0.00  0.00     0.048 C 
ATOM     12  C   UNL d   1      -6.080   1.477  -1.192  0.00  0.00     0.026 A 
ENDBRANCH   3   6
ENDBRANCH   1   3
BRANCH   1  13
ATOM     13  N   UNL d   1      -1.674   3.279  -0.095  0.00  0.00    -0.256 N 
ATOM     14  C   UNL d   1      -0.413   2.748  -0.347  0.00  0.00     0.279 C 
ATOM     15  O   UNL d   1      -0.304   1.560  -0.660  0.00  0.00    -0.265 OA
ATOM     16  H   UNL d   1      -1.796   4.259   0.155  0.00  0.00     0.191 HD
BRANCH  14  17
ATOM     17  C   UNL d   1       0.699   3.690  -0.211  0.00  0.00     0.100 A 
ATOM     18  C   UNL d   1       1.967   3.723  -0.794  0.00  0.00     0.052 A 
ATOM     19  C   UNL d   1       2.744   4.815  -0.270  0.00  0.00     0.038 A 
ATOM     20  C   UNL d   1       2.081   5.561   0.672  0.00  0.00     0.053 A 
ATOM     21  S   UNL d   1       0.508   4.984   0.929  0.00  0.00    -0.094 SA
BRANCH  18  22
ATOM     22  N   UNL d   1       2.480   2.902  -1.769  0.00  0.00    -0.388 N 
ATOM     23  C   UNL d   1       3.909   2.607  -1.875  0.00  0.00     0.149 C 
ATOM     24  C   UNL d   1       1.649   2.181  -2.725  0.00  0.00     0.149 C 
ENDBRANCH  18  22
ENDBRANCH  14  17
ENDBRANCH   1  13
TORSDOF 5
