REMARK  4 active torsions:
REMARK  status: ('A' for Active; 'I' for Inactive)
REMARK    1  A    between atoms: C_2  and  C_1 
REMARK       I    between atoms: N_6  and  C_1 
REMARK    2  A    between atoms: C_9  and  N_6 
REMARK    3  A    between atoms: C_13  and  C_9 
REMARK    4  A    between atoms: C_10  and  C_13 
ROOT
ATOM      1  C   UNL d   1       3.208   1.229  -0.631  0.00  0.00     0.127 C 
ENDROOT
BRANCH   1   2
ATOM      2  N   UNL d   1       2.403   0.149  -0.086  0.00  0.00    -0.358 N 
ATOM      3  C   UNL d   1       1.951  -1.003  -0.682  0.00  0.00     0.250 C 
ATOM      4  O   UNL d   1       1.280  -1.762   0.023  0.00  0.00    -0.271 OA
ATOM      5  H   UNL d   1       2.123   0.212   0.888  0.00  0.00     0.162 HD
BRANCH   3   6
ATOM      6  C   UNL d   1       2.308  -1.302  -2.140  0.00  0.00     0.269 C 
ATOM      7 CL   UNL d   1       3.760  -2.325  -2.167  0.00  0.00    -0.098 Cl
ATOM      8 CL   UNL d   1       0.955  -2.117  -2.954  0.00  0.00    -0.098 Cl
ENDBRANCH   3   6
ENDBRANCH   1   2
BRANCH   1   9
ATOM      9  C   UNL d   1       4.710   1.011  -0.426  0.00  0.00     0.058 C 
BRANCH   9  10
ATOM     10  C   UNL d   1       5.513   2.150  -1.001  0.00  0.00    -0.054 A 
ATOM     11  C   UNL d   1       5.814   3.275  -0.230  0.00  0.00     0.024 A 
ATOM     12  C   UNL d   1       6.530   4.310  -0.813  0.00  0.00     0.088 A 
ATOM     13  N   UNL d   1       6.954   4.301  -2.094  0.00  0.00    -0.375 N 
ATOM     14  C   UNL d   1       6.656   3.205  -2.822  0.00  0.00     0.088 A 
ATOM     15  HN  UNL d   1       7.474   5.083  -2.492  1.00  0.00     0.164 HD
ATOM     16  C   UNL d   1       5.946   2.120  -2.330  0.00  0.00     0.024 A 
ENDBRANCH   9  10
ENDBRANCH   1   9
TORSDOF 4
