REMARK  0 active torsions:
REMARK  status: ('A' for Active; 'I' for Inactive)
ROOT
ATOM      1  C   UNL d   1      -0.024   0.600   0.001  0.00  0.00     0.122 A 
ATOM      2  C   UNL d   1       0.008  -0.797   0.002  0.00  0.00     0.082 A 
ATOM      3  N   UNL d   1       1.124   1.405  -0.002  0.00  0.00    -0.338 N 
ATOM      4  HN  UNL d   1       1.055   2.423  -0.003  1.00  0.00     0.168 HD
ATOM      5  C   UNL d   1       1.358  -1.408   0.002  0.00  0.00     0.260 A 
ATOM      6  N   UNL d   1      -1.171   1.318   0.001  0.00  0.00    -0.345 N 
ATOM      7  HN  UNL d   1      -1.153   2.337  -0.001  1.00  0.00     0.167 HD
ATOM      8  C   UNL d   1      -1.208  -1.499   0.003  0.00  0.00    -0.041 A 
ATOM      9  N   UNL d   1       2.416  -0.535  -0.001  0.00  0.00    -0.319 N 
ATOM     10  C   UNL d   1       2.264   0.816  -0.002  0.00  0.00     0.184 A 
ATOM     11  C   UNL d   1      -2.394  -0.746   0.004  0.00  0.00     0.032 A 
ATOM     12  C   UNL d   1      -2.340   0.643   0.003  0.00  0.00     0.007 A 
ATOM     13  O   UNL d   1       1.568  -2.614   0.005  0.00  0.00    -0.267 OA
ATOM     14  C   UNL d   1      -1.363  -2.993   0.003  0.00  0.00     0.049 C 
ATOM     15  C   UNL d   1      -3.596   1.462   0.002  0.00  0.00     0.068 C 
ATOM     16  H   UNL d   1       3.336  -0.953  -0.001  0.00  0.00     0.169 HD
ENDROOT
TORSDOF 0
