REMARK  5 active torsions:
REMARK  status: ('A' for Active; 'I' for Inactive)
REMARK    1  A    between atoms: N_2  and  C_1 
REMARK    2  A    between atoms: C_3  and  C_6 
REMARK    3  A    between atoms: O_7  and  C_5 
REMARK    4  A    between atoms: C_11  and  O_7 
REMARK    5  A    between atoms: C_22  and  C_14 
ROOT
ATOM      1  C   UNL d   1      -0.410   1.107  -0.511  0.00  0.00     0.137 A 
ATOM      2  C   UNL d   1      -1.208  -0.043  -0.661  0.00  0.00     0.055 A 
ATOM      3  C   UNL d   1       0.964   1.024  -0.275  0.00  0.00     0.109 A 
ATOM      4  C   UNL d   1      -0.620  -1.312  -0.593  0.00  0.00     0.050 A 
ATOM      5  C   UNL d   1       1.517  -0.259  -0.117  0.00  0.00     0.040 A 
ATOM      6  C   UNL d   1       0.749  -1.406  -0.318  0.00  0.00     0.019 A 
ENDROOT
BRANCH   3   7
ATOM      7  O   UNL d   1       1.729   2.174  -0.183  0.00  0.00    -0.308 OA
BRANCH   7   8
ATOM      8  C   UNL d   1       3.071   2.075  -0.498  0.00  0.00     0.076 C 
ATOM      9  C   UNL d   1       3.522   1.348  -1.603  0.00  0.00     0.044 C 
ATOM     10  C   UNL d   1       4.880   1.035  -1.750  0.00  0.00    -0.053 C 
ATOM     11  C   UNL d   1       5.259   0.003  -2.777  0.00  0.00     0.049 C 
ATOM     12  C   UNL d   1       5.821   1.637  -0.892  0.00  0.00    -0.052 C 
ATOM     13  C   UNL d   1       5.359   2.461   0.153  0.00  0.00     0.010 C 
ATOM     14  C   UNL d   1       3.991   2.667   0.361  0.00  0.00     0.038 C 
BRANCH  12  15
ATOM     15  C   UNL d   1       7.311   1.440  -1.066  0.00  0.00     0.034 C 
ATOM     16  C   UNL d   1       7.886   0.310  -0.225  0.00  0.00     0.010 C 
ENDBRANCH  12  15
ENDBRANCH   7   8
ENDBRANCH   3   7
BRANCH   1  17
ATOM     17  N   UNL d   1      -1.063   2.402  -0.619  0.00  0.00    -0.113 N 
ATOM     18  O   UNL d   1      -2.038   2.591   0.117  0.00  0.00    -0.532 OA
ATOM     19  O   UNL d   1      -0.634   3.188  -1.472  0.00  0.00    -0.532 OA
ENDBRANCH   1  17
BRANCH   4  20
ATOM     20  C   UNL d   1      -1.414  -2.578  -0.801  0.00  0.00     0.417 C 
ATOM     21  F   UNL d   1      -2.746  -2.365  -0.967  0.00  0.00    -0.166 F 
ATOM     22  F   UNL d   1      -1.002  -3.265  -1.905  0.00  0.00    -0.166 F 
ATOM     23  F   UNL d   1      -1.294  -3.443   0.242  0.00  0.00    -0.166 F 
ENDBRANCH   4  20
TORSDOF 5
