REMARK  5 active torsions:
REMARK  status: ('A' for Active; 'I' for Inactive)
REMARK    1  A    between atoms: N_3  and  S_1 
REMARK    2  A    between atoms: C_6  and  S_1 
REMARK    3  A    between atoms: C_2  and  C_4 
REMARK    4  A    between atoms: C_5  and  N_3 
REMARK       I    between atoms: C_9  and  N_10 
REMARK    5  A    between atoms: N_10  and  C_17 
ROOT
ATOM      1  S   UNL d   1       0.849   0.030  -0.245  0.00  0.00     0.245 S 
ATOM      2  O   UNL d   1      -0.185  -0.085  -1.252  0.00  0.00    -0.206 OA
ATOM      3  O   UNL d   1       2.240   0.210  -0.594  0.00  0.00    -0.206 OA
ENDROOT
BRANCH   1   4
ATOM      4  N   UNL d   1       0.685  -1.340   0.765  0.00  0.00    -0.181 NA
ATOM      5  H   UNL d   1      -0.315  -1.556   0.785  0.00  0.00     0.146 HD
BRANCH   4   6
ATOM      6  C   UNL d   1       1.447  -2.491   0.361  0.00  0.00     0.037 A 
ATOM      7  C   UNL d   1       2.763  -2.701   0.792  0.00  0.00     0.070 A 
ATOM      8  C   UNL d   1       3.428  -3.875   0.374  0.00  0.00     0.018 A 
ATOM      9  C   UNL d   1       2.804  -4.806  -0.456  0.00  0.00     0.001 A 
ATOM     10  C   UNL d   1       1.510  -4.567  -0.905  0.00  0.00     0.002 A 
ATOM     11  C   UNL d   1       0.838  -3.410  -0.507  0.00  0.00     0.025 A 
BRANCH   7  12
ATOM     12  C   UNL d   1       3.515  -1.778   1.715  0.00  0.00     0.419 C 
ATOM     13  F   UNL d   1       2.854  -0.663   2.126  0.00  0.00    -0.166 F 
ATOM     14  F   UNL d   1       3.881  -2.416   2.869  0.00  0.00    -0.166 F 
ATOM     15  F   UNL d   1       4.685  -1.336   1.170  0.00  0.00    -0.166 F 
ENDBRANCH   7  12
ENDBRANCH   4   6
ENDBRANCH   1   4
BRANCH   1  16
ATOM     16  C   UNL d   1       0.382   1.331   0.878  0.00  0.00     0.075 A 
ATOM     17  C   UNL d   1       1.353   1.981   1.641  0.00  0.00     0.027 A 
ATOM     18  C   UNL d   1       0.976   3.006   2.516  0.00  0.00     0.031 A 
ATOM     19  C   UNL d   1      -0.365   3.401   2.629  0.00  0.00     0.034 A 
ATOM     20  C   UNL d   1      -1.322   2.754   1.841  0.00  0.00     0.031 A 
ATOM     21  C   UNL d   1      -0.954   1.727   0.964  0.00  0.00     0.027 A 
BRANCH  19  22
ATOM     22  N   UNL d   1      -0.665   4.441   3.537  0.00  0.00    -0.328 N 
ATOM     23  C   UNL d   1      -1.911   4.973   3.820  0.00  0.00     0.218 C 
ATOM     24  O   UNL d   1      -2.982   4.628   3.334  0.00  0.00    -0.274 OA
ATOM     25  C   UNL d   1      -1.870   6.089   4.837  0.00  0.00     0.117 C 
ATOM     26  H   UNL d   1       0.125   4.830   4.037  0.00  0.00     0.169 HD
ENDBRANCH  19  22
ENDBRANCH   1  16
TORSDOF 5
