REMARK  4 active torsions:
REMARK  status: ('A' for Active; 'I' for Inactive)
REMARK    1  A    between atoms: C_9  and  C_3 
REMARK    2  A    between atoms: O_14  and  C_4 
REMARK    3  A    between atoms: S_13  and  C_5 
REMARK    4  A    between atoms: C_10  and  C_9 
ROOT
ATOM      1  N   UNL d   1      -0.383   1.356  -0.073  0.00  0.00    -0.317 N 
ATOM      2  HN  UNL d   1      -0.789   2.291  -0.127  1.00  0.00     0.170 HD
ATOM      3  C   UNL d   1      -0.646  -1.048  -0.109  0.00  0.00     0.015 A 
ATOM      4  C   UNL d   1      -1.127   0.249  -0.185  0.00  0.00     0.150 A 
ATOM      5  C   UNL d   1       0.923   1.161   0.112  0.00  0.00     0.143 A 
ATOM      6  N   UNL d   1       1.518  -0.034   0.196  0.00  0.00    -0.340 N 
ATOM      7  HN  UNL d   1       2.525  -0.117   0.334  1.00  0.00     0.167 HD
ATOM      8  C   UNL d   1       0.731  -1.130   0.092  0.00  0.00     0.018 A 
ATOM      9  C   UNL d   1       1.458  -2.439   0.178  0.00  0.00     0.069 C 
ENDROOT
BRANCH   3  10
ATOM     10  C   UNL d   1      -1.517  -2.267  -0.246  0.00  0.00     0.049 C 
BRANCH  10  11
ATOM     11  C   UNL d   1      -2.089  -2.843   1.020  0.00  0.00    -0.010 A 
ATOM     12  C   UNL d   1      -3.071  -2.062   1.862  0.00  0.00     0.005 A 
ATOM     13  C   UNL d   1      -1.726  -2.429   2.426  0.00  0.00     0.005 A 
ENDBRANCH  10  11
ENDBRANCH   3  10
BRANCH   4  14
ATOM     14  O   UNL d   1      -2.444   0.526  -0.411  0.00  0.00    -0.346 OA
ATOM     15  H   UNL d   1      -2.783  -0.122  -1.043  0.00  0.00     0.219 HD
ENDBRANCH   4  14
BRANCH   5  16
ATOM     16  S   UNL d   1       1.946   2.600   0.199  0.00  0.00    -0.107 SA
ATOM     17  H   UNL d   1       0.924   3.441  -0.001  0.00  0.00     0.110 HD
ENDBRANCH   5  16
TORSDOF 4
