REMARK  4 active torsions:
REMARK  status: ('A' for Active; 'I' for Inactive)
REMARK    1  A    between atoms: C_3  and  C_1 
REMARK    2  A    between atoms: C_8  and  C_1 
REMARK    3  A    between atoms: C_7  and  C_2 
REMARK    4  A    between atoms: N_4  and  C_3 
ROOT
ATOM      1  C   UNL d   1       0.950   0.084   0.020  0.00  0.00     0.037 C 
ATOM      2  C   UNL d   1       0.304   1.271   0.015  0.00  0.00     0.035 C 
ENDROOT
BRANCH   1   3
ATOM      3  C   UNL d   1       2.470   0.084   0.020  0.00  0.00    -0.036 C 
BRANCH   3   4
ATOM      4  N   UNL d   1       3.731   0.084   0.020  0.00  0.00    -0.365 N 
ATOM      5  HN2 UNL d   1       2.711   0.084   0.020  1.00  0.00     0.165 HD
ATOM      6  HN1 UNL d   1       4.751   0.084   0.020  1.00  0.00     0.165 HD
ENDBRANCH   3   4
ENDBRANCH   1   3
BRANCH   1   7
ATOM      7  C   UNL d   1       0.207  -1.198   0.038  0.00  0.00    -0.015 A 
ATOM      8  C   UNL d   1      -0.991  -1.353  -0.681  0.00  0.00     0.036 A 
ATOM      9  C   UNL d   1      -1.690  -2.561  -0.649  0.00  0.00     0.034 A 
ATOM     10 CL   UNL d   1      -3.167  -2.714  -1.520  0.00  0.00    -0.084 Cl
ATOM     11  C   UNL d   1      -1.204  -3.640   0.082  0.00  0.00     0.024 A 
ATOM     12  C   UNL d   1      -0.007  -3.510   0.784  0.00  0.00     0.003 A 
ATOM     13  C   UNL d   1       0.693  -2.299   0.762  0.00  0.00     0.013 A 
ENDBRANCH   1   7
BRANCH   2  14
ATOM     14  C   UNL d   1       0.992   2.574  -0.036  0.00  0.00    -0.013 A 
ATOM     15  C   UNL d   1       1.406   3.166  -1.242  0.00  0.00     0.044 A 
ATOM     16 CL   UNL d   1       1.072   2.437  -2.774  0.00  0.00    -0.083 Cl
ATOM     17  C   UNL d   1       2.111   4.373  -1.231  0.00  0.00     0.024 A 
ATOM     18  C   UNL d   1       2.405   5.000  -0.020  0.00  0.00     0.002 A 
ATOM     19  C   UNL d   1       1.991   4.425   1.180  0.00  0.00     0.001 A 
ATOM     20  C   UNL d   1       1.288   3.218   1.174  0.00  0.00     0.013 A 
ENDBRANCH   2  14
TORSDOF 4
