REMARK  5 active torsions:
REMARK  status: ('A' for Active; 'I' for Inactive)
REMARK    1  A    between atoms: C_3  and  C_1 
REMARK    2  A    between atoms: S_2  and  C_7 
REMARK    3  A    between atoms: C_16  and  S_2 
REMARK    4  A    between atoms: C_7  and  C_6 
REMARK    5  A    between atoms: C_8  and  C_12 
ROOT
ATOM      1  C   UNL d   1       0.135  -1.205  -0.040  0.00  0.00     0.088 C 
ATOM      2  N   UNL d   1       1.325  -0.659  -0.231  0.00  0.00    -0.352 N 
ATOM      3  HN  UNL d   1       2.162  -1.181  -0.490  1.00  0.00     0.166 HD
ATOM      4  C   UNL d   1       1.290   0.713  -0.034  0.00  0.00     0.031 C 
ATOM      5  S   UNL d   1      -1.089  -0.065   0.386  0.00  0.00    -0.081 SA
ATOM      6  C   UNL d   1       0.027   1.219   0.197  0.00  0.00     0.077 C 
ENDROOT
BRANCH   1   7
ATOM      7  C   UNL d   1      -0.127  -2.662  -0.083  0.00  0.00     0.041 A 
ATOM      8  C   UNL d   1       0.780  -3.556   0.528  0.00  0.00     0.049 A 
ATOM      9  C   UNL d   1       0.614  -4.948   0.467  0.00  0.00     0.041 A 
ATOM     10 CL   UNL d   1       2.152  -3.039   1.434  0.00  0.00    -0.083 Cl
ATOM     11  C   UNL d   1      -0.480  -5.508  -0.186  0.00  0.00     0.051 A 
ATOM     12  C   UNL d   1      -1.403  -4.642  -0.782  0.00  0.00     0.041 A 
ATOM     13  C   UNL d   1      -1.223  -3.245  -0.751  0.00  0.00     0.049 A 
ATOM     14 CL   UNL d   1      -2.401  -2.340  -1.643  0.00  0.00    -0.083 Cl
BRANCH  11  15
ATOM     15  C   UNL d   1      -0.664  -7.003  -0.258  0.00  0.00     0.417 C 
ATOM     16  F   UNL d   1       0.347  -7.702   0.325  0.00  0.00    -0.166 F 
ATOM     17  F   UNL d   1      -1.807  -7.410   0.356  0.00  0.00    -0.166 F 
ATOM     18  F   UNL d   1      -0.740  -7.451  -1.540  0.00  0.00    -0.166 F 
ENDBRANCH  11  15
ENDBRANCH   1   7
BRANCH   4  19
ATOM     19  C   UNL d   1       2.556   1.488  -0.144  0.00  0.00     0.203 C 
BRANCH  19  20
ATOM     20  S   UNL d   1       3.253   1.969   1.421  0.00  0.00     0.180 S 
ATOM     21  O   UNL d   1       4.516   2.631   1.164  0.00  0.00    -0.222 OA
ATOM     22  O   UNL d   1       2.224   2.655   2.192  0.00  0.00    -0.222 OA
BRANCH  20  23
ATOM     23  C   UNL d   1       3.661   0.468   2.292  0.00  0.00     0.059 A 
ATOM     24  C   UNL d   1       4.629  -0.390   1.757  0.00  0.00     0.025 A 
ATOM     25  C   UNL d   1       4.998  -1.537   2.466  0.00  0.00     0.025 A 
ATOM     26  C   UNL d   1       4.409  -1.813   3.701  0.00  0.00     0.034 A 
ATOM     27  C   UNL d   1       3.458  -0.947   4.242  0.00  0.00     0.025 A 
ATOM     28 CL   UNL d   1       4.831  -3.252   4.546  0.00  0.00    -0.084 Cl
ATOM     29  C   UNL d   1       3.085   0.202   3.538  0.00  0.00     0.025 A 
ENDBRANCH  20  23
ENDBRANCH  19  20
ENDBRANCH   4  19
TORSDOF 5
