REMARK  7 active torsions:
REMARK  status: ('A' for Active; 'I' for Inactive)
REMARK    1  A    between atoms: C_2  and  C_1 
REMARK    2  A    between atoms: O_4  and  C_2 
REMARK    3  A    between atoms: N_5  and  O_4 
REMARK    4  A    between atoms: C_9  and  N_5 
REMARK    5  A    between atoms: C_10  and  N_5 
REMARK    6  A    between atoms: C_14  and  C_9 
REMARK    7  A    between atoms: C_15  and  C_10 
ROOT
ATOM      1  N   UNL d   1      -1.209  -4.088   0.348  0.00  0.00    -0.179 NA
ENDROOT
BRANCH   1   2
ATOM      2  O   UNL d   1      -2.489  -3.372   0.223  0.00  0.00    -0.220 OA
BRANCH   2   3
ATOM      3  C   UNL d   1      -2.336  -2.164  -0.395  0.00  0.00     0.312 C 
ATOM      4  O   UNL d   1      -1.269  -1.624  -0.677  0.00  0.00    -0.258 OA
BRANCH   3   5
ATOM      5  C   UNL d   1      -3.640  -1.462  -0.622  0.00  0.00     0.062 A 
ATOM      6  C   UNL d   1      -4.926  -2.013  -0.482  0.00  0.00     0.051 A 
ATOM      7  C   UNL d   1      -6.064  -1.212  -0.696  0.00  0.00     0.048 A 
ATOM      8 CL   UNL d   1      -5.256  -3.656  -0.068  0.00  0.00    -0.083 Cl
ATOM      9  C   UNL d   1      -5.932   0.125  -1.057  0.00  0.00     0.035 A 
ATOM     10  C   UNL d   1      -4.673   0.681  -1.226  0.00  0.00     0.025 A 
ATOM     11 CL   UNL d   1      -7.335   1.093  -1.289  0.00  0.00    -0.084 Cl
ATOM     12  C   UNL d   1      -3.537  -0.109  -1.010  0.00  0.00     0.021 A 
ENDBRANCH   3   5
ENDBRANCH   2   3
ENDBRANCH   1   2
BRANCH   1  13
ATOM     13  C   UNL d   1      -0.824  -3.925   1.763  0.00  0.00     0.160 C 
BRANCH  13  14
ATOM     14  C   UNL d   1       0.484  -4.615   2.101  0.00  0.00    -0.043 A 
ATOM     15  C   UNL d   1       1.671  -4.231   1.462  0.00  0.00     0.010 A 
ATOM     16  C   UNL d   1       2.865  -4.914   1.712  0.00  0.00     0.024 A 
ATOM     17  C   UNL d   1       2.872  -5.979   2.612  0.00  0.00     0.034 A 
ATOM     18  C   UNL d   1       1.708  -6.357   3.272  0.00  0.00     0.024 A 
ATOM     19 CL   UNL d   1       4.334  -6.846   2.892  0.00  0.00    -0.084 Cl
ATOM     20  C   UNL d   1       0.514  -5.678   3.018  0.00  0.00     0.010 A 
ENDBRANCH  13  14
ENDBRANCH   1  13
BRANCH   1  21
ATOM     21  C   UNL d   1      -1.507  -5.499   0.050  0.00  0.00     0.160 C 
BRANCH  21  22
ATOM     22  C   UNL d   1      -1.949  -5.762  -1.375  0.00  0.00    -0.043 A 
ATOM     23  C   UNL d   1      -1.106  -5.468  -2.458  0.00  0.00     0.010 A 
ATOM     24  C   UNL d   1      -1.488  -5.799  -3.761  0.00  0.00     0.024 A 
ATOM     25  C   UNL d   1      -2.713  -6.423  -3.987  0.00  0.00     0.034 A 
ATOM     26  C   UNL d   1      -3.562  -6.716  -2.923  0.00  0.00     0.024 A 
ATOM     27 CL   UNL d   1      -3.179  -6.846  -5.589  0.00  0.00    -0.084 Cl
ATOM     28  C   UNL d   1      -3.179  -6.390  -1.622  0.00  0.00     0.010 A 
ENDBRANCH  21  22
ENDBRANCH   1  21
TORSDOF 7
