REMARK  7 active torsions:
REMARK  status: ('A' for Active; 'I' for Inactive)
REMARK    1  A    between atoms: C_2  and  S_1 
REMARK    2  A    between atoms: N_8  and  S_1 
REMARK    3  A    between atoms: O_19  and  C_7 
REMARK    4  A    between atoms: C_20  and  N_8 
REMARK    5  A    between atoms: O_21  and  C_9 
REMARK    6  A    between atoms: C_15  and  C_22 
REMARK    7  A    between atoms: C_22  and  C_20 
ROOT
ATOM      1  C   UNL d   1       0.534  -0.695  -1.785  0.00  0.00     0.079 A 
ATOM      2  N   UNL d   1      -1.300  -2.423  -6.559  0.00  0.00    -0.191 NA
ATOM      3  C   UNL d   1      -0.887  -2.054  -5.540  0.00  0.00     0.099 C 
ATOM      4  C   UNL d   1       0.311  -2.061  -1.991  0.00  0.00     0.027 A 
ATOM      5  C   UNL d   1       0.313   0.222  -2.818  0.00  0.00     0.027 A 
ATOM      6  C   UNL d   1      -0.377  -1.600  -4.275  0.00  0.00     0.044 A 
ATOM      7  C   UNL d   1      -0.137  -0.232  -4.063  0.00  0.00     0.024 A 
ATOM      8  C   UNL d   1      -0.135  -2.509  -3.238  0.00  0.00     0.024 A 
ENDROOT
BRANCH   1   9
ATOM      9  S   UNL d   1       0.974  -0.117  -0.152  0.00  0.00     0.258 S 
ATOM     10  O   UNL d   1       0.591  -1.145   0.783  0.00  0.00    -0.201 OA
ATOM     11  O   UNL d   1       0.507   1.249  -0.030  0.00  0.00    -0.201 OA
BRANCH   9  12
ATOM     12  N   UNL d   1       2.669  -0.105  -0.208  0.00  0.00    -0.315 N 
ATOM     13  H   UNL d   1       3.049  -1.044  -0.322  0.00  0.00     0.172 HD
BRANCH  12  14
ATOM     14  C   UNL d   1       3.276   0.972  -1.006  0.00  0.00     0.137 C 
BRANCH  14  15
ATOM     15  C   UNL d   1       4.804   0.941  -0.960  0.00  0.00     0.059 C 
BRANCH  15  16
ATOM     16  C   UNL d   1       5.327   2.024  -1.878  0.00  0.00    -0.054 A 
ATOM     17  C   UNL d   1       5.545   1.748  -3.238  0.00  0.00     0.046 A 
ATOM     18  C   UNL d   1       5.885   2.764  -4.145  0.00  0.00     0.102 A 
ATOM     19  C   UNL d   1       5.973   4.087  -3.679  0.00  0.00     0.101 A 
ATOM     20  C   UNL d   1       5.804   4.353  -2.314  0.00  0.00     0.040 A 
ATOM     21  C   UNL d   1       5.480   3.333  -1.419  0.00  0.00     0.010 A 
BRANCH  18  22
ATOM     22  O   UNL d   1       6.157   2.532  -5.466  0.00  0.00    -0.353 OA
ATOM     23  C   UNL d   1       6.120   1.191  -5.934  0.00  0.00     0.210 C 
ENDBRANCH  18  22
BRANCH  19  24
ATOM     24  O   UNL d   1       6.264   5.204  -4.423  0.00  0.00    -0.353 OA
ATOM     25  C   UNL d   1       5.753   5.230  -5.753  0.00  0.00     0.210 C 
ENDBRANCH  19  24
ENDBRANCH  15  16
ENDBRANCH  14  15
ENDBRANCH  12  14
ENDBRANCH   9  12
ENDBRANCH   1   9
TORSDOF 7
