REMARK  7 active torsions:
REMARK  status: ('A' for Active; 'I' for Inactive)
REMARK    1  A    between atoms: C_11  and  C_1 
REMARK    2  A    between atoms: N_7  and  C_2 
REMARK    3  A    between atoms: C_13  and  C_3 
REMARK       I    between atoms: C_10  and  N_7 
REMARK    4  A    between atoms: C_8  and  C_10 
REMARK    5  A    between atoms: C_12  and  CA_9 
REMARK    6  A    between atoms: OXT_25  and  C_12 
REMARK    7  A    between atoms: O_30  and  C_27 
ROOT
ATOM      1  C   UNL d   1       1.582   0.850   0.180  0.00  0.00     0.147 A 
ATOM      2  C   UNL d   1       0.215  -0.917   0.049  0.00  0.00     0.138 A 
ATOM      3  C   UNL d   1       1.563  -0.575   0.040  0.00  0.00     0.053 A 
ATOM      4  N   UNL d   1       0.329   1.331   0.301  0.00  0.00    -0.292 N 
ATOM      5  HN  UNL d   1       0.048   2.307   0.403  1.00  0.00     0.187 HD
ATOM      6  N   UNL d   1      -0.475   0.252   0.258  0.00  0.00    -0.280 N 
ATOM      7  C   UNL d   1      -1.899   0.492   0.196  0.00  0.00     0.179 C 
ENDROOT
BRANCH   2   8
ATOM      8  N   UNL d   1      -0.239  -2.211  -0.194  0.00  0.00    -0.306 N 
ATOM      9  C   UNL d   1      -1.273  -2.849   0.565  0.00  0.00     0.276 C 
ATOM     10  O   UNL d   1      -1.834  -2.182   1.419  0.00  0.00    -0.266 OA
ATOM     11  H   UNL d   1       0.345  -2.743  -0.847  0.00  0.00     0.170 HD
BRANCH   9  12
ATOM     12  C   UNL d   1      -1.614  -4.312   0.407  0.00  0.00     0.134 A 
ATOM     13  CA  UNL d   1      -0.898  -5.298  -0.256  0.00  0.00     0.139 A 
ATOM     14  N   UNL d   1      -1.222  -6.638  -0.184  0.00  0.00    -0.357 N 
ATOM     15  C   UNL d   1      -2.320  -6.950   0.539  0.00  0.00     0.105 A 
ATOM     16  HN  UNL d   1      -0.663  -7.353  -0.650  1.00  0.00     0.165 HD
ATOM     17  C   UNL d   1      -3.063  -5.982   1.179  0.00  0.00     0.105 A 
ATOM     18  N   UNL d   1      -2.728  -4.670   1.132  0.00  0.00    -0.358 N 
ATOM     19  HN  UNL d   1      -3.285  -3.967   1.618  1.00  0.00     0.165 HD
BRANCH  13  20
ATOM     20  C   UNL d   1       0.289  -5.065  -1.109  0.00  0.00     0.196 C 
ATOM     21  O   UNL d   1       0.608  -3.981  -1.560  0.00  0.00    -0.645 OA
BRANCH  20  22
ATOM     22  OXT UNL d   1       0.981  -6.203  -1.329  0.00  0.00    -0.772 OA
ATOM     23  HXT UNL d   1       0.511  -6.981  -0.949  0.00  0.00     0.167 HD
ENDBRANCH  20  22
ENDBRANCH  13  20
ENDBRANCH   9  12
ENDBRANCH   2   8
BRANCH   3  24
ATOM     24  C   UNL d   1       2.658  -1.542   0.010  0.00  0.00    -0.020 A 
ATOM     25  C   UNL d   1       3.774  -1.358  -0.812  0.00  0.00     0.015 A 
ATOM     26  C   UNL d   1       4.872  -2.229  -0.738  0.00  0.00     0.037 A 
ATOM     27  C   UNL d   1       4.850  -3.318   0.132  0.00  0.00     0.068 A 
ATOM     28  C   UNL d   1       3.715  -3.544   0.909  0.00  0.00     0.037 A 
ATOM     29  C   UNL d   1       2.639  -2.653   0.869  0.00  0.00     0.015 A 
BRANCH  27  30
ATOM     30  O   UNL d   1       5.855  -4.227   0.308  0.00  0.00    -0.356 OA
ATOM     31  C   UNL d   1       7.149  -3.838  -0.141  0.00  0.00     0.210 C 
ENDBRANCH  27  30
ENDBRANCH   3  24
BRANCH   1  32
ATOM     32  C   UNL d   1       2.764   1.791   0.199  0.00  0.00     0.434 C 
ATOM     33  F   UNL d   1       3.958   1.157   0.339  0.00  0.00    -0.165 F 
ATOM     34  F   UNL d   1       2.846   2.501  -0.962  0.00  0.00    -0.165 F 
ATOM     35  F   UNL d   1       2.697   2.693   1.210  0.00  0.00    -0.165 F 
ENDBRANCH   1  32
TORSDOF 7
