REMARK  4 active torsions:
REMARK  status: ('A' for Active; 'I' for Inactive)
REMARK    1  A    between atoms: C_2  and  C_1 
REMARK    2  A    between atoms: C_18  and  C_7 
REMARK    3  A    between atoms: C_14  and  C_8 
REMARK    4  A    between atoms: C_13  and  C_17 
ROOT
ATOM      1  C   UNL d   1       0.289  -2.709  -0.045  0.00  0.00     0.054 A 
ATOM      2  N   UNL d   1       1.017  -3.291   0.977  0.00  0.00    -0.349 N 
ATOM      3  HN  UNL d   1       1.306  -2.811   1.829  1.00  0.00     0.166 HD
ATOM      4  C   UNL d   1       1.287  -4.554   0.698  0.00  0.00     0.084 A 
ATOM      5  S   UNL d   1       0.577  -5.121  -0.772  0.00  0.00    -0.081 SA
ATOM      6  C   UNL d   1      -0.056  -3.563  -1.071  0.00  0.00     0.082 A 
ENDROOT
BRANCH   1   7
ATOM      7  C   UNL d   1      -0.039  -1.288   0.030  0.00  0.00     0.052 A 
ATOM      8  C   UNL d   1       0.766  -0.229   0.552  0.00  0.00     0.080 A 
ATOM      9  N   UNL d   1       0.095   0.935   0.460  0.00  0.00    -0.259 N 
ATOM     10  O   UNL d   1      -1.112   0.653  -0.137  0.00  0.00    -0.241 OA
ATOM     11  HN  UNL d   1       0.419   1.850   0.773  1.00  0.00     0.195 HD
ATOM     12  C   UNL d   1      -1.194  -0.674  -0.405  0.00  0.00     0.087 A 
ATOM     13  C   UNL d   1      -2.439  -1.131  -1.050  0.00  0.00     0.080 C 
BRANCH   8  14
ATOM     14  C   UNL d   1       2.129  -0.244   1.096  0.00  0.00    -0.007 A 
ATOM     15  C   UNL d   1       2.486   0.634   2.132  0.00  0.00     0.014 A 
ATOM     16  C   UNL d   1       3.777   0.622   2.667  0.00  0.00     0.001 A 
ATOM     17  C   UNL d   1       4.729  -0.269   2.175  0.00  0.00     0.000 A 
ATOM     18  C   UNL d   1       4.397  -1.130   1.133  0.00  0.00     0.001 A 
ATOM     19  C   UNL d   1       3.111  -1.105   0.587  0.00  0.00     0.014 A 
ENDBRANCH   8  14
ENDBRANCH   1   7
BRANCH   4  20
ATOM     20  C   UNL d   1       2.079  -5.457   1.551  0.00  0.00    -0.002 A 
ATOM     21  C   UNL d   1       2.139  -5.234   2.934  0.00  0.00     0.015 A 
ATOM     22  C   UNL d   1       2.838  -6.110   3.778  0.00  0.00     0.010 A 
ATOM     23  C   UNL d   1       3.509  -7.230   3.260  0.00  0.00    -0.035 A 
ATOM     24  C   UNL d   1       3.486  -7.425   1.871  0.00  0.00     0.010 A 
ATOM     25  C   UNL d   1       2.787  -6.551   1.032  0.00  0.00     0.015 A 
BRANCH  23  26
ATOM     26  C   UNL d   1       4.213  -8.197   4.192  0.00  0.00     0.141 C 
ATOM     27  S   UNL d   1       5.998  -8.335   3.841  0.00  0.00    -0.148 SA
ATOM     28  C   UNL d   1       6.125 -10.117   4.127  0.00  0.00     0.085 C 
ATOM     29  C   UNL d   1       4.884 -10.761   3.543  0.00  0.00     0.085 C 
ATOM     30  S   UNL d   1       3.443  -9.856   4.163  0.00  0.00    -0.148 SA
ENDBRANCH  23  26
ENDBRANCH   4  20
TORSDOF 4
