REMARK  2 active torsions:
REMARK  status: ('A' for Active; 'I' for Inactive)
REMARK    1  A    between atoms: C_5  and  C_1 
REMARK    2  A    between atoms: C_6  and  C_2 
REMARK       I    between atoms: N_9  and  C_5 
ROOT
ATOM      1  C   UNL d   1      -0.007  -1.122   0.033  0.00  0.00     0.092 C 
ATOM      2  C   UNL d   1      -1.351  -0.666   0.223  0.00  0.00     0.086 C 
ATOM      3  N   UNL d   1      -1.365   0.663   0.428  0.00  0.00    -0.259 N 
ATOM      4  HN  UNL d   1      -2.164   1.230   0.708  1.00  0.00     0.195 HD
ATOM      5  O   UNL d   1      -0.087   1.104   0.184  0.00  0.00    -0.241 OA
ATOM      6  C   UNL d   1       0.711   0.047  -0.114  0.00  0.00     0.090 C 
ATOM      7  C   UNL d   1       2.082   0.395  -0.536  0.00  0.00     0.080 C 
ENDROOT
BRANCH   1   8
ATOM      8  C   UNL d   1       0.456  -2.487  -0.146  0.00  0.00     0.259 C 
ATOM      9  N   UNL d   1       1.516  -2.960   0.645  0.00  0.00    -0.344 N 
ATOM     10  C   UNL d   1       1.991  -4.304   0.318  0.00  0.00     0.153 C 
ATOM     11  C   UNL d   1       2.364  -2.124   1.503  0.00  0.00     0.130 C 
ATOM     12  C   UNL d   1       2.965  -4.860   1.315  0.00  0.00    -0.011 C 
ATOM     13  C   UNL d   1       3.393  -4.222   2.412  0.00  0.00    -0.027 C 
ATOM     14  C   UNL d   1       2.929  -2.841   2.729  0.00  0.00     0.047 C 
ATOM     15  O   UNL d   1      -0.122  -3.219  -0.950  0.00  0.00    -0.267 OA
ENDBRANCH   1   8
BRANCH   2  16
ATOM     16  C   UNL d   1      -2.609  -1.416   0.189  0.00  0.00     0.037 A 
ATOM     17  C   UNL d   1      -2.868  -2.487   1.064  0.00  0.00     0.048 A 
ATOM     18 CL   UNL d   1      -1.766  -2.971   2.310  0.00  0.00    -0.083 Cl
ATOM     19  C   UNL d   1      -4.077  -3.198   0.991  0.00  0.00     0.025 A 
ATOM     20  C   UNL d   1      -5.057  -2.840   0.069  0.00  0.00     0.003 A 
ATOM     21  C   UNL d   1      -4.827  -1.773  -0.792  0.00  0.00     0.025 A 
ATOM     22  C   UNL d   1      -3.613  -1.075  -0.746  0.00  0.00     0.048 A 
ATOM     23 CL   UNL d   1      -3.423   0.188  -1.921  0.00  0.00    -0.083 Cl
ENDBRANCH   2  16
TORSDOF 2
