REMARK  3 active torsions:
REMARK  status: ('A' for Active; 'I' for Inactive)
REMARK    1  A    between atoms: N_8  and  C_2 
REMARK    2  A    between atoms: C_3  and  C_10 
REMARK    3  A    between atoms: N_6  and  N_8 
ROOT
ATOM      1  N   UNL d   1       3.207   0.993   0.142  0.00  0.00    -0.302 N 
ATOM      2  HN  UNL d   1       2.244   1.323   0.207  1.00  0.00     0.186 HD
ATOM      3  C   UNL d   1       4.236   1.796   0.078  0.00  0.00     0.039 C 
ATOM      4  C   UNL d   1       5.664   1.287   0.018  0.00  0.00     0.071 C 
ENDROOT
BRANCH   1   5
ATOM      5  N   UNL d   1       3.554  -0.365   0.114  0.00  0.00    -0.280 N 
ATOM      6  HN  UNL d   1       4.518  -0.698   0.081  1.00  0.00     0.189 HD
BRANCH   5   7
ATOM      7  C   UNL d   1       2.532  -1.151   0.135  0.00  0.00     0.162 A 
ATOM      8  N   UNL d   1       1.242  -0.753   0.182  0.00  0.00    -0.306 N 
ATOM      9  C   UNL d   1       0.274  -1.709   0.211  0.00  0.00     0.233 A 
ATOM     10  H   UNL d   1       1.035   0.233   0.207  0.00  0.00     0.171 HD
ATOM     11  O   UNL d   1      -0.924  -1.464   0.276  0.00  0.00    -0.272 OA
ATOM     12  C   UNL d   1       0.857  -3.100   0.152  0.00  0.00     0.185 A 
ATOM     13  S   UNL d   1       2.660  -2.880   0.107  0.00  0.00    -0.083 SA
ENDBRANCH   5   7
ENDBRANCH   1   5
BRANCH   3  14
ATOM     14  C   UNL d   1       3.966   3.227   0.091  0.00  0.00     0.030 A 
ATOM     15  S   UNL d   1       5.016   4.350  -0.677  0.00  0.00    -0.076 SA
ATOM     16  C   UNL d   1       4.047   5.658  -0.223  0.00  0.00     0.075 A 
ATOM     17 CL   UNL d   1       4.509   7.253  -0.658  0.00  0.00    -0.076 Cl
ATOM     18  C   UNL d   1       2.931   5.292   0.479  0.00  0.00     0.033 A 
ATOM     19  C   UNL d   1       2.873   3.876   0.645  0.00  0.00     0.023 A 
ENDBRANCH   3  14
TORSDOF 3
