REMARK  4 active torsions:
REMARK  status: ('A' for Active; 'I' for Inactive)
REMARK    1  A    between atoms: C_3  and  C_1 
REMARK       I    between atoms: C_2  and  N_4 
REMARK    2  A    between atoms: O_15  and  C_2 
REMARK    3  A    between atoms: N_4  and  C_5 
REMARK    4  A    between atoms: C_16  and  O_15 
ROOT
ATOM      1  C   UNL d   1       0.570  -1.276   0.440  0.00  0.00     0.049 A 
ATOM      2  C   UNL d   1      -0.328  -3.826   1.287  0.00  0.00     0.058 A 
ATOM      3  C   UNL d   1      -0.995  -2.660   1.694  0.00  0.00     0.061 A 
ATOM      4  C   UNL d   1      -0.547  -1.396   1.281  0.00  0.00     0.042 A 
ATOM      5  C   UNL d   1       1.214  -2.440   0.011  0.00  0.00     0.018 A 
ATOM      6  C   UNL d   1       0.768  -3.694   0.427  0.00  0.00     0.032 A 
ATOM      7 CL   UNL d   1      -2.377  -2.736   2.731  0.00  0.00    -0.082 Cl
ENDROOT
BRANCH   2   8
ATOM      8  N   UNL d   1      -0.788  -5.095   1.712  0.00  0.00    -0.301 N 
ATOM      9  C   UNL d   1      -0.144  -6.287   1.539  0.00  0.00     0.365 C 
ATOM     10  O   UNL d   1       1.001  -6.446   1.138  0.00  0.00    -0.238 OA
ATOM     11  H   UNL d   1      -1.675  -5.138   2.203  0.00  0.00     0.171 HD
BRANCH   9  12
ATOM     12  O   UNL d   1      -0.978  -7.316   1.849  0.00  0.00    -0.304 OA
BRANCH  12  13
ATOM     13  C   UNL d   1      -0.489  -8.603   1.430  0.00  0.00     0.176 C 
ATOM     14  C   UNL d   1      -0.928  -8.855  -0.002  0.00  0.00     0.034 C 
ENDBRANCH  12  13
ENDBRANCH   9  12
ENDBRANCH   2   8
BRANCH   1  15
ATOM     15  C   UNL d   1       1.097   0.063  -0.008  0.00  0.00     0.417 C 
ATOM     16  F   UNL d   1       0.376   1.117   0.460  0.00  0.00    -0.166 F 
ATOM     17  F   UNL d   1       1.107   0.187  -1.364  0.00  0.00    -0.166 F 
ATOM     18  F   UNL d   1       2.379   0.275   0.396  0.00  0.00    -0.166 F 
ENDBRANCH   1  15
TORSDOF 4
