REMARK  3 active torsions:
REMARK  status: ('A' for Active; 'I' for Inactive)
REMARK    1  A    between atoms: N_3  and  C_1 
REMARK       I    between atoms: C_8  and  N_3 
REMARK    2  A    between atoms: C_11  and  C_8 
REMARK    3  A    between atoms: C_14  and  C_9 
ROOT
ATOM      1  N   UNL d   1       0.405   2.593  -0.043  0.00  0.00    -0.302 N 
ATOM      2  C   UNL d   1       1.685   3.096  -0.047  0.00  0.00     0.257 C 
ATOM      3  O   UNL d   1       2.728   2.452  -0.071  0.00  0.00    -0.267 OA
ATOM      4  H   UNL d   1      -0.389   3.199  -0.192  0.00  0.00     0.171 HD
ENDROOT
BRANCH   1   5
ATOM      5  C   UNL d   1       0.071   1.257  -0.015  0.00  0.00     0.168 A 
ATOM      6  S   UNL d   1       1.199   0.016   0.291  0.00  0.00    -0.038 SA
ATOM      7  C   UNL d   1      -0.085  -1.108   0.120  0.00  0.00     0.069 A 
ATOM      8  N   UNL d   1      -1.252  -0.548  -0.126  0.00  0.00    -0.296 N 
ATOM      9  N   UNL d   1      -1.162   0.831  -0.187  0.00  0.00    -0.279 N 
ATOM     10  HN  UNL d   1      -2.119  -1.070  -0.255  1.00  0.00     0.187 HD
ATOM     11  HN  UNL d   1      -1.959   1.447  -0.346  1.00  0.00     0.189 HD
BRANCH   7  12
ATOM     12  C   UNL d   1       0.153  -2.574   0.274  0.00  0.00     0.062 C 
ATOM     13  C   UNL d   1       0.607  -3.220  -1.026  0.00  0.00     0.012 C 
ENDBRANCH   7  12
ENDBRANCH   1   5
BRANCH   2  14
ATOM     14  C   UNL d   1       1.805   4.579  -0.077  0.00  0.00     0.035 A 
ATOM     15  C   UNL d   1       0.886   5.422   0.547  0.00  0.00     0.034 A 
ATOM     16  C   UNL d   1       1.131   6.785   0.501  0.00  0.00     0.088 A 
ATOM     17  N   UNL d   1       2.199   7.338  -0.113  0.00  0.00    -0.375 N 
ATOM     18  C   UNL d   1       3.077   6.498  -0.699  0.00  0.00     0.088 A 
ATOM     19  HN  UNL d   1       2.337   8.349  -0.132  1.00  0.00     0.164 HD
ATOM     20  C   UNL d   1       2.926   5.126  -0.707  0.00  0.00     0.034 A 
ENDBRANCH   2  14
TORSDOF 3
