REMARK  4 active torsions:
REMARK  status: ('A' for Active; 'I' for Inactive)
REMARK    1  A    between atoms: C_2  and  C_1 
REMARK       I    between atoms: N_10  and  C_2 
REMARK    2  A    between atoms: C_11  and  N_10 
REMARK    3  A    between atoms: C_15  and  C_11 
REMARK    4  A    between atoms: C_12  and  C_15 
ROOT
ATOM      1  C   UNL d   1      -0.183   2.711   0.008  0.00  0.00     0.258 C 
ATOM      2  O   UNL d   1      -1.368   3.038   0.003  0.00  0.00    -0.267 OA
ATOM      3  N   UNL d   1       0.825   3.656  -0.009  0.00  0.00    -0.356 N 
ATOM      4  H   UNL d   1       1.781   3.322  -0.011  0.00  0.00     0.162 HD
ENDROOT
BRANCH   3   5
ATOM      5  C   UNL d   1       0.543   5.079  -0.031  0.00  0.00     0.127 C 
BRANCH   5   6
ATOM      6  C   UNL d   1       1.817   5.926  -0.035  0.00  0.00     0.058 C 
BRANCH   6   7
ATOM      7  C   UNL d   1       1.534   7.407  -0.031  0.00  0.00    -0.054 A 
ATOM      8  C   UNL d   1       1.387   8.101   1.173  0.00  0.00     0.024 A 
ATOM      9  C   UNL d   1       1.132   9.464   1.133  0.00  0.00     0.088 A 
ATOM     10  N   UNL d   1       1.011  10.172  -0.009  0.00  0.00    -0.375 N 
ATOM     11  C   UNL d   1       1.147   9.484  -1.163  0.00  0.00     0.088 A 
ATOM     12  HN  UNL d   1       0.825  11.175  -0.001  1.00  0.00     0.164 HD
ATOM     13  C   UNL d   1       1.403   8.121  -1.225  0.00  0.00     0.024 A 
ENDBRANCH   6   7
ENDBRANCH   5   6
ENDBRANCH   3   5
BRANCH   1  14
ATOM     14  C   UNL d   1       0.253   1.318   0.030  0.00  0.00     0.072 A 
ATOM     15  S   UNL d   1       1.913   0.880   0.051  0.00  0.00    -0.097 SA
ATOM     16  C   UNL d   1       1.550  -0.790   0.071  0.00  0.00     0.050 A 
ATOM     17  C   UNL d   1       0.194  -1.023   0.063  0.00  0.00     0.009 A 
ATOM     18  C   UNL d   1      -0.554   0.191   0.040  0.00  0.00     0.025 A 
ENDBRANCH   1  14
TORSDOF 4
