REMARK  5 active torsions:
REMARK  status: ('A' for Active; 'I' for Inactive)
REMARK    1  A    between atoms: C_13  and  C_1 
REMARK    2  A    between atoms: C_3  and  N_11 
REMARK    3  A    between atoms: N_5  and  C_3 
REMARK    4  A    between atoms: C_7  and  N_5 
REMARK    5  A    between atoms: N_11  and  C_13 
ROOT
ATOM      1  C   UNL d   1      -0.216  -5.250   0.002  0.00  0.00     0.172 C 
ATOM      2  S   UNL d   1       1.144  -6.173   0.294  0.00  0.00    -0.041 SA
ENDROOT
BRANCH   1   3
ATOM      3  N   UNL d   1      -0.285  -3.882  -0.034  0.00  0.00    -0.363 N 
ATOM      4  H   UNL d   1      -1.113  -3.518  -0.487  0.00  0.00     0.162 HD
BRANCH   3   5
ATOM      5  C   UNL d   1       0.834  -2.950   0.013  0.00  0.00     0.162 C 
BRANCH   5   6
ATOM      6  C   UNL d   1       1.270  -2.633  -1.391  0.00  0.00    -0.022 A 
ATOM      7  C   UNL d   1       2.103  -3.447  -2.136  0.00  0.00     0.060 A 
ATOM      8  S   UNL d   1       2.435  -2.838  -3.687  0.00  0.00    -0.101 SA
ATOM      9  C   UNL d   1       1.497  -1.427  -3.408  0.00  0.00     0.015 A 
ATOM     10  C   UNL d   1       0.914  -1.438  -2.136  0.00  0.00    -0.011 A 
ATOM     11  C   UNL d   1       1.306  -0.359  -4.309  0.00  0.00     0.019 A 
ATOM     12  C   UNL d   1       0.110  -0.323  -1.784  0.00  0.00     0.013 A 
ATOM     13  C   UNL d   1      -0.079   0.742  -2.671  0.00  0.00     0.001 A 
ATOM     14  C   UNL d   1       0.516   0.722  -3.922  0.00  0.00     0.001 A 
ENDBRANCH   5   6
ENDBRANCH   3   5
ENDBRANCH   1   3
BRANCH   1  15
ATOM     15  N   UNL d   1      -1.372  -5.910  -0.313  0.00  0.00    -0.332 N 
ATOM     16  H   UNL d   1      -1.223  -6.847  -0.682  0.00  0.00     0.168 HD
BRANCH  15  17
ATOM     17  C   UNL d   1      -2.719  -5.576  -0.058  0.00  0.00     0.051 A 
ATOM     18  C   UNL d   1      -3.738  -6.259  -0.750  0.00  0.00     0.040 A 
ATOM     19  C   UNL d   1      -5.082  -6.024  -0.458  0.00  0.00     0.063 A 
ATOM     20 BR   UNL d   1      -3.335  -7.501  -2.133  0.00  0.00    -0.049 Br
ATOM     21  C   UNL d   1      -5.407  -5.127   0.550  0.00  0.00     0.117 A 
ATOM     22  C   UNL d   1      -4.418  -4.454   1.260  0.00  0.00     0.044 A 
ATOM     23  F   UNL d   1      -6.693  -4.919   0.856  0.00  0.00    -0.206 F 
ATOM     24  C   UNL d   1      -3.073  -4.672   0.951  0.00  0.00     0.034 A 
ENDBRANCH  15  17
ENDBRANCH   1  15
TORSDOF 5
