REMARK  3 active torsions:
REMARK  status: ('A' for Active; 'I' for Inactive)
REMARK    1  A    between atoms: N_6  and  C_5 
REMARK    2  A    between atoms: C_10  and  C_7 
REMARK    3  A    between atoms: C_11  and  C_10 
ROOT
ATOM      1  N   UNL d   1       1.530  -3.702  -3.721  0.00  0.00    -0.196 NA
ATOM      2  N   UNL d   1       2.495   0.235  -2.140  0.00  0.00    -0.196 NA
ATOM      3  C   UNL d   1       1.126  -2.758  -3.178  0.00  0.00     0.079 C 
ATOM      4  C   UNL d   1       1.671  -0.563  -2.303  0.00  0.00     0.079 C 
ATOM      5  C   UNL d   1       0.606  -1.567  -2.487  0.00  0.00     0.203 C 
ENDROOT
BRANCH   5   6
ATOM      6  C   UNL d   1       0.013  -1.928  -1.115  0.00  0.00     0.072 C 
BRANCH   6   7
ATOM      7  C   UNL d   1      -1.188  -2.842  -1.180  0.00  0.00    -0.056 A 
ATOM      8  C   UNL d   1      -1.036  -4.226  -1.077  0.00  0.00     0.009 A 
ATOM      9  C   UNL d   1      -2.151  -5.076  -1.121  0.00  0.00     0.030 A 
ATOM     10  C   UNL d   1      -3.459  -4.589  -1.259  0.00  0.00     0.029 A 
ATOM     11  C   UNL d   1      -3.583  -3.194  -1.371  0.00  0.00     0.030 A 
ATOM     12  C   UNL d   1      -2.475  -2.332  -1.341  0.00  0.00     0.009 A 
BRANCH  10  13
ATOM     13  N   UNL d   1      -4.575  -5.414  -1.223  0.00  0.00    -0.390 N 
ATOM     14  C   UNL d   1      -5.756  -5.114  -2.029  0.00  0.00     0.149 C 
ATOM     15  C   UNL d   1      -4.502  -6.788  -0.735  0.00  0.00     0.149 C 
ENDBRANCH  10  13
ENDBRANCH   6   7
ENDBRANCH   5   6
TORSDOF 3
