REMARK  9 active torsions:
REMARK  status: ('A' for Active; 'I' for Inactive)
REMARK    1  A    between atoms: C_10  and  C_1 
REMARK    2  A    between atoms: C_13  and  N_4 
REMARK    3  A    between atoms: C_8  and  C_12 
REMARK    4  A    between atoms: C_9  and  C_11 
REMARK    5  A    between atoms: C_15  and  C_13 
REMARK    6  A    between atoms: C_14  and  N_19 
REMARK    7  A    between atoms: N_20  and  C_14 
REMARK       I    between atoms: N_21  and  C_15 
REMARK    8  A    between atoms: N_19  and  N_21 
REMARK    9  A    between atoms: C_30  and  N_20 
ROOT
ATOM      1  C   UNL d   1      -1.429   0.539   0.819  0.00  0.00     0.144 A 
ATOM      2  N   UNL d   1      -0.604   1.301   0.084  0.00  0.00    -0.268 N 
ATOM      3  HN  UNL d   1      -0.815   2.114  -0.495  1.00  0.00     0.190 HD
ATOM      4  N   UNL d   1       0.573   0.702   0.318  0.00  0.00    -0.207 N 
ATOM      5  N   UNL d   1      -0.782  -0.537   1.380  0.00  0.00    -0.266 N 
ATOM      6  HN  UNL d   1      -1.208  -1.283   1.931  1.00  0.00     0.186 HD
ATOM      7  N   UNL d   1       0.503  -0.419   1.067  0.00  0.00    -0.002 NA
ENDROOT
BRANCH   4   8
ATOM      8  C   UNL d   1       1.804   1.387   0.008  0.00  0.00     0.271 C 
BRANCH   8   9
ATOM      9  C   UNL d   1       3.055   0.556  -0.075  0.00  0.00     0.257 C 
ATOM     10  N   UNL d   1       3.129  -0.531  -0.904  0.00  0.00    -0.266 N 
ATOM     11  H   UNL d   1       4.021  -1.024  -0.909  0.00  0.00     0.190 HD
ATOM     12  O   UNL d   1       4.085   0.923   0.501  0.00  0.00    -0.270 OA
BRANCH  10  13
ATOM     13  N   UNL d   1       2.010  -1.263  -1.327  0.00  0.00    -0.273 N 
ATOM     14  H   UNL d   1       1.333  -1.472  -0.589  0.00  0.00     0.189 HD
BRANCH  13  15
ATOM     15  C   UNL d   1       2.201  -2.300  -2.225  0.00  0.00     0.191 C 
ATOM     16  S   UNL d   1       3.123  -2.193  -3.610  0.00  0.00    -0.039 SA
BRANCH  15  17
ATOM     17  N   UNL d   1       1.479  -3.438  -1.950  0.00  0.00    -0.332 N 
ATOM     18  H   UNL d   1       1.270  -4.040  -2.740  0.00  0.00     0.168 HD
BRANCH  17  19
ATOM     19  C   UNL d   1       1.132  -3.902  -0.670  0.00  0.00     0.034 A 
ATOM     20  C   UNL d   1      -0.041  -4.639  -0.508  0.00  0.00     0.031 A 
ATOM     21  C   UNL d   1      -0.460  -5.005   0.777  0.00  0.00     0.026 A 
ATOM     22  C   UNL d   1       0.318  -4.673   1.888  0.00  0.00     0.034 A 
ATOM     23  C   UNL d   1       1.532  -4.010   1.727  0.00  0.00     0.026 A 
ATOM     24 CL   UNL d   1      -0.223  -5.073   3.469  0.00  0.00    -0.084 Cl
ATOM     25  C   UNL d   1       1.938  -3.635   0.450  0.00  0.00     0.031 A 
ENDBRANCH  17  19
ENDBRANCH  15  17
ENDBRANCH  13  15
ENDBRANCH  10  13
ENDBRANCH   8   9
ENDBRANCH   4   8
BRANCH   1  26
ATOM     26  C   UNL d   1      -2.800   0.929   1.129  0.00  0.00     0.012 A 
ATOM     27  C   UNL d   1      -3.303   2.136   0.613  0.00  0.00     0.031 A 
ATOM     28  C   UNL d   1      -4.538   2.651   1.026  0.00  0.00     0.049 A 
ATOM     29  C   UNL d   1      -5.297   1.916   1.949  0.00  0.00     0.032 A 
ATOM     30  C   UNL d   1      -4.837   0.684   2.450  0.00  0.00     0.049 A 
ATOM     31  C   UNL d   1      -3.585   0.197   2.029  0.00  0.00     0.031 A 
BRANCH  28  32
ATOM     32  C   UNL d   1      -5.014   4.000   0.538  0.00  0.00     0.417 C 
ATOM     33  F   UNL d   1      -4.184   4.572  -0.377  0.00  0.00    -0.166 F 
ATOM     34  F   UNL d   1      -6.238   3.938  -0.051  0.00  0.00    -0.166 F 
ATOM     35  F   UNL d   1      -5.128   4.900   1.553  0.00  0.00    -0.166 F 
ENDBRANCH  28  32
BRANCH  30  36
ATOM     36  C   UNL d   1      -5.668  -0.062   3.469  0.00  0.00     0.417 C 
ATOM     37  F   UNL d   1      -5.129  -1.254   3.846  0.00  0.00    -0.166 F 
ATOM     38  F   UNL d   1      -5.841   0.651   4.613  0.00  0.00    -0.166 F 
ATOM     39  F   UNL d   1      -6.918  -0.345   3.009  0.00  0.00    -0.166 F 
ENDBRANCH  30  36
ENDBRANCH   1  26
TORSDOF 9
