REMARK  6 active torsions:
REMARK  status: ('A' for Active; 'I' for Inactive)
REMARK    1  A    between atoms: C_12  and  N_1 
REMARK    2  A    between atoms: C_11  and  N_3 
REMARK    3  A    between atoms: O_17  and  C_5 
REMARK    4  A    between atoms: O_18  and  C_6 
REMARK    5  A    between atoms: O_19  and  C_9 
REMARK    6  A    between atoms: O_20  and  C_10 
ROOT
ATOM      1  N   UNL d   1       0.896   0.097   0.020  0.00  0.00    -0.300 N 
ATOM      2  HN  UNL d   1       0.397   0.981  -0.080  1.00  0.00     0.187 HD
ATOM      3  N   UNL d   1       0.329  -1.012   0.122  0.00  0.00    -0.300 N 
ATOM      4  HN  UNL d   1       0.828  -1.893   0.243  1.00  0.00     0.187 HD
ENDROOT
BRANCH   1   5
ATOM      5  C   UNL d   1       2.303  -0.009   0.058  0.00  0.00     0.051 A 
ATOM      6  C   UNL d   1       3.010  -1.118  -0.437  0.00  0.00     0.070 A 
ATOM      7  C   UNL d   1       4.411  -1.182  -0.392  0.00  0.00     0.103 A 
ATOM      8  C   UNL d   1       5.121  -0.086   0.126  0.00  0.00     0.101 A 
ATOM      9  C   UNL d   1       4.422   1.023   0.616  0.00  0.00     0.042 A 
ATOM     10  C   UNL d   1       3.027   1.064   0.576  0.00  0.00     0.034 A 
BRANCH   7  11
ATOM     11  O   UNL d   1       5.125  -2.275  -0.805  0.00  0.00    -0.353 OA
ATOM     12  C   UNL d   1       4.403  -3.417  -1.249  0.00  0.00     0.210 C 
ENDBRANCH   7  11
BRANCH   8  13
ATOM     13  O   UNL d   1       6.481   0.032   0.269  0.00  0.00    -0.353 OA
ATOM     14  C   UNL d   1       7.287  -0.624  -0.702  0.00  0.00     0.210 C 
ENDBRANCH   8  13
ENDBRANCH   1   5
BRANCH   3  15
ATOM     15  C   UNL d   1      -1.077  -0.914   0.052  0.00  0.00     0.051 A 
ATOM     16  C   UNL d   1      -1.750   0.075  -0.689  0.00  0.00     0.070 A 
ATOM     17  C   UNL d   1      -3.151   0.133  -0.742  0.00  0.00     0.103 A 
ATOM     18  C   UNL d   1      -3.895  -0.850  -0.069  0.00  0.00     0.101 A 
ATOM     19  C   UNL d   1      -3.230  -1.840   0.666  0.00  0.00     0.042 A 
ATOM     20  C   UNL d   1      -1.837  -1.873   0.720  0.00  0.00     0.034 A 
BRANCH  17  21
ATOM     21  O   UNL d   1      -3.836   1.122  -1.399  0.00  0.00    -0.353 OA
ATOM     22  C   UNL d   1      -3.084   2.159  -2.017  0.00  0.00     0.210 C 
ENDBRANCH  17  21
BRANCH  18  23
ATOM     23  O   UNL d   1      -5.260  -0.949   0.013  0.00  0.00    -0.353 OA
ATOM     24  C   UNL d   1      -6.005  -0.504  -1.114  0.00  0.00     0.210 C 
ENDBRANCH  18  23
ENDBRANCH   3  15
TORSDOF 6
