REMARK  5 active torsions:
REMARK  status: ('A' for Active; 'I' for Inactive)
REMARK    1  A    between atoms: C_4  and  C_1 
REMARK    2  A    between atoms: C_2  and  O_6 
REMARK    3  A    between atoms: C_11  and  C_3 
REMARK       I    between atoms: N_5  and  C_4 
REMARK    4  A    between atoms: C_12  and  N_5 
REMARK    5  A    between atoms: O_6  and  C_13 
ROOT
ATOM      1  C   UNL d   1       3.443  -0.309  -0.206  0.00  0.00     0.301 C 
ATOM      2  N   UNL d   1       4.164  -1.003  -1.156  0.00  0.00    -0.316 N 
ATOM      3  O   UNL d   1       3.879   0.263   0.783  0.00  0.00    -0.258 OA
ATOM      4  H   UNL d   1       3.666  -1.281  -1.992  0.00  0.00     0.170 HD
ENDROOT
BRANCH   2   5
ATOM      5  C   UNL d   1       5.557  -1.227  -1.118  0.00  0.00     0.035 A 
ATOM      6  C   UNL d   1       6.322  -1.043   0.036  0.00  0.00     0.032 A 
ATOM      7  C   UNL d   1       7.709  -1.216   0.018  0.00  0.00     0.039 A 
ATOM      8  C   UNL d   1       8.358  -1.534  -1.168  0.00  0.00     0.078 A 
ATOM      9  C   UNL d   1       7.591  -1.801  -2.305  0.00  0.00     0.039 A 
ATOM     10  C   UNL d   1       6.197  -1.656  -2.282  0.00  0.00     0.032 A 
BRANCH   8  11
ATOM     11  O   UNL d   1       9.703  -1.664  -1.325  0.00  0.00    -0.255 OA
BRANCH  11  12
ATOM     12  C   UNL d   1      10.573  -0.854  -0.541  0.00  0.00     0.530 C 
ATOM     13  F   UNL d   1       9.953   0.098   0.188  0.00  0.00    -0.144 F 
ATOM     14  F   UNL d   1      11.285  -1.643   0.292  0.00  0.00    -0.144 F 
ATOM     15  F   UNL d   1      11.440  -0.231  -1.371  0.00  0.00    -0.144 F 
ENDBRANCH  11  12
ENDBRANCH   8  11
ENDBRANCH   2   5
BRANCH   1  16
ATOM     16  C   UNL d   1       2.022  -0.225  -0.434  0.00  0.00     0.000 C 
ATOM     17  C   UNL d   1       0.829  -0.073  -0.486  0.00  0.00    -0.057 C 
BRANCH  17  18
ATOM     18  C   UNL d   1      -0.575   0.178  -0.434  0.00  0.00     0.018 A 
ATOM     19  C   UNL d   1      -1.043   1.495  -0.409  0.00  0.00     0.020 A 
ATOM     20  C   UNL d   1      -2.413   1.748  -0.328  0.00  0.00     0.001 A 
ATOM     21  C   UNL d   1      -3.315   0.687  -0.269  0.00  0.00     0.000 A 
ATOM     22  C   UNL d   1      -2.849  -0.628  -0.285  0.00  0.00     0.001 A 
ATOM     23  C   UNL d   1      -1.479  -0.884  -0.366  0.00  0.00     0.020 A 
ENDBRANCH  17  18
ENDBRANCH   1  16
TORSDOF 5
