REMARK  3 active torsions:
REMARK  status: ('A' for Active; 'I' for Inactive)
REMARK    1  A    between atoms: C_4  and  C_1 
REMARK    2  A    between atoms: N_10  and  N_5 
REMARK    3  A    between atoms: C_7  and  N_10 
ROOT
ATOM      1  C   UNL d   1      -3.854  -0.126  -0.095  0.00  0.00     0.056 C 
ATOM      2  N   UNL d   1      -4.535  -1.235  -0.163  0.00  0.00    -0.300 N 
ATOM      3  HN  UNL d   1      -5.553  -1.206  -0.224  1.00  0.00     0.186 HD
ATOM      4  C   UNL d   1      -2.348  -0.055  -0.006  0.00  0.00     0.072 C 
ENDROOT
BRANCH   1   5
ATOM      5  C   UNL d   1      -4.626   1.100  -0.102  0.00  0.00     0.100 A 
ATOM      6  O   UNL d   1      -4.006   2.319  -0.032  0.00  0.00    -0.308 OA
ATOM      7  C   UNL d   1      -4.984   3.272  -0.038  0.00  0.00     0.086 A 
ATOM      8  C   UNL d   1      -4.787   4.650   0.029  0.00  0.00     0.038 A 
ATOM      9  C   UNL d   1      -6.237   2.676  -0.115  0.00  0.00     0.001 A 
ATOM     10  C   UNL d   1      -5.938   5.448   0.023  0.00  0.00     0.003 A 
ATOM     11  C   UNL d   1      -7.213   4.882  -0.052  0.00  0.00     0.001 A 
ATOM     12  C   UNL d   1      -7.380   3.493  -0.125  0.00  0.00     0.014 A 
ATOM     13  C   UNL d   1      -5.997   1.284  -0.163  0.00  0.00     0.053 A 
ENDBRANCH   1   5
BRANCH   2  14
ATOM     14  N   UNL d   1      -3.885  -2.435  -0.151  0.00  0.00    -0.276 N 
ATOM     15  H   UNL d   1      -2.875  -2.493  -0.083  0.00  0.00     0.189 HD
BRANCH  14  16
ATOM     16  C   UNL d   1      -4.594  -3.605  -0.219  0.00  0.00     0.184 C 
ATOM     17  S   UNL d   1      -3.864  -5.093  -0.199  0.00  0.00    -0.040 SA
ATOM     18  N   UNL d   1      -5.940  -3.469  -0.303  0.00  0.00    -0.375 N 
ATOM     19  H   UNL d   1      -6.310  -2.528  -0.303  0.00  0.00     0.158 HD
ATOM     20  H   UNL d   1      -6.553  -4.269  -0.353  0.00  0.00     0.158 HD
ENDBRANCH  14  16
ENDBRANCH   2  14
TORSDOF 3
