REMARK  4 active torsions:
REMARK  status: ('A' for Active; 'I' for Inactive)
REMARK    1  A    between atoms: C_4  and  C_1 
REMARK    2  A    between atoms: C_14  and  C_5 
REMARK    3  A    between atoms: C_11  and  C_16 
REMARK    4  A    between atoms: C_12  and  C_17 
ROOT
ATOM      1  C   UNL d   1       0.539  -1.005   0.010  0.00  0.00     0.186 A 
ATOM      2  N   UNL d   1       1.213   0.105   0.231  0.00  0.00    -0.318 N 
ATOM      3  HN  UNL d   1       2.192   0.211   0.498  1.00  0.00     0.169 HD
ATOM      4  C   UNL d   1       0.273   1.088   0.012  0.00  0.00     0.138 A 
ATOM      5  N   UNL d   1      -0.950   0.614  -0.267  0.00  0.00    -0.242 N 
ATOM      6  HN  UNL d   1      -1.807   1.142  -0.432  1.00  0.00     0.196 HD
ATOM      7  O   UNL d   1      -0.777  -0.762  -0.279  0.00  0.00    -0.217 OA
ENDROOT
BRANCH   4   8
ATOM      8  C   UNL d   1       0.613   2.508  -0.018  0.00  0.00     0.011 A 
ATOM      9  C   UNL d   1       1.925   2.936   0.232  0.00  0.00     0.031 A 
ATOM     10  C   UNL d   1       2.285   4.289   0.095  0.00  0.00     0.049 A 
ATOM     11  C   UNL d   1       1.304   5.220  -0.286  0.00  0.00     0.032 A 
ATOM     12  C   UNL d   1      -0.016   4.816  -0.533  0.00  0.00     0.049 A 
ATOM     13  C   UNL d   1      -0.351   3.461  -0.381  0.00  0.00     0.031 A 
BRANCH  10  14
ATOM     14  C   UNL d   1       3.719   4.713   0.318  0.00  0.00     0.417 C 
ATOM     15  F   UNL d   1       3.933   6.038   0.084  0.00  0.00    -0.166 F 
ATOM     16  F   UNL d   1       4.140   4.483   1.590  0.00  0.00    -0.166 F 
ATOM     17  F   UNL d   1       4.586   4.047  -0.493  0.00  0.00    -0.166 F 
ENDBRANCH  10  14
BRANCH  12  18
ATOM     18  C   UNL d   1      -1.069   5.796  -0.998  0.00  0.00     0.417 C 
ATOM     19  F   UNL d   1      -0.594   7.060  -1.171  0.00  0.00    -0.166 F 
ATOM     20  F   UNL d   1      -1.613   5.436  -2.193  0.00  0.00    -0.166 F 
ATOM     21  F   UNL d   1      -2.107   5.899  -0.126  0.00  0.00    -0.166 F 
ENDBRANCH  12  18
ENDBRANCH   4   8
BRANCH   1  22
ATOM     22  C   UNL d   1       1.125  -2.361   0.030  0.00  0.00     0.073 A 
ATOM     23  C   UNL d   1       2.411  -2.692   0.380  0.00  0.00     0.089 A 
ATOM     24  O   UNL d   1       2.564  -4.038   0.260  0.00  0.00    -0.242 OA
ATOM     25  C   UNL d   1       3.589  -1.935   0.842  0.00  0.00     0.080 C 
ATOM     26  N   UNL d   1       1.380  -4.605  -0.177  0.00  0.00    -0.265 N 
ATOM     27  C   UNL d   1       0.518  -3.588  -0.316  0.00  0.00     0.045 A 
ATOM     28  HN  UNL d   1       1.200  -5.593  -0.357  1.00  0.00     0.194 HD
ATOM     29  C   UNL d   1      -0.858  -3.845  -0.806  0.00  0.00     0.071 C 
ENDBRANCH   1  22
TORSDOF 4
