REMARK  2 active torsions:
REMARK  status: ('A' for Active; 'I' for Inactive)
REMARK    1  A    between atoms: C_11  and  C_5 
REMARK    2  A    between atoms: O_20  and  C_12 
ROOT
ATOM      1  C   UNL d   1      -2.068   0.339   0.046  0.00  0.00    -0.006 C 
ATOM      2  C   UNL d   1      -1.096  -0.801   0.003  0.00  0.00     0.189 C 
ATOM      3  C   UNL d   1       0.349  -0.427   0.009  0.00  0.00     0.021 A 
ATOM      4  C   UNL d   1       0.743   0.921  -0.032  0.00  0.00    -0.041 A 
ATOM      5  C   UNL d   1      -3.277   0.151  -0.510  0.00  0.00     0.022 C 
ATOM      6  C   UNL d   1       1.317  -1.437   0.021  0.00  0.00     0.019 A 
ATOM      7  C   UNL d   1      -1.547   1.596   0.676  0.00  0.00     0.047 C 
ATOM      8  O   UNL d   1      -1.454  -1.969  -0.051  0.00  0.00    -0.287 OA
ATOM      9  C   UNL d   1       2.108   1.231  -0.102  0.00  0.00     0.044 A 
ATOM     10  C   UNL d   1      -0.278   2.029  -0.046  0.00  0.00     0.044 C 
ATOM     11  C   UNL d   1       3.077   0.223  -0.094  0.00  0.00     0.068 A 
ATOM     12  C   UNL d   1       2.678  -1.111  -0.023  0.00  0.00     0.038 A 
ENDROOT
BRANCH   5  13
ATOM     13  C   UNL d   1      -4.301   1.190  -0.630  0.00  0.00    -0.035 A 
ATOM     14  C   UNL d   1      -4.322   2.029  -1.752  0.00  0.00     0.013 A 
ATOM     15  C   UNL d   1      -5.334   2.981  -1.898  0.00  0.00     0.024 A 
ATOM     16  C   UNL d   1      -6.321   3.096  -0.921  0.00  0.00     0.034 A 
ATOM     17  C   UNL d   1      -6.289   2.287   0.214  0.00  0.00     0.024 A 
ATOM     18 CL   UNL d   1      -7.597   4.232  -1.125  0.00  0.00    -0.084 Cl
ATOM     19  C   UNL d   1      -5.274   1.338   0.363  0.00  0.00     0.013 A 
ENDBRANCH   5  13
BRANCH  11  20
ATOM     20  O   UNL d   1       4.364   0.679  -0.163  0.00  0.00    -0.356 OA
ATOM     21  C   UNL d   1       5.394  -0.300  -0.161  0.00  0.00     0.210 C 
ENDBRANCH  11  20
TORSDOF 2
