REMARK  2 active torsions:
REMARK  status: ('A' for Active; 'I' for Inactive)
REMARK    1  A    between atoms: C_7  and  C_1 
REMARK    2  A    between atoms: C_8  and  C_4 
REMARK       I    between atoms: N_10  and  C_7 
ROOT
ATOM      1  C   UNL d   1       0.031  -1.330  -0.044  0.00  0.00     0.092 A 
ATOM      2  N   UNL d   1      -1.301   0.520   0.009  0.00  0.00    -0.259 N 
ATOM      3  HN  UNL d   1      -2.114   1.135   0.019  1.00  0.00     0.195 HD
ATOM      4  C   UNL d   1      -1.313  -0.825  -0.010  0.00  0.00     0.083 A 
ATOM      5  O   UNL d   1       0.015   0.904   0.011  0.00  0.00    -0.241 OA
ATOM      6  C   UNL d   1       0.814  -0.190  -0.013  0.00  0.00     0.090 A 
ATOM      7  C   UNL d   1       2.264   0.092  -0.038  0.00  0.00     0.080 C 
ENDROOT
BRANCH   4   8
ATOM      8  C   UNL d   1      -2.595  -1.539   0.043  0.00  0.00    -0.006 A 
ATOM      9  C   UNL d   1      -3.738  -0.985  -0.556  0.00  0.00     0.014 A 
ATOM     10  C   UNL d   1      -4.971  -1.641  -0.492  0.00  0.00     0.001 A 
ATOM     11  C   UNL d   1      -5.077  -2.861   0.171  0.00  0.00     0.000 A 
ATOM     12  C   UNL d   1      -3.957  -3.418   0.780  0.00  0.00     0.001 A 
ATOM     13  C   UNL d   1      -2.726  -2.756   0.727  0.00  0.00     0.014 A 
ENDBRANCH   4   8
BRANCH   1  14
ATOM     14  C   UNL d   1       0.484  -2.699  -0.144  0.00  0.00     0.254 C 
ATOM     15  O   UNL d   1      -0.155  -3.595  -0.688  0.00  0.00    -0.268 OA
ATOM     16  N   UNL d   1       1.681  -2.995   0.444  0.00  0.00    -0.366 N 
ATOM     17  H   UNL d   1       2.134  -2.375   1.097  0.00  0.00     0.159 HD
ATOM     18  H   UNL d   1       1.929  -3.975   0.471  0.00  0.00     0.159 HD
ENDBRANCH   1  14
TORSDOF 2
