REMARK  5 active torsions:
REMARK  status: ('A' for Active; 'I' for Inactive)
REMARK    1  A    between atoms: C_8  and  C_2 
REMARK    2  A    between atoms: S_9  and  C_5 
REMARK    3  A    between atoms: C_16  and  S_9 
REMARK    4  A    between atoms: C_10  and  C_11 
REMARK    5  A    between atoms: C_17  and  C_16 
ROOT
ATOM      1  N   UNL d   1      -1.142  -0.106   0.107  0.00  0.00    -0.320 N 
ATOM      2  C   UNL d   1      -0.355   1.012  -0.026  0.00  0.00     0.132 A 
ATOM      3  N   UNL d   1       0.896   0.604  -0.185  0.00  0.00    -0.283 N 
ATOM      4  HN  UNL d   1       1.701   1.208  -0.347  1.00  0.00     0.188 HD
ATOM      5  C   UNL d   1      -0.299  -1.172   0.100  0.00  0.00     0.161 A 
ATOM      6  N   UNL d   1       0.930  -0.772  -0.096  0.00  0.00    -0.278 N 
ATOM      7  HN  UNL d   1       1.757  -1.364  -0.170  1.00  0.00     0.189 HD
ATOM      8  H   UNL d   1      -2.138  -0.144   0.246  0.00  0.00     0.169 HD
ENDROOT
BRANCH   2   9
ATOM      9  C   UNL d   1      -0.819   2.400   0.039  0.00  0.00     0.009 A 
ATOM     10  C   UNL d   1      -2.158   2.751   0.243  0.00  0.00     0.016 A 
ATOM     11  C   UNL d   1      -2.545   4.100   0.325  0.00  0.00     0.009 A 
ATOM     12  C   UNL d   1      -1.611   5.148   0.200  0.00  0.00    -0.051 A 
ATOM     13  C   UNL d   1      -0.274   4.781  -0.005  0.00  0.00     0.009 A 
ATOM     14  C   UNL d   1       0.113   3.436  -0.085  0.00  0.00     0.016 A 
BRANCH  12  15
ATOM     15  C   UNL d   1      -2.067   6.616   0.271  0.00  0.00    -0.024 C 
ATOM     16  C   UNL d   1      -0.912   7.630   0.107  0.00  0.00     0.019 C 
ATOM     17  C   UNL d   1      -3.083   6.897  -0.857  0.00  0.00     0.019 C 
ATOM     18  C   UNL d   1      -2.735   6.906   1.632  0.00  0.00     0.019 C 
ENDBRANCH  12  15
ENDBRANCH   2   9
BRANCH   5  19
ATOM     19  S   UNL d   1      -0.884  -2.766   0.367  0.00  0.00    -0.088 SA
BRANCH  19  20
ATOM     20  C   UNL d   1       0.634  -3.561   0.978  0.00  0.00     0.121 C 
BRANCH  20  21
ATOM     21  C   UNL d   1       0.399  -5.008   1.348  0.00  0.00    -0.049 A 
ATOM     22  C   UNL d   1       0.639  -6.028   0.416  0.00  0.00     0.008 A 
ATOM     23  C   UNL d   1       0.433  -7.367   0.759  0.00  0.00     0.007 A 
ATOM     24  C   UNL d   1      -0.019  -7.713   2.036  0.00  0.00    -0.062 A 
ATOM     25  C   UNL d   1      -0.274  -6.698   2.965  0.00  0.00     0.007 A 
ATOM     26  C   UNL d   1      -0.221  -9.156   2.393  0.00  0.00     0.048 C 
ATOM     27  C   UNL d   1      -0.068  -5.357   2.623  0.00  0.00     0.008 A 
ENDBRANCH  20  21
ENDBRANCH  19  20
ENDBRANCH   5  19
TORSDOF 5
