REMARK  3 active torsions:
REMARK  status: ('A' for Active; 'I' for Inactive)
REMARK    1  A    between atoms: C_10  and  N_1 
REMARK    2  A    between atoms: N_11  and  N_7 
REMARK    3  A    between atoms: C_12  and  N_11 
ROOT
ATOM      1  N   UNL d   1      -0.673  -1.353   0.013  0.00  0.00    -0.218 N 
ATOM      2  C   UNL d   1      -1.196  -0.069  -0.074  0.00  0.00     0.297 A 
ATOM      3  C   UNL d   1       0.037   0.776  -0.017  0.00  0.00     0.142 A 
ATOM      4  N   UNL d   1       0.731  -1.406   0.097  0.00  0.00    -0.293 N 
ATOM      5  HN  UNL d   1       1.301  -2.249   0.173  1.00  0.00     0.187 HD
ATOM      6  C   UNL d   1       1.168  -0.181   0.059  0.00  0.00     0.056 A 
ATOM      7  N   UNL d   1       0.170   2.065  -0.008  0.00  0.00    -0.293 N 
ATOM      8  HN  UNL d   1       1.084   2.516   0.031  1.00  0.00     0.187 HD
ATOM      9  O   UNL d   1      -2.320   0.388  -0.154  0.00  0.00    -0.264 OA
ATOM     10  C   UNL d   1       2.580   0.266   0.071  0.00  0.00     0.072 C 
ENDROOT
BRANCH   7  11
ATOM     11  N   UNL d   1      -0.986   2.775  -0.053  0.00  0.00    -0.300 N 
ATOM     12  H   UNL d   1      -1.904   2.326   0.034  0.00  0.00     0.187 HD
BRANCH  11  13
ATOM     13  C   UNL d   1      -0.965   4.178  -0.003  0.00  0.00     0.048 A 
ATOM     14  C   UNL d   1       0.224   4.912  -0.068  0.00  0.00     0.031 A 
ATOM     15  C   UNL d   1       0.208   6.310  -0.054  0.00  0.00     0.002 A 
ATOM     16  C   UNL d   1      -1.003   6.992   0.026  0.00  0.00     0.000 A 
ATOM     17  C   UNL d   1      -2.196   6.278   0.096  0.00  0.00     0.002 A 
ATOM     18  C   UNL d   1      -2.176   4.880   0.078  0.00  0.00     0.031 A 
ENDBRANCH  11  13
ENDBRANCH   7  11
BRANCH   1  19
ATOM     19  C   UNL d   1      -1.391  -2.572  -0.034  0.00  0.00     0.060 A 
ATOM     20  C   UNL d   1      -2.756  -2.608  -0.350  0.00  0.00     0.031 A 
ATOM     21  C   UNL d   1      -3.443  -3.823  -0.425  0.00  0.00     0.002 A 
ATOM     22  C   UNL d   1      -2.781  -5.019  -0.166  0.00  0.00     0.000 A 
ATOM     23  C   UNL d   1      -1.430  -5.002   0.167  0.00  0.00     0.002 A 
ATOM     24  C   UNL d   1      -0.739  -3.788   0.227  0.00  0.00     0.031 A 
ENDBRANCH   1  19
TORSDOF 3
