REMARK  0 active torsions:
REMARK  status: ('A' for Active; 'I' for Inactive)
ROOT
ATOM      1  N   UNL d   1       1.197   1.408   0.023  0.00  0.00    -0.356 N 
ATOM      2  HN  UNL d   1       1.194   2.428   0.012  1.00  0.00     0.166 HD
ATOM      3  N   UNL d   1       1.207  -1.399   0.028  0.00  0.00    -0.356 N 
ATOM      4  HN  UNL d   1       1.211  -2.419   0.022  1.00  0.00     0.166 HD
ATOM      5  C   UNL d   1       0.051   0.708   0.026  0.00  0.00     0.061 A 
ATOM      6  C   UNL d   1       0.055  -0.706   0.028  0.00  0.00     0.061 A 
ATOM      7  C   UNL d   1      -1.151  -1.390   0.044  0.00  0.00     0.057 A 
ATOM      8  C   UNL d   1      -1.160   1.384   0.038  0.00  0.00     0.057 A 
ATOM      9  C   UNL d   1       2.359   0.706   0.034  0.00  0.00     0.028 A 
ATOM     10  C   UNL d   1       2.363  -0.689   0.036  0.00  0.00     0.028 A 
ATOM     11  C   UNL d   1      -2.367  -0.704   0.067  0.00  0.00     0.058 A 
ATOM     12  C   UNL d   1      -2.371   0.691   0.065  0.00  0.00     0.058 A 
ATOM     13 CL   UNL d   1      -3.829   1.615   0.102  0.00  0.00    -0.082 Cl
ATOM     14 CL   UNL d   1      -3.819  -1.637   0.108  0.00  0.00    -0.082 Cl
ATOM     15  C   UNL d   1       3.624   1.508   0.065  0.00  0.00     0.070 C 
ATOM     16  C   UNL d   1       3.634  -1.482   0.070  0.00  0.00     0.070 C 
ENDROOT
TORSDOF 0
