REMARK  8 active torsions:
REMARK  status: ('A' for Active; 'I' for Inactive)
REMARK    1  A    between atoms: O_13  and  C_10 
REMARK    2  A    between atoms: O_14  and  C_11 
REMARK    3  A    between atoms: C_17  and  O_13 
REMARK    4  A    between atoms: C_18  and  O_14 
REMARK    5  A    between atoms: O_15  and  C_19 
REMARK    6  A    between atoms: O_16  and  C_20 
REMARK    7  A    between atoms: C_19  and  C_17 
REMARK    8  A    between atoms: C_20  and  C_18 
ROOT
ATOM      1  C   UNL d   1      -0.056  -0.465   0.054  0.00  0.00     0.061 A 
ATOM      2  C   UNL d   1      -0.493   0.858   0.034  0.00  0.00     0.051 A 
ATOM      3  C   UNL d   1       1.400  -0.703   0.051  0.00  0.00     0.258 A 
ATOM      4  C   UNL d   1      -0.956  -1.535   0.058  0.00  0.00     0.059 A 
ATOM      5  N   UNL d   1       0.398   1.946   0.021  0.00  0.00    -0.351 N 
ATOM      6  HN  UNL d   1       0.058   2.908   0.015  1.00  0.00     0.166 HD
ATOM      7  N   UNL d   1       2.181   0.423   0.028  0.00  0.00    -0.319 N 
ATOM      8  C   UNL d   1      -1.867   1.095   0.023  0.00  0.00     0.070 A 
ATOM      9  C   UNL d   1       1.660   1.684   0.016  0.00  0.00     0.183 A 
ATOM     10  C   UNL d   1      -2.334  -1.292   0.014  0.00  0.00     0.103 A 
ATOM     11  C   UNL d   1      -2.797   0.042   0.013  0.00  0.00     0.104 A 
ATOM     12  O   UNL d   1       1.879  -1.830   0.061  0.00  0.00    -0.267 OA
ATOM     13  H   UNL d   1       3.180   0.274   0.021  0.00  0.00     0.169 HD
ENDROOT
BRANCH  10  14
ATOM     14  O   UNL d   1      -3.260  -2.292  -0.049  0.00  0.00    -0.346 OA
BRANCH  14  15
ATOM     15  C   UNL d   1      -2.853  -3.656  -0.129  0.00  0.00     0.201 C 
BRANCH  15  16
ATOM     16  C   UNL d   1      -4.012  -4.451  -0.722  0.00  0.00     0.193 C 
BRANCH  16  17
ATOM     17  O   UNL d   1      -3.656  -5.830  -0.792  0.00  0.00    -0.394 OA
ATOM     18  C   UNL d   1      -4.657  -6.590  -1.457  0.00  0.00     0.201 C 
ENDBRANCH  16  17
ENDBRANCH  15  16
ENDBRANCH  14  15
ENDBRANCH  10  14
BRANCH  11  19
ATOM     19  O   UNL d   1      -4.098   0.495  -0.007  0.00  0.00    -0.346 OA
BRANCH  19  20
ATOM     20  C   UNL d   1      -5.149  -0.467   0.028  0.00  0.00     0.201 C 
BRANCH  20  21
ATOM     21  C   UNL d   1      -6.505   0.233   0.060  0.00  0.00     0.193 C 
BRANCH  21  22
ATOM     22  O   UNL d   1      -7.525  -0.768   0.065  0.00  0.00    -0.394 OA
ATOM     23  C   UNL d   1      -8.827  -0.205   0.093  0.00  0.00     0.201 C 
ENDBRANCH  21  22
ENDBRANCH  20  21
ENDBRANCH  19  20
ENDBRANCH  11  19
TORSDOF 8
