REMARK  7 active torsions:
REMARK  status: ('A' for Active; 'I' for Inactive)
REMARK    1  A    between atoms: C_2  and  C_1 
REMARK    2  A    between atoms: O_8  and  C_2 
REMARK    3  A    between atoms: N_7  and  C_5 
REMARK    4  A    between atoms: C_16  and  N_7 
REMARK    5  A    between atoms: C_18  and  O_8 
REMARK    6  A    between atoms: C_11  and  C_17 
REMARK    7  A    between atoms: C_17  and  C_16 
ROOT
ATOM      1  C   UNL d   1       0.880  -0.388  -0.372  0.00  0.00     0.134 C 
ATOM      2  C   UNL d   1       0.143   0.481  -1.218  0.00  0.00     0.107 C 
ATOM      3  N   UNL d   1      -0.420   1.200  -1.939  0.00  0.00    -0.191 NA
ATOM      4  C   UNL d   1       2.225  -0.432  -0.419  0.00  0.00     0.112 C 
ENDROOT
BRANCH   1   5
ATOM      5  C   UNL d   1       0.162  -1.349   0.499  0.00  0.00     0.305 C 
ATOM      6  O   UNL d   1       0.703  -2.180   1.213  0.00  0.00    -0.258 OA
BRANCH   5   7
ATOM      7  O   UNL d   1      -1.176  -1.242   0.288  0.00  0.00    -0.317 OA
BRANCH   7   8
ATOM      8  C   UNL d   1      -1.963  -2.392   0.627  0.00  0.00     0.174 C 
ATOM      9  C   UNL d   1      -1.966  -3.321  -0.575  0.00  0.00     0.034 C 
ENDBRANCH   7   8
ENDBRANCH   5   7
ENDBRANCH   1   5
BRANCH   4  10
ATOM     10  N   UNL d   1       3.064   0.295  -1.238  0.00  0.00    -0.397 N 
ATOM     11  H   UNL d   1       2.630   1.005  -1.828  0.00  0.00     0.158 HD
BRANCH  10  12
ATOM     12  C   UNL d   1       4.519   0.284  -1.226  0.00  0.00     0.123 C 
BRANCH  12  13
ATOM     13  C   UNL d   1       5.037   0.672  -2.615  0.00  0.00     0.058 C 
BRANCH  13  14
ATOM     14  C   UNL d   1       6.541   0.694  -2.696  0.00  0.00    -0.057 A 
ATOM     15  C   UNL d   1       7.248  -0.468  -3.033  0.00  0.00     0.009 A 
ATOM     16  C   UNL d   1       8.641  -0.444  -3.131  0.00  0.00     0.024 A 
ATOM     17  C   UNL d   1       9.331   0.742  -2.888  0.00  0.00     0.034 A 
ATOM     18  C   UNL d   1       8.641   1.900  -2.536  0.00  0.00     0.024 A 
ATOM     19 CL   UNL d   1      11.045   0.778  -3.029  0.00  0.00    -0.084 Cl
ATOM     20  C   UNL d   1       7.248   1.876  -2.437  0.00  0.00     0.009 A 
ENDBRANCH  13  14
ENDBRANCH  12  13
ENDBRANCH  10  12
ENDBRANCH   4  10
TORSDOF 7
