REMARK  4 active torsions:
REMARK  status: ('A' for Active; 'I' for Inactive)
REMARK    1  A    between atoms: N_2  and  C_1 
REMARK    2  A    between atoms: N_3  and  C_1 
REMARK    3  A    between atoms: C_4  and  N_2 
REMARK    4  A    between atoms: C_5  and  N_3 
ROOT
ATOM      1  C   UNL d   1       0.994  -0.134  -0.068  0.00  0.00     0.176 C 
ATOM      2  S   UNL d   1       2.633  -0.421   0.107  0.00  0.00    -0.041 SA
ENDROOT
BRANCH   1   3
ATOM      3  N   UNL d   1       0.391   0.698  -0.984  0.00  0.00    -0.333 N 
ATOM      4  H   UNL d   1      -0.386   1.221  -0.595  0.00  0.00     0.168 HD
BRANCH   3   5
ATOM      5  C   UNL d   1       0.831   1.102  -2.255  0.00  0.00     0.035 A 
ATOM      6  C   UNL d   1       1.556   0.253  -3.092  0.00  0.00     0.036 A 
ATOM      7  C   UNL d   1       1.894   0.654  -4.390  0.00  0.00    -0.059 A 
ATOM      8  C   UNL d   1       2.625  -0.277  -5.311  0.00  0.00     0.048 C 
ATOM      9  C   UNL d   1       1.529   1.933  -4.829  0.00  0.00     0.013 A 
ATOM     10  C   UNL d   1       0.802   2.796  -3.999  0.00  0.00    -0.059 A 
ATOM     11  C   UNL d   1       0.428   2.357  -2.723  0.00  0.00     0.036 A 
ATOM     12  C   UNL d   1       0.437   4.168  -4.482  0.00  0.00     0.048 C 
ENDBRANCH   3   5
ENDBRANCH   1   3
BRANCH   1  13
ATOM     13  N   UNL d   1       0.142  -0.633   0.891  0.00  0.00    -0.333 N 
ATOM     14  H   UNL d   1       0.587  -0.912   1.758  0.00  0.00     0.168 HD
BRANCH  13  15
ATOM     15  C   UNL d   1      -1.219  -0.964   0.741  0.00  0.00     0.035 A 
ATOM     16  C   UNL d   1      -1.780  -1.277  -0.502  0.00  0.00     0.036 A 
ATOM     17  C   UNL d   1      -3.125  -1.651  -0.609  0.00  0.00    -0.059 A 
ATOM     18  C   UNL d   1      -3.714  -2.034  -1.933  0.00  0.00     0.048 C 
ATOM     19  C   UNL d   1      -3.918  -1.664   0.545  0.00  0.00     0.013 A 
ATOM     20  C   UNL d   1      -3.369  -1.354   1.797  0.00  0.00    -0.059 A 
ATOM     21  C   UNL d   1      -2.007  -1.039   1.890  0.00  0.00     0.036 A 
ATOM     22  C   UNL d   1      -4.246  -1.346   3.013  0.00  0.00     0.048 C 
ENDBRANCH  13  15
ENDBRANCH   1  13
TORSDOF 4
