REMARK  3 active torsions:
REMARK  status: ('A' for Active; 'I' for Inactive)
REMARK    1  A    between atoms: C_2  and  C_4 
REMARK    2  A    between atoms: C_8  and  C_5 
REMARK    3  A    between atoms: N_6  and  C_9 
ROOT
ATOM      1  C   UNL d   1      -3.251  -1.979  -0.049  0.00  0.00     0.011 A 
ATOM      2  C   UNL d   1      -4.107  -2.433   1.005  0.00  0.00     0.072 A 
ATOM      3  N   UNL d   1      -5.391  -2.205   0.681  0.00  0.00    -0.299 N 
ATOM      4  HN  UNL d   1      -6.215  -2.359   1.261  1.00  0.00     0.187 HD
ATOM      5  N   UNL d   1      -5.351  -1.732  -0.574  0.00  0.00    -0.311 N 
ATOM      6  C   UNL d   1      -4.089  -1.528  -1.040  0.00  0.00     0.120 A 
ATOM      7  H   UNL d   1      -6.231  -1.545  -1.043  0.00  0.00     0.186 HD
ENDROOT
BRANCH   1   8
ATOM      8  C   UNL d   1      -1.831  -1.923  -0.134  0.00  0.00     0.033 C 
ATOM      9  C   UNL d   1      -1.010  -2.898  -0.546  0.00  0.00     0.045 A 
ATOM     10  C   UNL d   1      -1.417  -4.257  -1.050  0.00  0.00     0.257 A 
ATOM     11  C   UNL d   1       0.452  -2.815  -0.665  0.00  0.00     0.006 A 
ATOM     12  N   UNL d   1      -0.238  -4.844  -1.482  0.00  0.00    -0.322 N 
ATOM     13  O   UNL d   1      -2.527  -4.752  -1.083  0.00  0.00    -0.267 OA
ATOM     14  C   UNL d   1       0.856  -4.013  -1.265  0.00  0.00     0.046 A 
ATOM     15  H   UNL d   1      -0.211  -5.770  -1.879  0.00  0.00     0.169 HD
ATOM     16  C   UNL d   1       2.174  -4.287  -1.567  0.00  0.00     0.030 A 
ATOM     17  C   UNL d   1       3.123  -3.321  -1.227  0.00  0.00     0.002 A 
ATOM     18  C   UNL d   1       2.736  -2.123  -0.596  0.00  0.00     0.001 A 
ATOM     19  C   UNL d   1       1.389  -1.861  -0.311  0.00  0.00     0.015 A 
ENDBRANCH   1   8
BRANCH   2  20
ATOM     20  C   UNL d   1      -3.765  -3.004   2.313  0.00  0.00     0.026 A 
ATOM     21  C   UNL d   1      -4.572  -3.930   2.992  0.00  0.00     0.115 A 
ATOM     22  C   UNL d   1      -4.232  -4.426   4.265  0.00  0.00     0.037 A 
ATOM     23  C   UNL d   1      -3.057  -4.000   4.877  0.00  0.00     0.002 A 
ATOM     24  C   UNL d   1      -2.239  -3.081   4.228  0.00  0.00     0.001 A 
ATOM     25  C   UNL d   1      -2.595  -2.582   2.969  0.00  0.00     0.016 A 
BRANCH  21  26
ATOM     26  N   UNL d   1      -5.794  -4.458   2.408  0.00  0.00    -0.115 N 
ATOM     27  O   UNL d   1      -5.675  -5.241   1.455  0.00  0.00    -0.532 OA
ATOM     28  O   UNL d   1      -6.851  -4.203   3.003  0.00  0.00    -0.532 OA
ENDBRANCH  21  26
ENDBRANCH   2  20
TORSDOF 3
