REMARK  4 active torsions:
REMARK  status: ('A' for Active; 'I' for Inactive)
REMARK    1  A    between atoms: N_8  and  C_2 
REMARK    2  A    between atoms: C_7  and  N_8 
REMARK    3  A    between atoms: N_10  and  N_14 
REMARK    4  A    between atoms: C_19  and  C_18 
ROOT
ATOM      1  C   UNL d   1       5.099   1.960  -1.490  0.00  0.00     0.186 C 
ATOM      2  S   UNL d   1       5.898   1.921  -2.959  0.00  0.00    -0.040 SA
ATOM      3  N   UNL d   1       5.812   1.761  -0.353  0.00  0.00    -0.277 N 
ATOM      4  H   UNL d   1       6.802   1.592  -0.506  0.00  0.00     0.189 HD
ENDROOT
BRANCH   1   5
ATOM      5  N   UNL d   1       3.776   2.213  -1.486  0.00  0.00    -0.361 N 
ATOM      6  H   UNL d   1       3.431   2.373  -2.427  0.00  0.00     0.162 HD
BRANCH   5   7
ATOM      7  C   UNL d   1       2.736   1.980  -0.475  0.00  0.00     0.089 C 
ATOM      8  C   UNL d   1       1.899   0.714  -0.821  0.00  0.00     0.017 C 
ATOM      9  C   UNL d   1       0.945   0.387   0.359  0.00  0.00     0.018 A 
ATOM     10  C   UNL d   1       0.927   1.271  -1.875  0.00  0.00     0.012 C 
ATOM     11  C   UNL d   1      -0.105   1.528   0.283  0.00  0.00     0.001 A 
ATOM     12  C   UNL d   1       0.125  -0.855   0.167  0.00  0.00    -0.025 A 
ATOM     13  C   UNL d   1      -1.477   0.866   0.061  0.00  0.00     0.032 A 
ATOM     14  C   UNL d   1       0.381   2.348  -0.934  0.00  0.00    -0.007 C 
ATOM     15  C   UNL d   1      -1.175  -0.594   0.005  0.00  0.00    -0.030 A 
ATOM     16  C   UNL d   1       1.671   3.101  -0.555  0.00  0.00     0.030 C 
ENDBRANCH   5   7
ENDBRANCH   1   5
BRANCH   3  17
ATOM     17  N   UNL d   1       5.444   2.327   0.825  0.00  0.00    -0.309 N 
ATOM     18  C   UNL d   1       6.330   2.286   1.765  0.00  0.00     0.120 C 
ATOM     19  HN  UNL d   1       4.528   2.757   0.958  1.00  0.00     0.186 HD
BRANCH  18  20
ATOM     20  C   UNL d   1       6.073   2.935   3.053  0.00  0.00    -0.004 A 
ATOM     21  C   UNL d   1       4.979   3.782   3.209  0.00  0.00     0.100 A 
ATOM     22  N   UNL d   1       4.692   4.425   4.365  0.00  0.00    -0.374 N 
ATOM     23  C   UNL d   1       5.527   4.208   5.401  0.00  0.00     0.087 A 
ATOM     24  HN  UNL d   1       3.884   5.042   4.448  1.00  0.00     0.164 HD
ATOM     25  C   UNL d   1       6.643   3.384   5.338  0.00  0.00     0.018 A 
ATOM     26  C   UNL d   1       6.925   2.738   4.138  0.00  0.00     0.015 A 
ENDBRANCH  18  20
ENDBRANCH   3  17
TORSDOF 4
