REMARK  4 active torsions:
REMARK  status: ('A' for Active; 'I' for Inactive)
REMARK    1  A    between atoms: C_6  and  N_1 
REMARK    2  A    between atoms: C_2  and  C_9 
REMARK    3  A    between atoms: C_11  and  C_3 
REMARK    4  A    between atoms: O_21  and  C_13 
ROOT
ATOM      1  C   UNL d   1      -1.844  -4.879  -1.215  0.00  0.00     0.055 C 
ATOM      2  C   UNL d   1      -2.912  -4.844  -2.058  0.00  0.00     0.035 C 
ATOM      3  C   UNL d   1      -1.146  -3.626  -0.844  0.00  0.00     0.100 C 
ATOM      4  N   UNL d   1      -0.613  -2.637  -0.555  0.00  0.00    -0.191 NA
ENDROOT
BRANCH   1   5
ATOM      5  C   UNL d   1      -1.400  -6.207  -0.641  0.00  0.00    -0.015 A 
ATOM      6  C   UNL d   1      -1.544  -7.426  -1.344  0.00  0.00     0.015 A 
ATOM      7  C   UNL d   1      -1.102  -8.642  -0.801  0.00  0.00     0.037 A 
ATOM      8  C   UNL d   1      -0.493  -8.655   0.457  0.00  0.00     0.102 A 
ATOM      9  C   UNL d   1      -0.325  -7.463   1.169  0.00  0.00     0.037 A 
ATOM     10  C   UNL d   1      -0.776  -6.254   0.619  0.00  0.00     0.015 A 
BRANCH   8  11
ATOM     11  N   UNL d   1      -0.028  -9.925   1.031  0.00  0.00    -0.116 N 
ATOM     12  O   UNL d   1       0.500  -9.892   2.151  0.00  0.00    -0.532 OA
ATOM     13  O   UNL d   1      -0.195 -10.954   0.361  0.00  0.00    -0.532 OA
ENDBRANCH   8  11
ENDBRANCH   1   5
BRANCH   2  14
ATOM     14  C   UNL d   1      -3.354  -3.601  -2.706  0.00  0.00    -0.033 A 
ATOM     15  C   UNL d   1      -2.762  -3.206  -3.910  0.00  0.00     0.033 A 
ATOM     16  C   UNL d   1      -3.045  -1.955  -4.487  0.00  0.00     0.045 A 
ATOM     17 BR   UNL d   1      -1.986  -1.528  -6.008  0.00  0.00    -0.048 Br
ATOM     18  C   UNL d   1      -3.971  -1.100  -3.878  0.00  0.00     0.085 A 
ATOM     19  C   UNL d   1      -4.572  -1.514  -2.677  0.00  0.00     0.039 A 
ATOM     20  C   UNL d   1      -4.269  -2.749  -2.091  0.00  0.00     0.014 A 
BRANCH  18  21
ATOM     21  O   UNL d   1      -4.343   0.168  -4.232  0.00  0.00    -0.355 OA
ATOM     22  C   UNL d   1      -4.412   0.501  -5.611  0.00  0.00     0.210 C 
ENDBRANCH  18  21
ENDBRANCH   2  14
TORSDOF 4
