REMARK  7 active torsions:
REMARK  status: ('A' for Active; 'I' for Inactive)
REMARK    1  A    between atoms: C_2  and  C_1 
REMARK    2  A    between atoms: C_3  and  C_1 
REMARK    3  A    between atoms: N_4  and  C_1 
REMARK    4  A    between atoms: N_5  and  C_1 
REMARK       I    between atoms: C_6  and  N_4 
REMARK    5  A    between atoms: C_14  and  N_5 
REMARK    6  A    between atoms: C_21  and  C_6 
REMARK    7  A    between atoms: O_20  and  C_15 
ROOT
ATOM      1  C   UNL d   1       0.831  -0.037  -0.069  0.00  0.00     0.290 C 
ENDROOT
BRANCH   1   2
ATOM      2  C   UNL d   1       0.149   0.543  -1.391  0.00  0.00     0.435 C 
ATOM      3  F   UNL d   1      -0.583  -0.339  -2.098  0.00  0.00    -0.167 F 
ATOM      4  F   UNL d   1      -0.649   1.617  -1.138  0.00  0.00    -0.167 F 
ATOM      5  F   UNL d   1       1.077   1.042  -2.258  0.00  0.00    -0.167 F 
ENDBRANCH   1   2
BRANCH   1   6
ATOM      6  C   UNL d   1       0.378  -1.538   0.210  0.00  0.00     0.435 C 
ATOM      7  F   UNL d   1      -0.370  -2.114  -0.751  0.00  0.00    -0.167 F 
ATOM      8  F   UNL d   1       1.472  -2.344   0.365  0.00  0.00    -0.167 F 
ATOM      9  F   UNL d   1      -0.284  -1.690   1.387  0.00  0.00    -0.167 F 
ENDBRANCH   1   6
BRANCH   1  10
ATOM     10  N   UNL d   1       0.508   0.830   1.105  0.00  0.00    -0.324 N 
ATOM     11  C   UNL d   1      -0.833   0.948   1.429  0.00  0.00     0.219 C 
ATOM     12  O   UNL d   1      -1.686   0.308   0.821  0.00  0.00    -0.274 OA
ATOM     13  H   UNL d   1       1.121   1.612   1.278  0.00  0.00     0.165 HD
BRANCH  11  14
ATOM     14  C   UNL d   1      -1.152   1.885   2.569  0.00  0.00     0.098 C 
ATOM     15  C   UNL d   1      -2.652   1.923   2.836  0.00  0.00     0.014 C 
ENDBRANCH  11  14
ENDBRANCH   1  10
BRANCH   1  16
ATOM     16  N   UNL d   1       2.345   0.100  -0.090  0.00  0.00    -0.251 NA
ATOM     17  H   UNL d   1       2.734  -0.166   0.816  0.00  0.00     0.130 HD
BRANCH  16  18
ATOM     18  C   UNL d   1       3.108  -0.531  -1.100  0.00  0.00     0.010 A 
ATOM     19  C   UNL d   1       2.581  -1.344  -2.114  0.00  0.00     0.026 A 
ATOM     20  C   UNL d   1       3.390  -1.901  -3.107  0.00  0.00     0.038 A 
ATOM     21  C   UNL d   1       4.748  -1.643  -3.109  0.00  0.00     0.065 A 
ATOM     22  C   UNL d   1       5.312  -0.849  -2.119  0.00  0.00     0.038 A 
ATOM     23  C   UNL d   1       4.493  -0.302  -1.119  0.00  0.00     0.026 A 
BRANCH  21  24
ATOM     24  O   UNL d   1       5.486  -2.188  -4.112  0.00  0.00    -0.361 OA
ATOM     25  H   UNL d   1       6.390  -1.841  -4.057  0.00  0.00     0.217 HD
ENDBRANCH  21  24
ENDBRANCH  16  18
ENDBRANCH   1  16
TORSDOF 7
