REMARK  6 active torsions:
REMARK  status: ('A' for Active; 'I' for Inactive)
REMARK    1  A    between atoms: C_9  and  C_1 
REMARK    2  A    between atoms: C_11  and  N_4 
REMARK    3  A    between atoms: C_8  and  C_10 
REMARK    4  A    between atoms: C_14  and  C_11 
REMARK    5  A    between atoms: C_12  and  C_13 
REMARK       I    between atoms: C_13  and  N_17 
REMARK       I    between atoms: N_18  and  C_14 
REMARK    6  A    between atoms: N_17  and  N_18 
ROOT
ATOM      1  C   UNL d   1      -0.531  -1.143   0.168  0.00  0.00     0.145 A 
ATOM      2  N   UNL d   1       0.616  -0.738  -0.414  0.00  0.00    -0.268 N 
ATOM      3  HN  UNL d   1       1.253  -1.248  -1.026  1.00  0.00     0.190 HD
ATOM      4  N   UNL d   1       0.686   0.528   0.040  0.00  0.00    -0.207 N 
ATOM      5  N   UNL d   1      -1.150  -0.130   0.857  0.00  0.00    -0.266 N 
ATOM      6  HN  UNL d   1      -2.032  -0.192   1.366  1.00  0.00     0.186 HD
ATOM      7  N   UNL d   1      -0.382   0.945   0.736  0.00  0.00    -0.002 NA
ENDROOT
BRANCH   4   8
ATOM      8  C   UNL d   1       1.833   1.384  -0.173  0.00  0.00     0.271 C 
BRANCH   8   9
ATOM      9  C   UNL d   1       3.198   0.739  -0.048  0.00  0.00     0.257 C 
ATOM     10  N   UNL d   1       3.296  -0.633   0.018  0.00  0.00    -0.266 N 
ATOM     11  H   UNL d   1       2.500  -1.251  -0.168  0.00  0.00     0.190 HD
ATOM     12  O   UNL d   1       4.217   1.443  -0.035  0.00  0.00    -0.270 OA
BRANCH  10  13
ATOM     13  N   UNL d   1       4.575  -1.209   0.019  0.00  0.00    -0.267 N 
ATOM     14  C   UNL d   1       4.721  -2.538   0.347  0.00  0.00     0.240 C 
ATOM     15  O   UNL d   1       3.790  -3.291   0.597  0.00  0.00    -0.271 OA
ATOM     16  H   UNL d   1       5.362  -0.566  -0.055  0.00  0.00     0.190 HD
BRANCH  14  17
ATOM     17  C   UNL d   1       6.142  -3.004   0.385  0.00  0.00     0.080 A 
ATOM     18  C   UNL d   1       6.457  -4.483   0.360  0.00  0.00     0.015 A 
ATOM     19  C   UNL d   1       6.702  -3.690   1.610  0.00  0.00     0.015 A 
ENDBRANCH  14  17
ENDBRANCH  10  13
ENDBRANCH   8   9
ENDBRANCH   4   8
BRANCH   1  20
ATOM     20  C   UNL d   1      -0.913  -2.547   0.280  0.00  0.00     0.025 A 
ATOM     21  C   UNL d   1      -2.235  -3.025   0.358  0.00  0.00     0.061 A 
ATOM     22  C   UNL d   1      -2.438  -4.408   0.593  0.00  0.00     0.017 A 
ATOM     23  C   UNL d   1      -1.372  -5.296   0.728  0.00  0.00     0.001 A 
ATOM     24  C   UNL d   1      -0.074  -4.828   0.617  0.00  0.00     0.001 A 
ATOM     25  C   UNL d   1       0.149  -3.471   0.393  0.00  0.00     0.016 A 
BRANCH  21  26
ATOM     26  C   UNL d   1      -3.485  -2.191   0.198  0.00  0.00     0.418 C 
ATOM     27  F   UNL d   1      -3.311  -0.901  -0.179  0.00  0.00    -0.166 F 
ATOM     28  F   UNL d   1      -4.316  -2.723  -0.750  0.00  0.00    -0.166 F 
ATOM     29  F   UNL d   1      -4.227  -2.159   1.342  0.00  0.00    -0.166 F 
ENDBRANCH  21  26
ENDBRANCH   1  20
TORSDOF 6
