REMARK  3 active torsions:
REMARK  status: ('A' for Active; 'I' for Inactive)
REMARK    1  A    between atoms: C_7  and  C_3 
REMARK    2  A    between atoms: C_9  and  C_8 
REMARK    3  A    between atoms: O_15  and  C_10 
ROOT
ATOM      1  N   UNL d   1      -1.777   0.512  -0.105  0.00  0.00    -0.349 N 
ATOM      2  HN  UNL d   1      -2.472   1.258  -0.140  1.00  0.00     0.166 HD
ATOM      3  C   UNL d   1      -2.060  -0.775  -0.099  0.00  0.00     0.075 A 
ATOM      4  S   UNL d   1      -0.672  -1.810  -0.047  0.00  0.00    -0.070 SA
ATOM      5  C   UNL d   1      -0.408   0.715  -0.057  0.00  0.00     0.050 A 
ATOM      6  C   UNL d   1       0.367  -0.443  -0.019  0.00  0.00     0.033 A 
ATOM      7  C   UNL d   1       0.242   1.965  -0.041  0.00  0.00     0.031 A 
ATOM      8  C   UNL d   1       1.770  -0.398   0.033  0.00  0.00     0.021 A 
ATOM      9  C   UNL d   1       1.638   2.024   0.011  0.00  0.00     0.002 A 
ATOM     10  C   UNL d   1       2.391   0.855   0.047  0.00  0.00     0.002 A 
ENDROOT
BRANCH   3  11
ATOM     11  C   UNL d   1      -3.353  -1.374  -0.110  0.00  0.00     0.038 C 
ATOM     12  C   UNL d   1      -4.469  -0.627  -0.122  0.00  0.00     0.014 C 
BRANCH  12  13
ATOM     13  C   UNL d   1      -5.829  -1.187  -0.080  0.00  0.00    -0.036 A 
ATOM     14  C   UNL d   1      -6.120  -2.382   0.592  0.00  0.00     0.014 A 
ATOM     15  C   UNL d   1      -7.427  -2.879   0.651  0.00  0.00     0.037 A 
ATOM     16  C   UNL d   1      -8.470  -2.180   0.050  0.00  0.00     0.068 A 
ATOM     17  C   UNL d   1      -8.193  -0.977  -0.603  0.00  0.00     0.037 A 
ATOM     18  C   UNL d   1      -6.886  -0.480  -0.665  0.00  0.00     0.014 A 
BRANCH  16  19
ATOM     19  O   UNL d   1      -9.783  -2.561   0.034  0.00  0.00    -0.356 OA
ATOM     20  C   UNL d   1     -10.104  -3.775   0.704  0.00  0.00     0.210 C 
ENDBRANCH  16  19
ENDBRANCH  12  13
ENDBRANCH   3  11
TORSDOF 3
