REMARK  6 active torsions:
REMARK  status: ('A' for Active; 'I' for Inactive)
REMARK    1  A    between atoms: C_8  and  C_1 
REMARK    2  A    between atoms: C_21  and  C_3 
REMARK    3  A    between atoms: S_4  and  O_11 
REMARK    4  A    between atoms: C_9  and  C_8 
REMARK    5  A    between atoms: O_11  and  C_18 
REMARK    6  A    between atoms: C_27  and  C_21 
ROOT
ATOM      1  C   UNL d   1      -1.792  -1.271  -0.019  0.00  0.00     0.029 C 
ATOM      2  C   UNL d   1      -2.066   0.186   0.138  0.00  0.00     0.295 C 
ATOM      3  C   UNL d   1      -0.529  -1.764   0.021  0.00  0.00    -0.033 C 
ATOM      4  O   UNL d   1      -1.008   1.043  -0.046  0.00  0.00    -0.274 OA
ATOM      5  C   UNL d   1       0.307   0.563  -0.036  0.00  0.00     0.093 A 
ATOM      6  C   UNL d   1       0.597  -0.796   0.062  0.00  0.00     0.005 A 
ATOM      7  C   UNL d   1       1.289   1.556  -0.104  0.00  0.00     0.076 A 
ATOM      8  C   UNL d   1       1.956  -1.136   0.135  0.00  0.00     0.017 A 
ATOM      9  O   UNL d   1      -3.188   0.613   0.388  0.00  0.00    -0.259 OA
ATOM     10  C   UNL d   1       2.629   1.203  -0.061  0.00  0.00     0.092 A 
ATOM     11  C   UNL d   1       2.960  -0.146   0.082  0.00  0.00     0.039 A 
ENDROOT
BRANCH   1  12
ATOM     12  C   UNL d   1      -3.060  -2.082  -0.188  0.00  0.00     0.089 C 
BRANCH  12  13
ATOM     13  C   UNL d   1      -3.646  -2.194  -1.587  0.00  0.00     0.007 A 
ATOM     14  C   UNL d   1      -4.845  -2.907  -1.788  0.00  0.00     0.043 A 
ATOM     15 CL   UNL d   1      -5.675  -3.681  -0.479  0.00  0.00    -0.084 Cl
ATOM     16  C   UNL d   1      -5.415  -3.035  -3.062  0.00  0.00     0.024 A 
ATOM     17  C   UNL d   1      -4.801  -2.456  -4.168  0.00  0.00     0.005 A 
ATOM     18  C   UNL d   1      -3.614  -1.755  -3.996  0.00  0.00     0.043 A 
ATOM     19  C   UNL d   1      -3.051  -1.631  -2.725  0.00  0.00     0.124 A 
ATOM     20  F   UNL d   1      -1.901  -0.949  -2.639  0.00  0.00    -0.205 F 
ENDBRANCH  12  13
ENDBRANCH   1  12
BRANCH   3  21
ATOM     21  C   UNL d   1      -0.223  -3.246  -0.123  0.00  0.00     0.040 C 
BRANCH  21  22
ATOM     22  C   UNL d   1       0.010  -4.002   1.195  0.00  0.00     0.000 C 
ATOM     23  C   UNL d   1      -1.215  -4.109   2.094  0.00  0.00     0.005 C 
ENDBRANCH  21  22
ENDBRANCH   3  21
BRANCH  10  24
ATOM     24  O   UNL d   1       3.664   2.104  -0.116  0.00  0.00    -0.233 OA
BRANCH  24  25
ATOM     25  S   UNL d   1       3.473   3.559  -0.845  0.00  0.00     0.266 S 
ATOM     26  O   UNL d   1       3.228   3.356  -2.262  0.00  0.00    -0.199 OA
ATOM     27  O   UNL d   1       2.625   4.409  -0.036  0.00  0.00    -0.199 OA
ATOM     28  C   UNL d   1       5.137   4.144  -0.660  0.00  0.00     0.194 C 
ENDBRANCH  24  25
ENDBRANCH  10  24
TORSDOF 6
