REMARK  8 active torsions:
REMARK  status: ('A' for Active; 'I' for Inactive)
REMARK    1  A    between atoms: C_4  and  C_3 
REMARK    2  A    between atoms: C_12  and  C_5 
REMARK    3  A    between atoms: N_6  and  C_17 
REMARK    4  A    between atoms: C_9  and  C_13 
REMARK    5  A    between atoms: C_10  and  C_14 
REMARK    6  A    between atoms: O_22  and  C_16 
REMARK    7  A    between atoms: C_32  and  O_22 
REMARK    8  A    between atoms: O_38  and  C_33 
ROOT
ATOM      1  N   UNL d   1       1.317   0.114   0.632  0.00  0.00    -0.318 N 
ATOM      2  HN  UNL d   1       2.226   0.159   1.093  1.00  0.00     0.169 HD
ATOM      3  C   UNL d   1       0.724  -0.927   0.087  0.00  0.00     0.185 A 
ATOM      4  C   UNL d   1       0.407   1.127   0.425  0.00  0.00     0.138 A 
ATOM      5  N   UNL d   1      -0.725   0.722  -0.175  0.00  0.00    -0.242 N 
ATOM      6  HN  UNL d   1      -1.546   1.279  -0.410  1.00  0.00     0.196 HD
ATOM      7  O   UNL d   1      -0.515  -0.639  -0.404  0.00  0.00    -0.217 OA
ENDROOT
BRANCH   3   8
ATOM      8  C   UNL d   1       1.150  -2.323   0.085  0.00  0.00     0.053 A 
ATOM      9  C   UNL d   1       1.951  -2.749   1.163  0.00  0.00     0.054 A 
ATOM     10  C   UNL d   1       2.375  -4.078   1.259  0.00  0.00     0.104 A 
ATOM     11  C   UNL d   1       1.978  -5.018   0.308  0.00  0.00     0.039 A 
ATOM     12  C   UNL d   1       1.182  -4.607  -0.760  0.00  0.00     0.041 A 
ATOM     13  C   UNL d   1       0.821  -3.254  -0.921  0.00  0.00     0.090 A 
BRANCH  10  14
ATOM     14  N   UNL d   1       3.247  -4.490   2.369  0.00  0.00    -0.116 N 
ATOM     15  O   UNL d   1       3.523  -3.640   3.227  0.00  0.00    -0.532 OA
ATOM     16  O   UNL d   1       3.656  -5.657   2.375  0.00  0.00    -0.532 OA
ENDBRANCH  10  14
BRANCH  13  17
ATOM     17  O   UNL d   1       0.160  -2.825  -2.063  0.00  0.00    -0.310 OA
BRANCH  17  18
ATOM     18  C   UNL d   1       0.505  -3.428  -3.261  0.00  0.00     0.076 A 
ATOM     19  C   UNL d   1      -0.525  -3.765  -4.142  0.00  0.00     0.040 A 
ATOM     20  C   UNL d   1      -0.242  -4.469  -5.324  0.00  0.00     0.039 A 
ATOM     21  C   UNL d   1       1.071  -4.836  -5.625  0.00  0.00     0.068 A 
ATOM     22  C   UNL d   1       2.100  -4.443  -4.769  0.00  0.00     0.039 A 
ATOM     23  C   UNL d   1       1.827  -3.715  -3.610  0.00  0.00     0.040 A 
BRANCH  21  24
ATOM     24  O   UNL d   1       1.489  -5.573  -6.698  0.00  0.00    -0.356 OA
ATOM     25  C   UNL d   1       0.509  -5.962  -7.650  0.00  0.00     0.210 C 
ENDBRANCH  21  24
ENDBRANCH  17  18
ENDBRANCH  13  17
ENDBRANCH   3   8
BRANCH   4  26
ATOM     26  C   UNL d   1       0.705   2.520   0.756  0.00  0.00     0.011 A 
ATOM     27  C   UNL d   1       1.957   2.877   1.283  0.00  0.00     0.031 A 
ATOM     28  C   UNL d   1       2.311   4.227   1.473  0.00  0.00     0.049 A 
ATOM     29  C   UNL d   1       1.374   5.225   1.164  0.00  0.00     0.032 A 
ATOM     30  C   UNL d   1       0.106   4.893   0.661  0.00  0.00     0.049 A 
ATOM     31  C   UNL d   1      -0.219   3.538   0.473  0.00  0.00     0.031 A 
BRANCH  28  32
ATOM     32  C   UNL d   1       3.700   4.585   1.953  0.00  0.00     0.417 C 
ATOM     33  F   UNL d   1       3.947   5.925   1.940  0.00  0.00    -0.166 F 
ATOM     34  F   UNL d   1       3.937   4.173   3.227  0.00  0.00    -0.166 F 
ATOM     35  F   UNL d   1       4.673   4.022   1.185  0.00  0.00    -0.166 F 
ENDBRANCH  28  32
BRANCH  30  36
ATOM     36  C   UNL d   1      -0.889   5.961   0.270  0.00  0.00     0.417 C 
ATOM     37  F   UNL d   1      -0.422   7.228   0.447  0.00  0.00    -0.166 F 
ATOM     38  F   UNL d   1      -1.246   5.875  -1.040  0.00  0.00    -0.166 F 
ATOM     39  F   UNL d   1      -2.045   5.883   0.983  0.00  0.00    -0.166 F 
ENDBRANCH  30  36
ENDBRANCH   4  26
TORSDOF 8
