REMARK  4 active torsions:
REMARK  status: ('A' for Active; 'I' for Inactive)
REMARK    1  A    between atoms: C_12  and  C_5 
REMARK    2  A    between atoms: N_15  and  C_9 
REMARK       I    between atoms: N_13  and  C_12 
REMARK    3  A    between atoms: C_18  and  N_13 
REMARK    4  A    between atoms: C_21  and  C_18 
ROOT
ATOM      1  C   UNL d   1       1.591  -0.904   0.035  0.00  0.00     0.161 A 
ATOM      2  N   UNL d   1       0.891   0.282   0.013  0.00  0.00    -0.221 N 
ATOM      3  N   UNL d   1       0.987  -2.129   0.085  0.00  0.00    -0.325 N 
ATOM      4  HN  UNL d   1       1.534  -2.990   0.106  1.00  0.00     0.169 HD
ATOM      5  C   UNL d   1       2.915  -0.494   0.001  0.00  0.00     0.160 A 
ATOM      6  N   UNL d   1       1.713   1.345  -0.027  0.00  0.00    -0.013 NA
ATOM      7  N   UNL d   1       2.959   0.883  -0.035  0.00  0.00    -0.275 N 
ATOM      8  HN  UNL d   1       3.805   1.452  -0.063  1.00  0.00     0.184 HD
ATOM      9  C   UNL d   1      -0.322  -2.153   0.105  0.00  0.00     0.113 A 
ATOM     10  C   UNL d   1      -1.161  -0.906   0.054  0.00  0.00     0.036 A 
ATOM     11  C   UNL d   1      -0.505   0.332   0.019  0.00  0.00     0.070 A 
ATOM     12  C   UNL d   1      -2.558  -0.933   0.055  0.00  0.00     0.017 A 
ATOM     13  C   UNL d   1      -1.209   1.536  -0.011  0.00  0.00     0.032 A 
ATOM     14  C   UNL d   1      -3.274   0.269   0.017  0.00  0.00     0.001 A 
ATOM     15  C   UNL d   1      -2.604   1.496  -0.012  0.00  0.00     0.002 A 
ENDROOT
BRANCH   5  16
ATOM     16  C   UNL d   1       4.104  -1.340   0.001  0.00  0.00     0.273 C 
ATOM     17  N   UNL d   1       3.841  -2.694   0.041  0.00  0.00    -0.351 N 
ATOM     18  H   UNL d   1       2.868  -2.990   0.042  0.00  0.00     0.163 HD
ATOM     19  O   UNL d   1       5.243  -0.886  -0.032  0.00  0.00    -0.266 OA
BRANCH  17  20
ATOM     20  C   UNL d   1       4.872  -3.701   0.017  0.00  0.00     0.161 C 
BRANCH  20  21
ATOM     21  C   UNL d   1       4.734  -4.696   1.143  0.00  0.00    -0.038 A 
ATOM     22  C   UNL d   1       5.135  -6.023   0.955  0.00  0.00     0.025 A 
ATOM     23  C   UNL d   1       5.042  -6.909   2.018  0.00  0.00     0.088 A 
ATOM     24  N   UNL d   1       4.586  -6.569   3.241  0.00  0.00    -0.375 N 
ATOM     25  C   UNL d   1       4.223  -5.280   3.413  0.00  0.00     0.088 A 
ATOM     26  HN  UNL d   1       4.519  -7.250   3.998  1.00  0.00     0.164 HD
ATOM     27  C   UNL d   1       4.285  -4.321   2.414  0.00  0.00     0.025 A 
ENDBRANCH  20  21
ENDBRANCH  17  20
ENDBRANCH   5  16
BRANCH   9  28
ATOM     28  N   UNL d   1      -0.907  -3.387   0.180  0.00  0.00    -0.385 N 
ATOM     29  H   UNL d   1      -0.261  -4.151   0.007  0.00  0.00     0.157 HD
ATOM     30  H   UNL d   1      -1.811  -3.530  -0.250  0.00  0.00     0.157 HD
ENDBRANCH   9  28
TORSDOF 4
