REMARK  3 active torsions:
REMARK  status: ('A' for Active; 'I' for Inactive)
REMARK    1  A    between atoms: C_3  and  C_1 
REMARK       I    between atoms: N_6  and  C_3 
REMARK    2  A    between atoms: C_8  and  N_6 
REMARK    3  A    between atoms: O_21  and  C_16 
ROOT
ATOM      1  C   UNL d   1      -2.369  -0.182  -0.276  0.00  0.00     0.102 A 
ATOM      2  N   UNL d   1      -1.595   0.941  -0.071  0.00  0.00    -0.351 N 
ATOM      3  C   UNL d   1      -1.488  -1.245  -0.402  0.00  0.00     0.049 A 
ATOM      4  C   UNL d   1      -0.166  -0.747  -0.245  0.00  0.00    -0.004 A 
ATOM      5  C   UNL d   1      -0.257   0.629  -0.053  0.00  0.00     0.043 A 
ATOM      6  C   UNL d   1       1.108  -1.343  -0.260  0.00  0.00     0.050 A 
ATOM      7  C   UNL d   1       0.867   1.440   0.116  0.00  0.00     0.033 A 
ATOM      8  C   UNL d   1       2.253  -0.556  -0.081  0.00  0.00     0.069 A 
ATOM      9  C   UNL d   1       2.127   0.822   0.097  0.00  0.00     0.039 A 
ATOM     10  H   UNL d   1      -1.985   1.870   0.056  0.00  0.00     0.166 HD
ENDROOT
BRANCH   1  11
ATOM     11  C   UNL d   1      -3.809  -0.108  -0.350  0.00  0.00     0.272 C 
ATOM     12  N   UNL d   1      -4.460  -1.325  -0.262  0.00  0.00    -0.320 N 
ATOM     13  H   UNL d   1      -3.941  -2.074   0.183  0.00  0.00     0.169 HD
ATOM     14  O   UNL d   1      -4.381   0.979  -0.410  0.00  0.00    -0.266 OA
BRANCH  12  15
ATOM     15  C   UNL d   1      -5.867  -1.452  -0.261  0.00  0.00     0.052 A 
ATOM     16  C   UNL d   1      -6.493  -2.367   0.601  0.00  0.00     0.040 A 
ATOM     17  C   UNL d   1      -7.885  -2.417   0.687  0.00  0.00     0.063 A 
ATOM     18 BR   UNL d   1      -5.483  -3.497   1.747  0.00  0.00    -0.049 Br
ATOM     19  C   UNL d   1      -8.647  -1.592  -0.132  0.00  0.00     0.117 A 
ATOM     20  C   UNL d   1      -8.048  -0.735  -1.046  0.00  0.00     0.044 A 
ATOM     21  F   UNL d   1      -9.983  -1.622  -0.037  0.00  0.00    -0.206 F 
ATOM     22  C   UNL d   1      -6.657  -0.661  -1.107  0.00  0.00     0.034 A 
ENDBRANCH  12  15
ENDBRANCH   1  11
BRANCH   8  23
ATOM     23  O   UNL d   1       3.422  -1.267  -0.102  0.00  0.00    -0.356 OA
ATOM     24  C   UNL d   1       4.627  -0.544   0.110  0.00  0.00     0.210 C 
ENDBRANCH   8  23
TORSDOF 3
