REMARK  2 active torsions:
REMARK  status: ('A' for Active; 'I' for Inactive)
REMARK    1  A    between atoms: N_7  and  C_1 
REMARK    2  A    between atoms: C_9  and  C_5 
ROOT
ATOM      1  C   UNL d   1      -1.091  -1.508   0.002  0.00  0.00     0.045 A 
ATOM      2  N   UNL d   1      -1.217   1.294  -0.174  0.00  0.00    -0.355 N 
ATOM      3  HN  UNL d   1      -1.264   2.311  -0.240  1.00  0.00     0.166 HD
ATOM      4  C   UNL d   1      -2.316  -0.830  -0.044  0.00  0.00     0.060 A 
ATOM      5  C   UNL d   1      -2.350   0.559  -0.122  0.00  0.00     0.046 A 
ATOM      6  C   UNL d   1       0.101  -0.730  -0.045  0.00  0.00     0.017 A 
ATOM      7  C   UNL d   1      -0.030   0.671  -0.138  0.00  0.00     0.045 A 
ATOM      8  C   UNL d   1       1.408  -1.271   0.050  0.00  0.00     0.016 A 
ATOM      9  C   UNL d   1       1.113   1.459  -0.165  0.00  0.00     0.030 A 
ATOM     10  C   UNL d   1       2.543  -0.463   0.008  0.00  0.00     0.001 A 
ATOM     11  C   UNL d   1       2.395   0.909  -0.101  0.00  0.00     0.002 A 
ENDROOT
BRANCH   5  12
ATOM     12  C   UNL d   1      -3.602   1.336  -0.100  0.00  0.00     0.006 A 
ATOM     13  C   UNL d   1      -3.655   2.600   0.493  0.00  0.00     0.101 A 
ATOM     14  N   UNL d   1      -4.766   3.377   0.590  0.00  0.00    -0.374 N 
ATOM     15  C   UNL d   1      -5.896   2.879   0.053  0.00  0.00     0.087 A 
ATOM     16  HN  UNL d   1      -4.745   4.289   1.045  1.00  0.00     0.164 HD
ATOM     17  C   UNL d   1      -5.966   1.647  -0.572  0.00  0.00     0.018 A 
ATOM     18  C   UNL d   1      -4.807   0.875  -0.646  0.00  0.00     0.016 A 
ENDBRANCH   5  12
BRANCH   1  19
ATOM     19  N   UNL d   1      -1.033  -2.898   0.172  0.00  0.00    -0.376 N 
ATOM     20  C   UNL d   1      -2.116  -3.590   0.896  0.00  0.00     0.149 C 
ATOM     21  C   UNL d   1      -1.585  -4.951   1.377  0.00  0.00     0.187 C 
ATOM     22  O   UNL d   1      -1.106  -5.748   0.278  0.00  0.00    -0.388 OA
ATOM     23  C   UNL d   1      -0.061  -5.055  -0.431  0.00  0.00     0.187 C 
ATOM     24  C   UNL d   1      -0.554  -3.700  -0.975  0.00  0.00     0.149 C 
ENDBRANCH   1  19
TORSDOF 2
