REMARK  6 active torsions:
REMARK  status: ('A' for Active; 'I' for Inactive)
REMARK       I    between atoms: N_4  and  C_1 
REMARK       I    between atoms: N_13  and  C_1 
REMARK    1  A    between atoms: C_3  and  N_4 
REMARK    2  A    between atoms: C_5  and  C_16 
REMARK    3  A    between atoms: C_23  and  N_13 
REMARK    4  A    between atoms: S_15  and  C_25 
REMARK    5  A    between atoms: C_16  and  S_15 
REMARK    6  A    between atoms: C_25  and  C_23 
ROOT
ATOM      1  C   UNL d   1       2.691  -0.939   1.116  0.00  0.00     0.320 C 
ATOM      2  N   UNL d   1       1.787  -1.318   2.092  0.00  0.00    -0.308 N 
ATOM      3  O   UNL d   1       3.325  -1.703   0.415  0.00  0.00    -0.247 OA
ATOM      4  N   UNL d   1       2.774   0.430   1.016  0.00  0.00    -0.342 N 
ATOM      5  H   UNL d   1       1.031  -0.676   2.260  0.00  0.00     0.170 HD
ATOM      6  H   UNL d   1       2.051   0.962   1.472  0.00  0.00     0.164 HD
ENDROOT
BRANCH   4   7
ATOM      7  C   UNL d   1       3.462   1.084  -0.086  0.00  0.00     0.134 C 
BRANCH   7   8
ATOM      8  C   UNL d   1       4.962   0.792  -0.194  0.00  0.00     0.094 C 
BRANCH   8   9
ATOM      9  S   UNL d   1       5.746   1.710  -1.570  0.00  0.00    -0.163 SA
BRANCH   9  10
ATOM     10  C   UNL d   1       5.570   3.429  -0.978  0.00  0.00     0.113 C 
BRANCH  10  11
ATOM     11  C   UNL d   1       6.084   4.418  -2.009  0.00  0.00    -0.037 A 
ATOM     12  C   UNL d   1       5.231   4.903  -3.037  0.00  0.00    -0.054 A 
ATOM     13  C   UNL d   1       5.751   5.748  -4.037  0.00  0.00     0.014 A 
ATOM     14  C   UNL d   1       3.775   4.538  -3.182  0.00  0.00     0.049 C 
ATOM     15  C   UNL d   1       7.087   6.145  -4.037  0.00  0.00    -0.061 A 
ATOM     16  C   UNL d   1       7.916   5.694  -3.012  0.00  0.00     0.014 A 
ATOM     17  C   UNL d   1       7.611   7.021  -5.135  0.00  0.00     0.048 C 
ATOM     18  C   UNL d   1       7.440   4.836  -2.001  0.00  0.00    -0.054 A 
ATOM     19  C   UNL d   1       8.451   4.429  -0.957  0.00  0.00     0.049 C 
ENDBRANCH  10  11
ENDBRANCH   9  10
ENDBRANCH   8   9
ENDBRANCH   7   8
ENDBRANCH   4   7
BRANCH   2  20
ATOM     20  C   UNL d   1       1.596  -2.653   2.506  0.00  0.00     0.043 A 
ATOM     21  C   UNL d   1       0.293  -3.152   2.717  0.00  0.00    -0.013 A 
ATOM     22  C   UNL d   1       0.157  -4.411   3.334  0.00  0.00     0.042 A 
ATOM     23  C   UNL d   1      -0.926  -2.410   2.237  0.00  0.00     0.052 C 
ATOM     24 CL   UNL d   1      -1.398  -5.090   3.676  0.00  0.00    -0.084 Cl
ATOM     25  C   UNL d   1       1.277  -5.160   3.703  0.00  0.00     0.024 A 
ATOM     26  C   UNL d   1       2.555  -4.684   3.423  0.00  0.00     0.004 A 
ATOM     27  C   UNL d   1       2.712  -3.441   2.818  0.00  0.00     0.030 A 
ENDBRANCH   2  20
TORSDOF 6
