REMARK  1 active torsions:
REMARK  status: ('A' for Active; 'I' for Inactive)
REMARK    1  A    between atoms: N_8  and  C_5 
ROOT
ATOM      1  C   UNL d   1      -0.105   1.414   0.182  0.00  0.00    -0.003 C 
ATOM      2  C   UNL d   1       0.278   0.078  -0.017  0.00  0.00     0.052 C 
ATOM      3  N   UNL d   1      -0.603  -0.931  -0.170  0.00  0.00    -0.354 N 
ATOM      4  HN  UNL d   1      -0.280  -1.882  -0.347  1.00  0.00     0.166 HD
ATOM      5  C   UNL d   1      -1.473   1.701   0.389  0.00  0.00     0.051 C 
ATOM      6  C   UNL d   1      -2.410   0.621   0.229  0.00  0.00     0.018 A 
ATOM      7  C   UNL d   1       1.704  -0.307  -0.045  0.00  0.00    -0.003 A 
ATOM      8  C   UNL d   1      -1.905  -0.659  -0.084  0.00  0.00     0.045 A 
ATOM      9  C   UNL d   1       0.993   2.458   0.188  0.00  0.00     0.048 C 
ATOM     10  C   UNL d   1       2.681   0.666  -0.319  0.00  0.00    -0.045 A 
ATOM     11  C   UNL d   1       2.219   2.062  -0.650  0.00  0.00     0.044 C 
ATOM     12  C   UNL d   1      -3.816   0.733   0.394  0.00  0.00     0.016 A 
ATOM     13  C   UNL d   1       2.131  -1.617   0.235  0.00  0.00     0.014 A 
ATOM     14  C   UNL d   1      -2.779  -1.719  -0.289  0.00  0.00     0.030 A 
ATOM     15  C   UNL d   1       4.042   0.329  -0.338  0.00  0.00     0.008 A 
ATOM     16  C   UNL d   1      -4.682  -0.340   0.175  0.00  0.00     0.001 A 
ATOM     17  C   UNL d   1       3.487  -1.947   0.237  0.00  0.00     0.001 A 
ATOM     18  C   UNL d   1      -4.160  -1.571  -0.180  0.00  0.00     0.002 A 
ATOM     19  C   UNL d   1       4.439  -0.977  -0.051  0.00  0.00     0.001 A 
ENDROOT
BRANCH   5  20
ATOM     20  N   UNL d   1      -1.933   2.954   0.798  0.00  0.00    -0.376 N 
ATOM     21  C   UNL d   1      -1.223   3.762   1.802  0.00  0.00     0.149 C 
ATOM     22  C   UNL d   1      -2.246   4.593   2.595  0.00  0.00     0.187 C 
ATOM     23  O   UNL d   1      -3.059   5.403   1.726  0.00  0.00    -0.388 OA
ATOM     24  C   UNL d   1      -3.760   4.576   0.779  0.00  0.00     0.187 C 
ATOM     25  C   UNL d   1      -2.782   3.763  -0.094  0.00  0.00     0.149 C 
ENDBRANCH   5  20
TORSDOF 1
