REMARK  3 active torsions:
REMARK  status: ('A' for Active; 'I' for Inactive)
REMARK    1  A    between atoms: C_7  and  N_1 
REMARK    2  A    between atoms: S_13  and  C_2 
REMARK    3  A    between atoms: C_17  and  S_13 
ROOT
ATOM      1  C   UNL d   1       2.293   0.007   3.418  0.00  0.00    -0.107 C 
ATOM      2  C   UNL d   1       1.661   0.123   4.429  0.00  0.00     0.013 C 
ATOM      3  C   UNL d   1       3.093  -0.119   2.192  0.00  0.00     0.175 C 
ENDROOT
BRANCH   3   4
ATOM      4  S   UNL d   1       2.454  -1.379   1.066  0.00  0.00    -0.079 SA
BRANCH   4   5
ATOM      5  C   UNL d   1       0.976  -0.659   0.506  0.00  0.00     0.178 A 
ATOM      6  N   UNL d   1      -0.099  -1.367  -0.013  0.00  0.00    -0.219 N 
ATOM      7  N   UNL d   1      -0.881  -0.481  -0.683  0.00  0.00     0.001 NA
ATOM      8  N   UNL d   1      -0.362   0.717  -0.449  0.00  0.00    -0.006 NA
ATOM      9  N   UNL d   1       0.798   0.622   0.274  0.00  0.00    -0.264 N 
ATOM     10  HN  UNL d   1       1.401   1.390   0.572  1.00  0.00     0.186 HD
BRANCH   6  11
ATOM     11  C   UNL d   1      -0.427  -2.745   0.040  0.00  0.00     0.057 A 
ATOM     12  C   UNL d   1       0.011  -3.551   1.101  0.00  0.00     0.039 A 
ATOM     13  C   UNL d   1      -0.216  -4.937   1.104  0.00  0.00    -0.042 A 
ATOM     14  C   UNL d   1       0.329  -5.758   2.240  0.00  0.00     0.049 C 
ATOM     15  C   UNL d   1      -0.921  -5.502   0.032  0.00  0.00     0.017 A 
ATOM     16  C   UNL d   1      -1.417  -4.693  -0.997  0.00  0.00     0.022 A 
ATOM     17 BR   UNL d   1      -1.230  -7.371  -0.090  0.00  0.00    -0.051 Br
ATOM     18  C   UNL d   1      -1.185  -3.315  -0.989  0.00  0.00     0.032 A 
ENDBRANCH   6  11
ENDBRANCH   4   5
ENDBRANCH   3   4
TORSDOF 3
