REMARK  3 active torsions:
REMARK  status: ('A' for Active; 'I' for Inactive)
REMARK    1  A    between atoms: C_2  and  C_1 
REMARK       I    between atoms: N_5  and  C_1 
REMARK       I    between atoms: C_3  and  N_6 
REMARK    2  A    between atoms: C_4  and  C_3 
REMARK    3  A    between atoms: N_6  and  N_5 
ROOT
ATOM      1  C   UNL d   1      -1.711  -2.462  -0.370  0.00  0.00     0.270 C 
ATOM      2  N   UNL d   1      -1.105  -1.224  -0.280  0.00  0.00    -0.263 N 
ATOM      3  O   UNL d   1      -1.056  -3.498  -0.461  0.00  0.00    -0.266 OA
ATOM      4  H   UNL d   1      -1.572  -0.322  -0.315  0.00  0.00     0.190 HD
ENDROOT
BRANCH   2   5
ATOM      5  N   UNL d   1       0.294  -1.191  -0.209  0.00  0.00    -0.262 N 
ATOM      6  C   UNL d   1       0.959   0.001  -0.402  0.00  0.00     0.286 C 
ATOM      7  O   UNL d   1       0.357   1.047  -0.642  0.00  0.00    -0.264 OA
ATOM      8  H   UNL d   1       0.767  -2.090  -0.152  0.00  0.00     0.190 HD
BRANCH   6   9
ATOM      9  C   UNL d   1       2.399  -0.071  -0.302  0.00  0.00     0.102 A 
ATOM     10  N   UNL d   1       3.205   1.000  -0.621  0.00  0.00    -0.361 N 
ATOM     11  C   UNL d   1       4.523   0.682  -0.433  0.00  0.00     0.088 A 
ATOM     12  H   UNL d   1       2.853   1.893  -0.949  0.00  0.00     0.165 HD
ATOM     13  C   UNL d   1       4.581  -0.612   0.032  0.00  0.00     0.019 A 
ATOM     14  C   UNL d   1       3.249  -1.086   0.116  0.00  0.00     0.036 A 
ENDBRANCH   6   9
ENDBRANCH   2   5
BRANCH   1  15
ATOM     15  C   UNL d   1      -3.202  -2.519  -0.333  0.00  0.00     0.036 A 
ATOM     16  C   UNL d   1      -4.002  -1.426   0.021  0.00  0.00     0.041 A 
ATOM     17  C   UNL d   1      -5.389  -1.578   0.101  0.00  0.00     0.036 A 
ATOM     18 CL   UNL d   1      -6.364  -0.234   0.555  0.00  0.00    -0.084 Cl
ATOM     19  C   UNL d   1      -5.994  -2.804  -0.165  0.00  0.00     0.047 A 
ATOM     20  C   UNL d   1      -5.198  -3.888  -0.520  0.00  0.00     0.036 A 
ATOM     21  C   UNL d   1      -3.813  -3.754  -0.606  0.00  0.00     0.041 A 
ATOM     22 CL   UNL d   1      -5.931  -5.412  -0.841  0.00  0.00    -0.084 Cl
ENDBRANCH   1  15
TORSDOF 3
