REMARK  7 active torsions:
REMARK  status: ('A' for Active; 'I' for Inactive)
REMARK    1  A    between atoms: N_8  and  C_1 
REMARK    2  A    between atoms: C_6  and  C_5 
REMARK    3  A    between atoms: C_10  and  C_6 
REMARK    4  A    between atoms: C_7  and  O_13 
REMARK    5  A    between atoms: C_21  and  N_8 
REMARK       I    between atoms: N_11  and  C_10 
REMARK    6  A    between atoms: C_20  and  N_11 
REMARK    7  A    between atoms: O_13  and  C_22 
ROOT
ATOM      1  C   UNL d   1       1.045  -0.509   1.108  0.00  0.00     0.148 C 
ATOM      2  N   UNL d   1       1.611  -0.550  -0.120  0.00  0.00    -0.306 N 
ATOM      3  C   UNL d   1       0.825  -0.849  -1.194  0.00  0.00     0.238 C 
ATOM      4  S   UNL d   1      -0.671  -0.739   0.993  0.00  0.00    -0.079 SA
ATOM      5  C   UNL d   1      -0.646  -0.813  -0.838  0.00  0.00     0.156 C 
ATOM      6  O   UNL d   1       1.274  -1.115  -2.303  0.00  0.00    -0.272 OA
ATOM      7  H   UNL d   1       2.615  -0.516  -0.207  0.00  0.00     0.171 HD
ENDROOT
BRANCH   5   8
ATOM      8  C   UNL d   1      -1.385  -2.026  -1.395  0.00  0.00     0.128 C 
BRANCH   8   9
ATOM      9  C   UNL d   1      -2.888  -1.834  -1.342  0.00  0.00     0.223 C 
ATOM     10  N   UNL d   1      -3.583  -3.026  -1.470  0.00  0.00    -0.327 N 
ATOM     11  H   UNL d   1      -3.041  -3.855  -1.676  0.00  0.00     0.169 HD
ATOM     12  O   UNL d   1      -3.383  -0.717  -1.242  0.00  0.00    -0.273 OA
BRANCH  10  13
ATOM     13  C   UNL d   1      -4.981  -3.204  -1.389  0.00  0.00     0.034 A 
ATOM     14  C   UNL d   1      -5.880  -2.188  -1.060  0.00  0.00     0.032 A 
ATOM     15  C   UNL d   1      -7.259  -2.436  -0.996  0.00  0.00     0.039 A 
ATOM     16  C   UNL d   1      -7.760  -3.706  -1.271  0.00  0.00     0.078 A 
ATOM     17  C   UNL d   1      -6.861  -4.731  -1.577  0.00  0.00     0.039 A 
ATOM     18  C   UNL d   1      -5.484  -4.485  -1.635  0.00  0.00     0.032 A 
BRANCH  16  19
ATOM     19  O   UNL d   1      -9.072  -4.077  -1.281  0.00  0.00    -0.255 OA
BRANCH  19  20
ATOM     20  C   UNL d   1     -10.048  -3.065  -1.097  0.00  0.00     0.530 C 
ATOM     21  F   UNL d   1      -9.893  -2.057  -1.981  0.00  0.00    -0.144 F 
ATOM     22  F   UNL d   1     -11.272  -3.605  -1.293  0.00  0.00    -0.144 F 
ATOM     23  F   UNL d   1     -10.002  -2.575   0.160  0.00  0.00    -0.144 F 
ENDBRANCH  19  20
ENDBRANCH  16  19
ENDBRANCH  10  13
ENDBRANCH   8   9
ENDBRANCH   5   8
BRANCH   1  24
ATOM     24  N   UNL d   1       1.799  -0.340   2.137  0.00  0.00    -0.336 N 
ATOM     25  HN  UNL d   1       2.803  -0.224   1.995  1.00  0.00     0.168 HD
BRANCH  24  26
ATOM     26  C   UNL d   1       1.294  -0.310   3.447  0.00  0.00     0.049 A 
ATOM     27  C   UNL d   1       1.571   0.773   4.280  0.00  0.00     0.117 A 
ATOM     28  N   UNL d   1       1.197   0.869   5.583  0.00  0.00    -0.373 N 
ATOM     29  C   UNL d   1       0.516  -0.179   6.088  0.00  0.00     0.088 A 
ATOM     30  HN  UNL d   1       1.420   1.689   6.147  1.00  0.00     0.164 HD
ATOM     31  C   UNL d   1       0.202  -1.313   5.358  0.00  0.00     0.019 A 
ATOM     32  C   UNL d   1       0.613  -1.381   4.027  0.00  0.00     0.032 A 
ENDBRANCH  24  26
ENDBRANCH   1  24
TORSDOF 7
