REMARK  4 active torsions:
REMARK  status: ('A' for Active; 'I' for Inactive)
REMARK    1  A    between atoms: C_2  and  C_1 
REMARK       I    between atoms: N_5  and  C_2 
REMARK    2  A    between atoms: C_11  and  N_5 
REMARK    3  A    between atoms: O_9  and  C_13 
REMARK    4  A    between atoms: C_10  and  O_9 
ROOT
ATOM      1  C   UNL d   1      -2.279   2.666  -0.079  0.00  0.00     0.069 A 
ATOM      2  C   UNL d   1      -2.458   1.903   1.088  0.00  0.00     0.102 A 
ATOM      3  C   UNL d   1      -3.408   3.106  -0.779  0.00  0.00     0.032 A 
ATOM      4  C   UNL d   1      -3.744   1.528   1.496  0.00  0.00     0.039 A 
ATOM      5  C   UNL d   1      -4.692   2.751  -0.354  0.00  0.00     0.002 A 
ATOM      6  C   UNL d   1      -4.859   1.952   0.775  0.00  0.00     0.003 A 
ENDROOT
BRANCH   1   7
ATOM      7  N   UNL d   1      -0.971   2.946  -0.542  0.00  0.00    -0.320 N 
ATOM      8  C   UNL d   1      -0.603   4.133  -1.148  0.00  0.00     0.260 C 
ATOM      9  O   UNL d   1      -1.349   5.102  -1.254  0.00  0.00    -0.267 OA
ATOM     10  H   UNL d   1      -0.231   2.385  -0.142  0.00  0.00     0.169 HD
BRANCH   8  11
ATOM     11  C   UNL d   1       0.785   4.204  -1.577  0.00  0.00     0.087 A 
ATOM     12  C   UNL d   1       1.499   5.377  -1.759  0.00  0.00     0.090 A 
ATOM     13  O   UNL d   1       2.750   5.087  -2.198  0.00  0.00    -0.242 OA
ATOM     14  C   UNL d   1       1.226   6.816  -1.564  0.00  0.00     0.080 C 
ATOM     15  N   UNL d   1       2.898   3.724  -2.311  0.00  0.00    -0.265 N 
ATOM     16  C   UNL d   1       1.725   3.193  -1.944  0.00  0.00     0.047 A 
ATOM     17  HN  UNL d   1       3.732   3.221  -2.612  1.00  0.00     0.194 HD
ATOM     18  C   UNL d   1       1.588   1.717  -1.986  0.00  0.00     0.071 C 
ENDBRANCH   8  11
ENDBRANCH   1   7
BRANCH   2  19
ATOM     19  O   UNL d   1      -1.427   1.456   1.886  0.00  0.00    -0.307 OA
BRANCH  19  20
ATOM     20  C   UNL d   1      -0.517   2.364   2.404  0.00  0.00     0.098 A 
ATOM     21  C   UNL d   1       0.702   1.834   2.861  0.00  0.00     0.069 A 
ATOM     22  C   UNL d   1       1.713   2.677   3.324  0.00  0.00     0.050 A 
ATOM     23 CL   UNL d   1       1.006   0.134   2.836  0.00  0.00    -0.081 Cl
ATOM     24  C   UNL d   1       1.510   4.054   3.331  0.00  0.00     0.035 A 
ATOM     25  C   UNL d   1       0.293   4.590   2.917  0.00  0.00     0.026 A 
ATOM     26 CL   UNL d   1       2.772   5.100   3.851  0.00  0.00    -0.084 Cl
ATOM     27  C   UNL d   1      -0.731   3.743   2.481  0.00  0.00     0.041 A 
ENDBRANCH  19  20
ENDBRANCH   2  19
TORSDOF 4
