REMARK  5 active torsions:
REMARK  status: ('A' for Active; 'I' for Inactive)
REMARK    1  A    between atoms: C_3  and  C_1 
REMARK    2  A    between atoms: N_4  and  C_2 
REMARK    3  A    between atoms: S_14  and  C_2 
REMARK    4  A    between atoms: C_7  and  C_3 
REMARK    5  A    between atoms: C_5  and  N_4 
ROOT
ATOM      1  C   UNL d   1       1.190   0.112   0.117  0.00  0.00     0.130 C 
ATOM      2  C   UNL d   1       0.429  -0.932   0.555  0.00  0.00     0.095 C 
ATOM      3  C   UNL d   1       0.517   1.341  -0.178  0.00  0.00     0.106 C 
ATOM      4  N   UNL d   1      -0.030   2.348  -0.387  0.00  0.00    -0.191 NA
ENDROOT
BRANCH   1   5
ATOM      5  C   UNL d   1       2.702   0.168   0.025  0.00  0.00     0.229 C 
ATOM      6  O   UNL d   1       3.421  -0.545   0.719  0.00  0.00    -0.284 OA
BRANCH   5   7
ATOM      7  C   UNL d   1       3.292   1.154  -0.871  0.00  0.00     0.126 A 
ATOM      8  O   UNL d   1       2.581   1.615  -1.946  0.00  0.00    -0.319 OA
ATOM      9  C   UNL d   1       3.323   2.582  -2.541  0.00  0.00     0.142 A 
ATOM     10  C   UNL d   1       4.532   2.718  -1.902  0.00  0.00     0.027 A 
ATOM     11  C   UNL d   1       4.529   1.771  -0.848  0.00  0.00     0.043 A 
ENDBRANCH   5   7
ENDBRANCH   1   5
BRANCH   2  12
ATOM     12  N   UNL d   1      -0.965  -0.825   0.583  0.00  0.00    -0.348 N 
ATOM     13  H   UNL d   1      -1.387  -1.308   1.376  0.00  0.00     0.166 HD
BRANCH  12  14
ATOM     14  C   UNL d   1      -1.834  -0.848  -0.546  0.00  0.00     0.056 A 
ATOM     15  C   UNL d   1      -1.388  -1.212  -1.827  0.00  0.00     0.055 A 
ATOM     16  C   UNL d   1      -2.280  -1.261  -2.903  0.00  0.00     0.036 A 
ATOM     17 CL   UNL d   1      -1.720  -1.771  -4.449  0.00  0.00    -0.084 Cl
ATOM     18  C   UNL d   1      -3.619  -0.918  -2.737  0.00  0.00     0.026 A 
ATOM     19  C   UNL d   1      -4.069  -0.499  -1.486  0.00  0.00     0.028 A 
ATOM     20  C   UNL d   1      -3.184  -0.461  -0.403  0.00  0.00     0.060 A 
ATOM     21 CL   UNL d   1      -3.791   0.092   1.120  0.00  0.00    -0.082 Cl
ENDBRANCH  12  14
ENDBRANCH   2  12
BRANCH   2  22
ATOM     22  S   UNL d   1       1.183  -2.344   1.300  0.00  0.00    -0.115 SA
ATOM     23  C   UNL d   1       0.172  -3.715   0.712  0.00  0.00     0.097 C 
ENDBRANCH   2  22
TORSDOF 5
