REMARK  5 active torsions:
REMARK  status: ('A' for Active; 'I' for Inactive)
REMARK    1  A    between atoms: C_4  and  N_1 
REMARK    2  A    between atoms: S_8  and  C_5 
REMARK    3  A    between atoms: C_10  and  C_7 
REMARK    4  A    between atoms: C_9  and  S_8 
REMARK    5  A    between atoms: O_18  and  C_10 
ROOT
ATOM      1  N   UNL d   1       0.059   0.825  -0.024  0.00  0.00    -0.251 N 
ATOM      2  C   UNL d   1      -1.020   0.046   0.298  0.00  0.00     0.232 C 
ATOM      3  C   UNL d   1       1.236   0.117   0.008  0.00  0.00     0.245 C 
ATOM      4  C   UNL d   1       0.903  -1.362   0.033  0.00  0.00     0.154 C 
ATOM      5  C   UNL d   1      -0.557  -1.374   0.459  0.00  0.00     0.129 C 
ATOM      6  O   UNL d   1      -2.176   0.397   0.480  0.00  0.00    -0.273 OA
ATOM      7  O   UNL d   1       2.379   0.559   0.020  0.00  0.00    -0.271 OA
ENDROOT
BRANCH   4   8
ATOM      8  S   UNL d   1       1.253  -1.981  -1.671  0.00  0.00    -0.114 SA
BRANCH   8   9
ATOM      9  C   UNL d   1       0.891  -3.725  -1.529  0.00  0.00     0.018 A 
ATOM     10  C   UNL d   1      -0.323  -4.300  -1.950  0.00  0.00     0.054 A 
ATOM     11  C   UNL d   1      -0.508  -5.689  -1.862  0.00  0.00     0.020 A 
ATOM     12  C   UNL d   1       0.521  -6.514  -1.417  0.00  0.00     0.001 A 
ATOM     13  C   UNL d   1       1.737  -5.956  -1.036  0.00  0.00     0.001 A 
ATOM     14  C   UNL d   1       1.920  -4.571  -1.084  0.00  0.00     0.019 A 
BRANCH  10  15
ATOM     15  C   UNL d   1      -1.473  -3.528  -2.486  0.00  0.00     0.177 C 
ATOM     16  O   UNL d   1      -2.630  -3.833  -2.239  0.00  0.00    -0.646 OA
BRANCH  15  17
ATOM     17  O   UNL d   1      -1.143  -2.520  -3.312  0.00  0.00    -0.773 OA
ATOM     18  H   UNL d   1      -0.179  -2.373  -3.404  0.00  0.00     0.167 HD
ENDBRANCH  15  17
ENDBRANCH  10  15
ENDBRANCH   8   9
ENDBRANCH   4   8
BRANCH   1  19
ATOM     19  C   UNL d   1       0.012   2.233  -0.132  0.00  0.00     0.054 A 
ATOM     20  C   UNL d   1      -0.563   2.976   0.909  0.00  0.00     0.073 A 
ATOM     21  C   UNL d   1      -0.555   4.365   0.859  0.00  0.00     0.118 A 
ATOM     22  F   UNL d   1      -1.065   5.064   1.881  0.00  0.00    -0.206 F 
ATOM     23  C   UNL d   1      -0.012   5.041  -0.224  0.00  0.00     0.043 A 
ATOM     24  C   UNL d   1       0.525   4.313  -1.283  0.00  0.00     0.012 A 
ATOM     25  C   UNL d   1       0.539   2.905  -1.257  0.00  0.00    -0.034 A 
ATOM     26  C   UNL d   1       1.050   2.202  -2.487  0.00  0.00     0.050 C 
ENDBRANCH   1  19
TORSDOF 5
