REMARK  5 active torsions:
REMARK  status: ('A' for Active; 'I' for Inactive)
REMARK    1  A    between atoms: C_3  and  C_1 
REMARK    2  A    between atoms: C_2  and  N_4 
REMARK    3  A    between atoms: N_10  and  C_2 
REMARK    4  A    between atoms: N_4  and  C_5 
REMARK    5  A    between atoms: N_16  and  N_10 
ROOT
ATOM      1  C   UNL d   1       0.611   1.045   0.902  0.00  0.00     0.049 A 
ATOM      2  C   UNL d   1       0.155   3.541   2.146  0.00  0.00     0.056 A 
ATOM      3  C   UNL d   1       0.928   3.453   0.977  0.00  0.00     0.061 A 
ATOM      4  C   UNL d   1       1.167   2.217   0.368  0.00  0.00     0.042 A 
ATOM      5  C   UNL d   1      -0.180   1.138   2.056  0.00  0.00     0.018 A 
ATOM      6  C   UNL d   1      -0.405   2.372   2.671  0.00  0.00     0.032 A 
ATOM      7 CL   UNL d   1       1.626   4.866   0.263  0.00  0.00    -0.082 Cl
ENDROOT
BRANCH   2   8
ATOM      8  N   UNL d   1      -0.137   4.807   2.700  0.00  0.00    -0.331 N 
ATOM      9  H   UNL d   1       0.113   5.607   2.126  0.00  0.00     0.168 HD
BRANCH   8  10
ATOM     10  C   UNL d   1      -0.412   5.140   4.010  0.00  0.00     0.186 C 
ATOM     11  S   UNL d   1       0.111   4.362   5.392  0.00  0.00    -0.040 SA
BRANCH  10  12
ATOM     12  N   UNL d   1      -1.179   6.287   4.141  0.00  0.00    -0.300 N 
ATOM     13  H   UNL d   1      -1.453   6.516   5.098  0.00  0.00     0.183 HD
BRANCH  12  14
ATOM     14  N   UNL d   1      -2.021   6.726   3.096  0.00  0.00    -0.248 NA
ATOM     15  H   UNL d   1      -2.213   5.933   2.476  0.00  0.00     0.143 HD
ATOM     16  H   UNL d   1      -1.520   7.423   2.540  0.00  0.00     0.143 HD
ENDBRANCH  12  14
ENDBRANCH  10  12
ENDBRANCH   8  10
ENDBRANCH   2   8
BRANCH   1  17
ATOM     17  C   UNL d   1       0.834  -0.299   0.253  0.00  0.00     0.417 C 
ATOM     18  F   UNL d   1       1.613  -0.242  -0.862  0.00  0.00    -0.166 F 
ATOM     19  F   UNL d   1      -0.333  -0.885  -0.135  0.00  0.00    -0.166 F 
ATOM     20  F   UNL d   1       1.439  -1.186   1.090  0.00  0.00    -0.166 F 
ENDBRANCH   1  17
TORSDOF 5
