REMARK  2 active torsions:
REMARK  status: ('A' for Active; 'I' for Inactive)
REMARK    1  A    between atoms: C_3  and  N_1 
REMARK    2  A    between atoms: C_7  and  C_2 
ROOT
ATOM      1  N   UNL d   1      -0.638  -1.150   0.269  0.00  0.00    -0.297 N 
ATOM      2  C   UNL d   1       0.750  -1.344  -0.112  0.00  0.00     0.190 C 
ATOM      3  S   UNL d   1       1.521   0.291  -0.049  0.00  0.00    -0.129 SA
ATOM      4  C   UNL d   1      -1.148   0.122  -0.021  0.00  0.00     0.235 C 
ATOM      5  C   UNL d   1      -0.054   1.136  -0.282  0.00  0.00     0.179 C 
ATOM      6  O   UNL d   1      -2.337   0.413  -0.120  0.00  0.00    -0.272 OA
ENDROOT
BRANCH   1   7
ATOM      7  C   UNL d   1      -1.514  -2.246   0.537  0.00  0.00     0.060 A 
ATOM      8  C   UNL d   1      -2.477  -2.200   1.568  0.00  0.00     0.062 A 
ATOM      9  C   UNL d   1      -3.283  -3.313   1.843  0.00  0.00     0.050 A 
ATOM     10 CL   UNL d   1      -2.607  -0.869   2.671  0.00  0.00    -0.082 Cl
ATOM     11  C   UNL d   1      -3.123  -4.483   1.108  0.00  0.00     0.035 A 
ATOM     12  C   UNL d   1      -2.175  -4.552   0.093  0.00  0.00     0.026 A 
ATOM     13 CL   UNL d   1      -4.079  -5.864   1.476  0.00  0.00    -0.084 Cl
ATOM     14  C   UNL d   1      -1.381  -3.439  -0.194  0.00  0.00     0.033 A 
ENDBRANCH   1   7
BRANCH   2  15
ATOM     15  C   UNL d   1       1.502  -2.365   0.707  0.00  0.00    -0.010 A 
ATOM     16  C   UNL d   1       2.107  -3.449   0.074  0.00  0.00     0.097 A 
ATOM     17  N   UNL d   1       2.715  -4.470   0.718  0.00  0.00    -0.375 N 
ATOM     18  C   UNL d   1       2.746  -4.403   2.065  0.00  0.00     0.087 A 
ATOM     19  HN  UNL d   1       3.130  -5.252   0.211  1.00  0.00     0.164 HD
ATOM     20  C   UNL d   1       2.211  -3.356   2.795  0.00  0.00     0.018 A 
ATOM     21  C   UNL d   1       1.579  -2.323   2.104  0.00  0.00     0.013 A 
ENDBRANCH   2  15
TORSDOF 2
