REMARK  1 active torsions:
REMARK  status: ('A' for Active; 'I' for Inactive)
REMARK    1  A    between atoms: C_3  and  C_1 
ROOT
ATOM      1  C   UNL d   1      -0.115  -2.879  -3.188  0.00  0.00     0.077 A 
ATOM      2  C   UNL d   1       0.562  -1.030  -1.173  0.00  0.00     0.051 A 
ATOM      3  C   UNL d   1      -0.399  -1.521  -3.316  0.00  0.00     0.062 A 
ATOM      4  N   UNL d   1      -0.536  -3.563  -4.308  0.00  0.00    -0.349 N 
ATOM      5  HN  UNL d   1      -0.457  -4.565  -4.484  1.00  0.00     0.166 HD
ATOM      6  C   UNL d   1       0.520  -3.326  -2.016  0.00  0.00     0.040 A 
ATOM      7  C   UNL d   1      -1.060  -2.657  -5.099  0.00  0.00     0.181 A 
ATOM      8  N   UNL d   1      -1.006  -1.412  -4.543  0.00  0.00    -0.350 N 
ATOM      9  C   UNL d   1      -0.083  -0.572  -2.339  0.00  0.00     0.048 A 
ATOM     10  C   UNL d   1       0.854  -2.397  -1.019  0.00  0.00     0.037 A 
ATOM     11 BR   UNL d   1       0.936  -5.153  -1.772  0.00  0.00    -0.049 Br
ATOM     12  H   UNL d   1      -1.347  -0.560  -4.965  0.00  0.00     0.166 HD
ENDROOT
BRANCH   2  13
ATOM     13  C   UNL d   1       0.955  -0.061  -0.081  0.00  0.00     0.417 C 
ATOM     14  F   UNL d   1       0.635   1.233  -0.363  0.00  0.00    -0.166 F 
ATOM     15  F   UNL d   1       2.294  -0.069   0.164  0.00  0.00    -0.166 F 
ATOM     16  F   UNL d   1       0.353  -0.344   1.107  0.00  0.00    -0.166 F 
ENDBRANCH   2  13
TORSDOF 1
