REMARK  3 active torsions:
REMARK  status: ('A' for Active; 'I' for Inactive)
REMARK    1  A    between atoms: C_2  and  C_1 
REMARK    2  A    between atoms: C_5  and  C_2 
REMARK    3  A    between atoms: C_6  and  C_7 
ROOT
ATOM      1  C   UNL d   1      -0.758   1.354  -2.424  0.00  0.00     0.010 A 
ATOM      2  C   UNL d   1      -2.221   0.531  -4.708  0.00  0.00    -0.051 A 
ATOM      3  C   UNL d   1      -2.136   1.147  -2.336  0.00  0.00     0.015 A 
ATOM      4  C   UNL d   1      -0.122   1.217  -3.657  0.00  0.00     0.015 A 
ATOM      5  C   UNL d   1      -2.856   0.742  -3.467  0.00  0.00     0.009 A 
ATOM      6  C   UNL d   1      -0.845   0.806  -4.782  0.00  0.00     0.009 A 
ENDROOT
BRANCH   1   7
ATOM      7  C   UNL d   1       0.067   1.688  -1.238  0.00  0.00     0.163 C 
ATOM      8  O   UNL d   1       1.114   2.316  -1.357  0.00  0.00    -0.292 OA
BRANCH   7   9
ATOM      9  C   UNL d   1      -0.389   1.204   0.101  0.00  0.00     0.060 A 
ATOM     10  C   UNL d   1      -0.605   2.196   1.218  0.00  0.00     0.013 A 
ATOM     11  C   UNL d   1       0.543   1.232   1.290  0.00  0.00     0.013 A 
ENDBRANCH   7   9
ENDBRANCH   1   7
BRANCH   2  12
ATOM     12  C   UNL d   1      -3.018  -0.017  -5.907  0.00  0.00    -0.024 C 
ATOM     13  C   UNL d   1      -2.154  -0.228  -7.172  0.00  0.00     0.019 C 
ATOM     14  C   UNL d   1      -3.622  -1.390  -5.537  0.00  0.00     0.019 C 
ATOM     15  C   UNL d   1      -4.161   0.947  -6.286  0.00  0.00     0.019 C 
ENDBRANCH   2  12
TORSDOF 3
