REMARK  3 active torsions:
REMARK  status: ('A' for Active; 'I' for Inactive)
REMARK    1  A    between atoms: N_10  and  C_3 
REMARK    2  A    between atoms: N_16  and  C_6 
REMARK    3  A    between atoms: C_9  and  N_10 
ROOT
ATOM      1  N   UNL d   1      -0.216  -1.163   1.111  0.00  0.00    -0.166 N 
ATOM      2  HN  UNL d   1      -0.644  -2.089   1.121  1.00  0.00     0.187 HD
ATOM      3  C   UNL d   1      -0.862  -0.102   0.634  0.00  0.00     0.685 A 
ATOM      4  N   UNL d   1      -0.326   1.113   0.575  0.00  0.00    -0.188 N 
ATOM      5  HN  UNL d   1      -0.825   1.918   0.196  1.00  0.00     0.185 HD
ATOM      6  C   UNL d   1       1.003  -0.963   1.567  0.00  0.00     0.170 A 
ATOM      7  N   UNL d   1       1.635   0.197   1.549  0.00  0.00    -0.328 N 
ATOM      8  HN  UNL d   1       2.590   0.316   1.887  1.00  0.00     0.169 HD
ATOM      9  C   UNL d   1       0.913   1.195   1.050  0.00  0.00     0.200 A 
ENDROOT
BRANCH   3  10
ATOM     10  N   UNL d   1      -2.149  -0.241   0.111  0.00  0.00    -0.191 N 
ATOM     11  H   UNL d   1      -2.452   0.613  -0.327  0.00  0.00     0.184 HD
BRANCH  10  12
ATOM     12  C   UNL d   1      -2.981  -1.372   0.040  0.00  0.00     0.056 A 
ATOM     13  C   UNL d   1      -2.874  -2.396   1.002  0.00  0.00     0.048 A 
ATOM     14  C   UNL d   1      -3.575  -3.594   0.881  0.00  0.00     0.008 A 
ATOM     15  I   UNL d   1      -3.327  -5.082   2.311  0.00  0.00    -0.045 I 
ATOM     16  C   UNL d   1      -4.417  -3.800  -0.201  0.00  0.00     0.019 A 
ATOM     17  C   UNL d   1      -4.562  -2.793  -1.153  0.00  0.00     0.010 A 
ATOM     18  C   UNL d   1      -3.853  -1.577  -1.050  0.00  0.00    -0.035 A 
ATOM     19  C   UNL d   1      -4.061  -0.579  -2.158  0.00  0.00     0.050 C 
ENDBRANCH  10  12
ENDBRANCH   3  10
BRANCH   6  20
ATOM     20  N   UNL d   1       1.673  -2.063   2.062  0.00  0.00    -0.273 NA
ATOM     21  H   UNL d   1       1.273  -2.909   1.675  0.00  0.00     0.127 HD
ATOM     22  H   UNL d   1       2.671  -1.942   1.972  0.00  0.00     0.127 HD
ENDBRANCH   6  20
TORSDOF 3
