REMARK  4 active torsions:
REMARK  status: ('A' for Active; 'I' for Inactive)
REMARK    1  A    between atoms: N_2  and  S_1 
REMARK    2  A    between atoms: C_3  and  S_1 
REMARK    3  A    between atoms: C_5  and  C_13 
REMARK    4  A    between atoms: C_9  and  C_5 
ROOT
ATOM      1  N   UNL d   1       0.314   0.842  -1.241  0.00  0.00    -0.206 NA
ATOM      2  C   UNL d   1       0.631   2.276  -0.976  0.00  0.00     0.108 C 
ATOM      3  C   UNL d   1       1.061   0.299  -2.419  0.00  0.00     0.108 C 
ATOM      4  C   UNL d   1       1.183   2.630  -3.448  0.00  0.00     0.063 C 
ATOM      5  C   UNL d   1       0.429   3.144  -2.219  0.00  0.00     0.028 C 
ATOM      6  C   UNL d   1       0.849   1.151  -3.664  0.00  0.00     0.028 C 
ENDROOT
BRANCH   1   7
ATOM      7  S   UNL d   1       0.580  -0.183   0.134  0.00  0.00     0.243 S 
ATOM      8  O   UNL d   1       1.817   0.230   0.762  0.00  0.00    -0.206 OA
ATOM      9  O   UNL d   1       0.362  -1.553  -0.267  0.00  0.00    -0.206 OA
BRANCH   7  10
ATOM     10  C   UNL d   1      -0.749   0.220   1.243  0.00  0.00     0.076 A 
ATOM     11  C   UNL d   1      -2.047  -0.165   0.894  0.00  0.00     0.050 A 
ATOM     12  C   UNL d   1      -3.083  -0.006   1.818  0.00  0.00     0.057 A 
ATOM     13 CL   UNL d   1      -4.662  -0.522   1.343  0.00  0.00    -0.083 Cl
ATOM     14  C   UNL d   1      -2.818   0.532   3.084  0.00  0.00     0.055 A 
ATOM     15  C   UNL d   1      -1.515   0.919   3.421  0.00  0.00     0.027 A 
ATOM     16 CL   UNL d   1      -4.047   0.726   4.283  0.00  0.00    -0.083 Cl
ATOM     17  C   UNL d   1      -0.475   0.761   2.501  0.00  0.00     0.026 A 
ENDBRANCH   7  10
ENDBRANCH   1   7
BRANCH   4  18
ATOM     18  C   UNL d   1       2.696   2.870  -3.361  0.00  0.00     0.163 C 
ATOM     19  O   UNL d   1       3.472   1.976  -3.030  0.00  0.00    -0.292 OA
BRANCH  18  20
ATOM     20  C   UNL d   1       3.263   4.220  -3.686  0.00  0.00     0.010 A 
ATOM     21  C   UNL d   1       2.464   5.318  -4.017  0.00  0.00     0.015 A 
ATOM     22  C   UNL d   1       3.046   6.563  -4.277  0.00  0.00     0.007 A 
ATOM     23  C   UNL d   1       4.435   6.729  -4.224  0.00  0.00    -0.062 A 
ATOM     24  C   UNL d   1       5.237   5.628  -3.910  0.00  0.00     0.007 A 
ATOM     25  C   UNL d   1       5.035   8.086  -4.443  0.00  0.00     0.048 C 
ATOM     26  C   UNL d   1       4.656   4.383  -3.646  0.00  0.00     0.015 A 
ENDBRANCH  18  20
ENDBRANCH   4  18
TORSDOF 4
