REMARK  7 active torsions:
REMARK  status: ('A' for Active; 'I' for Inactive)
REMARK    1  A    between atoms: C_7  and  C_1 
REMARK    2  A    between atoms: C_10  and  C_2 
REMARK    3  A    between atoms: C_13  and  N_3 
REMARK    4  A    between atoms: S_4  and  N_9 
REMARK    5  A    between atoms: C_12  and  S_4 
REMARK    6  A    between atoms: N_9  and  N_11 
REMARK       I    between atoms: N_11  and  C_10 
REMARK    7  A    between atoms: O_31  and  C_25 
ROOT
ATOM      1  C   UNL d   1       1.115  -0.840  -0.033  0.00  0.00     0.157 C 
ATOM      2  C   UNL d   1      -0.185  -1.345   0.079  0.00  0.00     0.084 C 
ATOM      3  N   UNL d   1       1.012   0.549  -0.041  0.00  0.00    -0.251 N 
ATOM      4  N   UNL d   1      -0.247   0.944   0.257  0.00  0.00    -0.303 N 
ATOM      5  HN  UNL d   1      -0.574   1.890   0.450  1.00  0.00     0.186 HD
ATOM      6  C   UNL d   1      -0.966  -0.175   0.241  0.00  0.00     0.127 C 
ENDROOT
BRANCH   2   7
ATOM      7  C   UNL d   1      -0.753  -2.701   0.107  0.00  0.00     0.274 C 
ATOM      8  N   UNL d   1       0.108  -3.779   0.154  0.00  0.00    -0.256 N 
ATOM      9  H   UNL d   1       1.121  -3.693   0.224  0.00  0.00     0.191 HD
ATOM     10  O   UNL d   1      -1.973  -2.871   0.096  0.00  0.00    -0.266 OA
BRANCH   8  11
ATOM     11  N   UNL d   1      -0.422  -5.148   0.195  0.00  0.00    -0.220 N 
ATOM     12  H   UNL d   1      -1.433  -5.303   0.139  0.00  0.00     0.200 HD
BRANCH  11  13
ATOM     13  S   UNL d   1       0.680  -6.428   0.206  0.00  0.00     0.276 S 
ATOM     14  O   UNL d   1       1.326  -6.435  -1.094  0.00  0.00    -0.199 OA
ATOM     15  O   UNL d   1       1.464  -6.301   1.413  0.00  0.00    -0.199 OA
BRANCH  13  16
ATOM     16  C   UNL d   1      -0.310  -7.903   0.325  0.00  0.00     0.081 A 
ATOM     17  C   UNL d   1      -0.806  -8.500  -0.840  0.00  0.00     0.028 A 
ATOM     18  C   UNL d   1      -1.417  -9.761  -0.779  0.00  0.00     0.038 A 
ATOM     19  C   UNL d   1      -1.530 -10.431   0.441  0.00  0.00     0.068 A 
ATOM     20  C   UNL d   1      -1.021  -9.833   1.598  0.00  0.00     0.038 A 
ATOM     21  C   UNL d   1      -0.415  -8.572   1.548  0.00  0.00     0.028 A 
BRANCH  19  22
ATOM     22  O   UNL d   1      -2.044 -11.686   0.615  0.00  0.00    -0.356 OA
ATOM     23  C   UNL d   1      -2.996 -12.121  -0.349  0.00  0.00     0.210 C 
ENDBRANCH  19  22
ENDBRANCH  13  16
ENDBRANCH  11  13
ENDBRANCH   8  11
ENDBRANCH   2   7
BRANCH   1  24
ATOM     24  C   UNL d   1       2.437  -1.485  -0.014  0.00  0.00     0.435 C 
ATOM     25  F   UNL d   1       2.353  -2.790   0.348  0.00  0.00    -0.165 F 
ATOM     26  F   UNL d   1       3.035  -1.484  -1.226  0.00  0.00    -0.165 F 
ATOM     27  F   UNL d   1       3.281  -0.907   0.871  0.00  0.00    -0.165 F 
ENDBRANCH   1  24
BRANCH   3  28
ATOM     28  C   UNL d   1       2.018   1.546  -0.241  0.00  0.00     0.057 A 
ATOM     29  C   UNL d   1       3.071   1.356  -1.144  0.00  0.00     0.033 A 
ATOM     30  C   UNL d   1       4.118   2.281  -1.219  0.00  0.00     0.026 A 
ATOM     31  C   UNL d   1       4.096   3.420  -0.420  0.00  0.00     0.034 A 
ATOM     32  C   UNL d   1       3.008   3.669   0.414  0.00  0.00     0.026 A 
ATOM     33 CL   UNL d   1       5.417   4.521  -0.470  0.00  0.00    -0.084 Cl
ATOM     34  C   UNL d   1       1.958   2.743   0.491  0.00  0.00     0.033 A 
ENDBRANCH   3  28
TORSDOF 7
