REMARK  3 active torsions:
REMARK  status: ('A' for Active; 'I' for Inactive)
REMARK    1  A    between atoms: N_2  and  C_1 
REMARK    2  A    between atoms: N_3  and  C_1 
REMARK       I    between atoms: C_4  and  N_2 
REMARK       I    between atoms: C_5  and  N_3 
REMARK    3  A    between atoms: C_7  and  C_4 
REMARK       I    between atoms: N_10  and  C_5 
ROOT
ATOM      1  N   UNL d   1       0.268   1.151   0.427  0.00  0.00    -0.299 N 
ATOM      2  C   UNL d   1       0.904   2.078   1.246  0.00  0.00     0.257 C 
ATOM      3  O   UNL d   1       0.529   2.432   2.357  0.00  0.00    -0.267 OA
ATOM      4  H   UNL d   1       0.561   1.147  -0.548  0.00  0.00     0.171 HD
ENDROOT
BRANCH   1   5
ATOM      5  C   UNL d   1      -0.763   0.269   0.710  0.00  0.00     0.182 C 
ATOM      6  S   UNL d   1      -1.377  -0.142   2.207  0.00  0.00    -0.040 SA
BRANCH   5   7
ATOM      7  N   UNL d   1      -1.349  -0.325  -0.396  0.00  0.00    -0.285 N 
ATOM      8  C   UNL d   1      -1.027  -0.136  -1.724  0.00  0.00     0.322 C 
ATOM      9  O   UNL d   1      -0.043   0.502  -2.087  0.00  0.00    -0.247 OA
ATOM     10  N   UNL d   1      -1.906  -0.742  -2.582  0.00  0.00    -0.347 N 
ATOM     11  C   UNL d   1      -1.763  -0.645  -4.015  0.00  0.00     0.151 C 
ATOM     12  H   UNL d   1      -2.696  -1.256  -2.220  0.00  0.00     0.163 HD
ATOM     13  H   UNL d   1      -2.135  -0.916  -0.178  0.00  0.00     0.173 HD
ENDBRANCH   5   7
ENDBRANCH   1   5
BRANCH   2  14
ATOM     14  C   UNL d   1       2.068   2.768   0.628  0.00  0.00     0.032 A 
ATOM     15  C   UNL d   1       2.243   4.132   0.881  0.00  0.00     0.017 A 
ATOM     16  C   UNL d   1       3.328   4.816   0.330  0.00  0.00     0.007 A 
ATOM     17  C   UNL d   1       4.262   4.139  -0.464  0.00  0.00    -0.062 A 
ATOM     18  C   UNL d   1       4.089   2.771  -0.708  0.00  0.00     0.007 A 
ATOM     19  C   UNL d   1       5.431   4.888  -1.037  0.00  0.00     0.048 C 
ATOM     20  C   UNL d   1       2.996   2.084  -0.167  0.00  0.00     0.017 A 
ENDBRANCH   2  14
TORSDOF 3
