REMARK  1 active torsions:
REMARK  status: ('A' for Active; 'I' for Inactive)
REMARK    1  A    between atoms: C_7  and  C_2 
ROOT
ATOM      1  S   UNL d   1       1.531   0.985   1.297  0.00  0.00    -0.038 SA
ATOM      2  C   UNL d   1       2.024  -0.070  -0.017  0.00  0.00     0.118 A 
ATOM      3  N   UNL d   1       1.099  -0.353  -0.890  0.00  0.00    -0.290 N 
ATOM      4  HN  UNL d   1       1.223  -0.949  -1.708  1.00  0.00     0.187 HD
ATOM      5  C   UNL d   1      -0.058   1.040   0.595  0.00  0.00     0.159 A 
ATOM      6  N   UNL d   1      -0.062   0.273  -0.538  0.00  0.00    -0.283 N 
ATOM      7  S   UNL d   1      -1.373   1.869   1.165  0.00  0.00    -0.051 SA
ATOM      8  H   UNL d   1      -0.889   0.156  -1.115  0.00  0.00     0.188 HD
ENDROOT
BRANCH   2   9
ATOM      9  C   UNL d   1       3.415  -0.579  -0.085  0.00  0.00     0.067 A 
ATOM     10  N   UNL d   1       4.264  -0.212   0.909  0.00  0.00    -0.364 N 
ATOM     11  C   UNL d   1       5.529  -0.678   0.841  0.00  0.00     0.088 A 
ATOM     12  HN  UNL d   1       3.959   0.390   1.674  1.00  0.00     0.165 HD
ATOM     13  C   UNL d   1       5.994  -1.497  -0.174  0.00  0.00     0.017 A 
ATOM     14  C   UNL d   1       5.110  -1.862  -1.183  0.00  0.00     0.004 A 
ATOM     15  C   UNL d   1       3.797  -1.399  -1.143  0.00  0.00     0.032 A 
ENDBRANCH   2   9
TORSDOF 1
