REMARK  3 active torsions:
REMARK  status: ('A' for Active; 'I' for Inactive)
REMARK    1  A    between atoms: C_11  and  N_3 
REMARK    2  A    between atoms: C_8  and  C_4 
REMARK       I    between atoms: N_9  and  C_8 
REMARK    3  A    between atoms: C_10  and  N_9 
ROOT
ATOM      1  N   UNL d   1      -0.235  -1.053  -0.257  0.00  0.00    -0.272 N 
ATOM      2  HN  UNL d   1      -0.513  -1.965  -0.618  1.00  0.00     0.189 HD
ATOM      3  N   UNL d   1       1.008  -0.616   0.123  0.00  0.00    -0.196 N 
ATOM      4  C   UNL d   1      -0.999   0.042  -0.028  0.00  0.00     0.141 A 
ATOM      5  N   UNL d   1       1.066   0.635   0.635  0.00  0.00    -0.281 N 
ATOM      6  HN  UNL d   1       1.871   1.126   1.025  1.00  0.00     0.189 HD
ATOM      7  C   UNL d   1      -0.186   1.071   0.507  0.00  0.00     0.057 A 
ATOM      8  C   UNL d   1      -0.527   2.459   0.898  0.00  0.00     0.072 C 
ENDROOT
BRANCH   4   9
ATOM      9  C   UNL d   1      -2.444   0.122  -0.287  0.00  0.00     0.276 C 
ATOM     10  N   UNL d   1      -3.031  -1.085  -0.628  0.00  0.00    -0.322 N 
ATOM     11  H   UNL d   1      -2.383  -1.865  -0.699  0.00  0.00     0.169 HD
ATOM     12  O   UNL d   1      -3.036   1.189  -0.177  0.00  0.00    -0.266 OA
BRANCH  10  13
ATOM     13  C   UNL d   1      -4.413  -1.338  -0.802  0.00  0.00     0.038 A 
ATOM     14  C   UNL d   1      -5.406  -0.354  -0.690  0.00  0.00     0.053 A 
ATOM     15  C   UNL d   1      -6.757  -0.686  -0.826  0.00  0.00     0.037 A 
ATOM     16 CL   UNL d   1      -7.957   0.538  -0.666  0.00  0.00    -0.084 Cl
ATOM     17  C   UNL d   1      -7.147  -1.994  -1.081  0.00  0.00     0.048 A 
ATOM     18  C   UNL d   1      -6.164  -2.971  -1.208  0.00  0.00     0.037 A 
ATOM     19  C   UNL d   1      -4.810  -2.652  -1.074  0.00  0.00     0.053 A 
ATOM     20 CL   UNL d   1      -6.629  -4.600  -1.523  0.00  0.00    -0.084 Cl
ENDBRANCH  10  13
ENDBRANCH   4   9
BRANCH   3  21
ATOM     21  C   UNL d   1       2.200  -1.376  -0.032  0.00  0.00     0.074 A 
ATOM     22  C   UNL d   1       2.192  -2.624  -0.664  0.00  0.00     0.033 A 
ATOM     23  C   UNL d   1       3.398  -3.311  -0.849  0.00  0.00     0.002 A 
ATOM     24  C   UNL d   1       4.602  -2.765  -0.400  0.00  0.00     0.000 A 
ATOM     25  C   UNL d   1       4.612  -1.530   0.245  0.00  0.00     0.002 A 
ATOM     26  C   UNL d   1       3.417  -0.838   0.428  0.00  0.00     0.033 A 
ENDBRANCH   3  21
TORSDOF 3
