REMARK  2 active torsions:
REMARK  status: ('A' for Active; 'I' for Inactive)
REMARK    1  A    between atoms: C_2  and  S_1 
REMARK    2  A    between atoms: N_7  and  S_1 
ROOT
ATOM      1  S   UNL d   1       1.101  -0.004   0.025  0.00  0.00     0.250 S 
ATOM      2  O   UNL d   1       2.474   0.436  -0.084  0.00  0.00    -0.205 OA
ATOM      3  O   UNL d   1       0.687  -1.315  -0.427  0.00  0.00    -0.205 OA
ENDROOT
BRANCH   1   4
ATOM      4  C   UNL d   1       0.176   1.150  -0.957  0.00  0.00     0.118 A 
ATOM      5  S   UNL d   1      -1.527   0.946  -0.955  0.00  0.00    -0.064 SA
ATOM      6  C   UNL d   1      -1.735   2.260  -2.007  0.00  0.00     0.093 A 
ATOM      7 CL   UNL d   1      -3.326   2.684  -2.499  0.00  0.00    -0.075 Cl
ATOM      8  C   UNL d   1      -0.552   2.859  -2.344  0.00  0.00     0.041 A 
ATOM      9  C   UNL d   1       0.565   2.221  -1.742  0.00  0.00     0.053 A 
ATOM     10 BR   UNL d   1      -0.329   4.360  -3.465  0.00  0.00    -0.049 Br
ENDBRANCH   1   4
BRANCH   1  11
ATOM     11  N   UNL d   1       0.622   0.191   1.668  0.00  0.00    -0.205 NA
ATOM     12  C   UNL d   1       1.020   1.522   2.236  0.00  0.00     0.117 C 
ATOM     13  C   UNL d   1       0.397   1.777   3.607  0.00  0.00     0.089 C 
ATOM     14  S   UNL d   1       0.956   0.565   4.840  0.00  0.00    -0.167 SA
ATOM     15  C   UNL d   1       0.482  -0.928   3.916  0.00  0.00     0.089 C 
ATOM     16  C   UNL d   1       1.092  -0.955   2.516  0.00  0.00     0.117 C 
ENDBRANCH   1  11
TORSDOF 2
