REMARK  6 active torsions:
REMARK  status: ('A' for Active; 'I' for Inactive)
REMARK    1  A    between atoms: C_5  and  C_3 
REMARK    2  A    between atoms: C_14  and  N_4 
REMARK    3  A    between atoms: N_19  and  C_6 
REMARK    4  A    between atoms: S_7  and  C_13 
REMARK    5  A    between atoms: N_18  and  S_7 
REMARK    6  A    between atoms: C_15  and  C_10 
ROOT
ATOM      1  N   UNL d   1       0.943  -0.549  -0.482  0.00  0.00    -0.291 N 
ATOM      2  HN  UNL d   1       1.751  -1.080  -0.805  1.00  0.00     0.187 HD
ATOM      3  C   UNL d   1      -0.272  -1.004  -0.174  0.00  0.00     0.065 C 
ATOM      4  N   UNL d   1       0.851   0.790  -0.266  0.00  0.00    -0.240 N 
ATOM      5  C   UNL d   1      -0.474   1.190  -0.057  0.00  0.00     0.123 C 
ATOM      6  C   UNL d   1      -1.207   0.030   0.014  0.00  0.00     0.081 C 
ENDROOT
BRANCH   4   7
ATOM      7  C   UNL d   1       2.041   1.547  -0.128  0.00  0.00     0.058 A 
ATOM      8  C   UNL d   1       3.177   1.185  -0.868  0.00  0.00     0.033 A 
ATOM      9  C   UNL d   1       4.374   1.876  -0.681  0.00  0.00     0.027 A 
ATOM     10  C   UNL d   1       4.432   2.901   0.267  0.00  0.00     0.074 A 
ATOM     11  C   UNL d   1       3.312   3.244   1.030  0.00  0.00     0.027 A 
ATOM     12  C   UNL d   1       2.108   2.576   0.820  0.00  0.00     0.033 A 
BRANCH  10  13
ATOM     13  S   UNL d   1       5.953   3.758   0.543  0.00  0.00     0.239 S 
ATOM     14  O   UNL d   1       5.950   4.322   1.869  0.00  0.00    -0.206 OA
ATOM     15  O   UNL d   1       7.049   2.967   0.033  0.00  0.00    -0.206 OA
BRANCH  13  16
ATOM     16  N   UNL d   1       5.784   5.051  -0.513  0.00  0.00    -0.225 NA
ATOM     17  H   UNL d   1       5.776   5.928   0.010  0.00  0.00     0.136 HD
ATOM     18  H   UNL d   1       6.497   5.002  -1.240  0.00  0.00     0.136 HD
ENDBRANCH  13  16
ENDBRANCH  10  13
ENDBRANCH   4   7
BRANCH   5  19
ATOM     19  N   UNL d   1      -0.897   2.473   0.062  0.00  0.00    -0.384 N 
ATOM     20  H   UNL d   1      -0.326   3.247  -0.275  0.00  0.00     0.157 HD
ATOM     21  H   UNL d   1      -1.893   2.683   0.042  0.00  0.00     0.157 HD
ENDBRANCH   5  19
BRANCH   3  22
ATOM     22  C   UNL d   1      -0.559  -2.406   0.078  0.00  0.00     0.024 A 
ATOM     23  C   UNL d   1       0.285  -3.260   0.832  0.00  0.00     0.049 A 
ATOM     24  C   UNL d   1      -0.408  -4.442   1.005  0.00  0.00     0.061 A 
ATOM     25  O   UNL d   1      -1.598  -4.375   0.331  0.00  0.00    -0.318 OA
ATOM     26  C   UNL d   1      -1.685  -3.136  -0.232  0.00  0.00     0.062 A 
ATOM     27  C   UNL d   1      -2.916  -2.853  -0.993  0.00  0.00     0.077 C 
BRANCH  24  28
ATOM     28  C   UNL d   1      -0.143  -5.712   1.772  0.00  0.00    -0.002 C 
ATOM     29  C   UNL d   1       1.216  -5.651   2.495  0.00  0.00     0.021 C 
ATOM     30  C   UNL d   1      -1.243  -5.917   2.831  0.00  0.00     0.021 C 
ATOM     31  C   UNL d   1      -0.134  -6.906   0.805  0.00  0.00     0.021 C 
ENDBRANCH  24  28
ENDBRANCH   3  22
TORSDOF 6
