REMARK  5 active torsions:
REMARK  status: ('A' for Active; 'I' for Inactive)
REMARK    1  A    between atoms: C_3  and  C_1 
REMARK    2  A    between atoms: N_4  and  C_2 
REMARK       I    between atoms: C_6  and  N_5 
REMARK    3  A    between atoms: C_13  and  C_6 
REMARK    4  A    between atoms: S_15  and  C_13 
REMARK    5  A    between atoms: C_19  and  S_15 
ROOT
ATOM      1  N   UNL d   1      -1.252   2.447   0.360  0.00  0.00    -0.266 NA
ATOM      2  N   UNL d   1      -2.866   4.770   0.801  0.00  0.00    -0.349 N 
ATOM      3  C   UNL d   1      -3.777   5.819   0.850  0.00  0.00     0.229 C 
ATOM      4  C   UNL d   1      -1.475   3.377  -0.775  0.00  0.00     0.117 C 
ATOM      5  C   UNL d   1      -2.446   2.372   1.223  0.00  0.00     0.117 C 
ATOM      6  C   UNL d   1      -2.649   3.761   1.849  0.00  0.00     0.140 C 
ATOM      7  C   UNL d   1      -1.809   4.789  -0.232  0.00  0.00     0.140 C 
ATOM      8  O   UNL d   1      -3.706   6.758   0.053  0.00  0.00    -0.273 OA
ENDROOT
BRANCH   1   9
ATOM      9  C   UNL d   1      -0.688   1.216   0.037  0.00  0.00     0.097 A 
ATOM     10  C   UNL d   1      -0.028   0.436   0.992  0.00  0.00     0.086 A 
ATOM     11  C   UNL d   1       0.519  -0.799   0.589  0.00  0.00     0.021 A 
ATOM     12  C   UNL d   1       0.434  -1.207  -0.732  0.00  0.00     0.018 A 
ATOM     13  C   UNL d   1      -0.205  -0.364  -1.614  0.00  0.00     0.089 A 
ATOM     14  N   UNL d   1      -0.757   0.815  -1.257  0.00  0.00    -0.356 N 
ATOM     15  HN  UNL d   1      -1.222   1.398  -1.952  1.00  0.00     0.166 HD
BRANCH  10  16
ATOM     16  C   UNL d   1       0.152   0.832   2.429  0.00  0.00     0.420 C 
ATOM     17  F   UNL d   1      -0.119   2.125   2.759  0.00  0.00    -0.166 F 
ATOM     18  F   UNL d   1      -0.638   0.080   3.256  0.00  0.00    -0.166 F 
ATOM     19  F   UNL d   1       1.428   0.619   2.869  0.00  0.00    -0.166 F 
ENDBRANCH  10  16
ENDBRANCH   1   9
BRANCH   3  20
ATOM     20  C   UNL d   1      -4.864   5.788   1.923  0.00  0.00     0.182 C 
BRANCH  20  21
ATOM     21  S   UNL d   1      -6.507   6.095   1.190  0.00  0.00    -0.121 SA
BRANCH  21  22
ATOM     22  C   UNL d   1      -7.518   6.259   2.654  0.00  0.00     0.001 A 
ATOM     23  C   UNL d   1      -8.522   7.233   2.644  0.00  0.00     0.020 A 
ATOM     24  C   UNL d   1      -9.365   7.406   3.746  0.00  0.00     0.025 A 
ATOM     25  C   UNL d   1      -9.209   6.594   4.866  0.00  0.00     0.034 A 
ATOM     26  C   UNL d   1      -8.224   5.610   4.888  0.00  0.00     0.025 A 
ATOM     27 CL   UNL d   1     -10.243   6.799   6.224  0.00  0.00    -0.084 Cl
ATOM     28  C   UNL d   1      -7.384   5.438   3.781  0.00  0.00     0.020 A 
ENDBRANCH  21  22
ENDBRANCH  20  21
ENDBRANCH   3  20
TORSDOF 5
