REMARK  11 active torsions:
REMARK  status: ('A' for Active; 'I' for Inactive)
REMARK    1  A    between atoms: C_4  and  C_1 
REMARK    2  A    between atoms: C_14  and  N_5 
REMARK    3  A    between atoms: N_8  and  C_10 
REMARK       I    between atoms: C_9  and  N_8 
REMARK    4  A    between atoms: C_11  and  C_9 
REMARK    5  A    between atoms: C_12  and  C_13 
REMARK    6  A    between atoms: O_24  and  C_12 
REMARK    7  A    between atoms: C_22  and  C_14 
REMARK    8  A    between atoms: S_15  and  C_23 
REMARK    9  A    between atoms: C_16  and  S_15 
REMARK   10  A    between atoms: C_23  and  C_22 
REMARK   11  A    between atoms: O_25  and  C_22 
ROOT
ATOM      1  C   UNL d   1       0.537   0.442   0.402  0.00  0.00     0.051 A 
ATOM      2  C   UNL d   1       0.507  -0.028  -0.937  0.00  0.00     0.027 A 
ATOM      3  C   UNL d   1      -0.650   0.536   1.151  0.00  0.00     0.031 A 
ATOM      4  C   UNL d   1      -0.735  -0.382  -1.484  0.00  0.00     0.021 A 
ATOM      5  C   UNL d   1      -1.868   0.169   0.585  0.00  0.00     0.002 A 
ATOM      6  C   UNL d   1      -1.911  -0.291  -0.727  0.00  0.00     0.002 A 
ENDROOT
BRANCH   2   7
ATOM      7  S   UNL d   1       2.032   0.039  -1.920  0.00  0.00    -0.125 SA
BRANCH   7   8
ATOM      8  C   UNL d   1       1.748  -1.128  -3.309  0.00  0.00     0.113 C 
BRANCH   8   9
ATOM      9  C   UNL d   1       2.779  -0.990  -4.452  0.00  0.00     0.147 C 
BRANCH   9  10
ATOM     10  C   UNL d   1       4.262  -1.172  -4.106  0.00  0.00     0.180 C 
BRANCH  10  11
ATOM     11  N   UNL d   1       4.625  -2.421  -3.474  0.00  0.00    -0.300 N 
ATOM     12  N   UNL d   1       3.854  -3.513  -3.611  0.00  0.00    -0.295 N 
ATOM     13  C   UNL d   1       4.462  -4.453  -2.859  0.00  0.00     0.133 A 
ATOM     14  HN  UNL d   1       3.000  -3.609  -4.161  1.00  0.00     0.187 HD
ATOM     15  C   UNL d   1       5.663  -3.942  -2.295  0.00  0.00     0.054 A 
ATOM     16  C   UNL d   1       5.743  -2.640  -2.724  0.00  0.00     0.112 A 
BRANCH  13  17
ATOM     17  C   UNL d   1       3.900  -5.834  -2.651  0.00  0.00     0.433 C 
ATOM     18  F   UNL d   1       2.864  -6.131  -3.479  0.00  0.00    -0.165 F 
ATOM     19  F   UNL d   1       4.842  -6.798  -2.843  0.00  0.00    -0.165 F 
ATOM     20  F   UNL d   1       3.441  -5.995  -1.379  0.00  0.00    -0.165 F 
ENDBRANCH  13  17
ENDBRANCH  10  11
ENDBRANCH   9  10
BRANCH   9  21
ATOM     21  O   UNL d   1       2.618   0.295  -5.086  0.00  0.00    -0.393 OA
ATOM     22  H   UNL d   1       2.769   0.977  -4.405  0.00  0.00     0.210 HD
ENDBRANCH   9  21
ENDBRANCH   8   9
ENDBRANCH   7   8
ENDBRANCH   2   7
BRANCH   1  23
ATOM     23  N   UNL d   1       1.786   0.701   1.011  0.00  0.00    -0.322 N 
ATOM     24  C   UNL d   1       2.104   1.512   2.065  0.00  0.00     0.245 C 
ATOM     25  O   UNL d   1       3.001   1.207   2.842  0.00  0.00    -0.268 OA
ATOM     26  H   UNL d   1       2.535   0.076   0.731  0.00  0.00     0.169 HD
BRANCH  24  27
ATOM     27  C   UNL d   1       1.395   2.824   2.115  0.00  0.00     0.081 C 
ATOM     28  C   UNL d   1       1.765   3.918   2.794  0.00  0.00     0.086 C 
BRANCH  28  29
ATOM     29  C   UNL d   1       2.948   4.140   3.631  0.00  0.00     0.165 C 
ATOM     30  O   UNL d   1       2.949   4.852   4.620  0.00  0.00    -0.647 OA
BRANCH  29  31
ATOM     31  O   UNL d   1       4.073   3.629   3.126  0.00  0.00    -0.773 OA
ATOM     32  H   UNL d   1       4.750   3.808   3.809  0.00  0.00     0.167 HD
ENDBRANCH  29  31
ENDBRANCH  28  29
ENDBRANCH  24  27
ENDBRANCH   1  23
TORSDOF 11
