REMARK  1 active torsions:
REMARK  status: ('A' for Active; 'I' for Inactive)
REMARK    1  A    between atoms: C_9  and  C_7 
ROOT
ATOM      1  C   UNL d   1       0.540  -0.914  -0.025  0.00  0.00     0.111 A 
ATOM      2  N   UNL d   1       0.596   0.456  -0.072  0.00  0.00    -0.335 N 
ATOM      3  HN  UNL d   1       1.417   1.061  -0.076  1.00  0.00     0.168 HD
ATOM      4  C   UNL d   1      -0.884  -1.368  -0.019  0.00  0.00     0.316 A 
ATOM      5  O   UNL d   1      -1.574  -0.197  -0.082  0.00  0.00    -0.261 OA
ATOM      6  C   UNL d   1      -0.653   0.788  -0.109  0.00  0.00     0.124 A 
ATOM      7  C   UNL d   1       1.623  -1.703  -0.014  0.00  0.00     0.047 C 
ATOM      8  O   UNL d   1      -1.356  -2.485   0.030  0.00  0.00    -0.257 OA
ATOM      9  C   UNL d   1      -1.193   2.167  -0.193  0.00  0.00     0.098 C 
ENDROOT
BRANCH   7  10
ATOM     10  C   UNL d   1       1.575  -3.164  -0.021  0.00  0.00    -0.032 A 
ATOM     11  C   UNL d   1       1.554  -3.851  -1.240  0.00  0.00     0.037 A 
ATOM     12  C   UNL d   1       1.429  -5.244  -1.261  0.00  0.00     0.056 A 
ATOM     13 CL   UNL d   1       1.394  -6.022  -2.804  0.00  0.00    -0.083 Cl
ATOM     14  C   UNL d   1       1.329  -5.954  -0.059  0.00  0.00     0.055 A 
ATOM     15  C   UNL d   1       1.367  -5.268   1.158  0.00  0.00     0.026 A 
ATOM     16 CL   UNL d   1       1.152  -7.672  -0.010  0.00  0.00    -0.083 Cl
ATOM     17  C   UNL d   1       1.491  -3.877   1.179  0.00  0.00     0.013 A 
ENDBRANCH   7  10
TORSDOF 1
