REMARK  5 active torsions:
REMARK  status: ('A' for Active; 'I' for Inactive)
REMARK    1  A    between atoms: C_5  and  S_1 
REMARK    2  A    between atoms: N_15  and  S_1 
REMARK    3  A    between atoms: N_3  and  C_2 
REMARK    4  A    between atoms: S_7  and  C_6 
REMARK    5  A    between atoms: C_14  and  S_7 
ROOT
ATOM      1  C   UNL d   1       0.937   4.066   0.305  0.00  0.00     0.121 A 
ATOM      2  C   UNL d   1       1.348   2.735   0.122  0.00  0.00     0.062 A 
ATOM      3  C   UNL d   1       0.442   1.711   0.399  0.00  0.00     0.076 A 
ATOM      4  C   UNL d   1      -0.354   4.395   0.751  0.00  0.00     0.038 A 
ATOM      5  C   UNL d   1      -1.224   3.335   1.061  0.00  0.00     0.023 A 
ATOM      6  C   UNL d   1      -0.829   2.001   0.898  0.00  0.00     0.026 A 
ENDROOT
BRANCH   4   7
ATOM      7  S   UNL d   1      -1.050   6.040   0.713  0.00  0.00    -0.088 SA
BRANCH   7   8
ATOM      8  C   UNL d   1      -0.749   6.688   2.344  0.00  0.00     0.007 A 
ATOM      9  C   UNL d   1      -1.214   6.056   3.501  0.00  0.00     0.044 A 
ATOM     10  C   UNL d   1      -1.061   6.666   4.753  0.00  0.00     0.057 A 
ATOM     11 CL   UNL d   1      -1.681   5.828   6.133  0.00  0.00    -0.083 Cl
ATOM     12  C   UNL d   1      -0.445   7.918   4.854  0.00  0.00     0.055 A 
ATOM     13  C   UNL d   1       0.024   8.551   3.703  0.00  0.00     0.027 A 
ATOM     14 CL   UNL d   1      -0.253   8.742   6.361  0.00  0.00    -0.083 Cl
ATOM     15  C   UNL d   1      -0.130   7.939   2.456  0.00  0.00     0.021 A 
ENDBRANCH   7   8
ENDBRANCH   4   7
BRANCH   1  16
ATOM     16  N   UNL d   1       1.895   5.102  -0.030  0.00  0.00    -0.114 N 
ATOM     17  O   UNL d   1       2.346   5.096  -1.183  0.00  0.00    -0.532 OA
ATOM     18  O   UNL d   1       2.235   5.877   0.874  0.00  0.00    -0.532 OA
ENDBRANCH   1  16
BRANCH   3  19
ATOM     19  S   UNL d   1       0.906   0.032   0.078  0.00  0.00     0.239 S 
ATOM     20  O   UNL d   1      -0.193  -0.838   0.418  0.00  0.00    -0.206 OA
ATOM     21  O   UNL d   1       2.249  -0.168   0.567  0.00  0.00    -0.206 OA
BRANCH  19  22
ATOM     22  N   UNL d   1       0.998   0.021  -1.597  0.00  0.00    -0.225 NA
ATOM     23  H   UNL d   1       0.286  -0.600  -1.984  0.00  0.00     0.136 HD
ATOM     24  H   UNL d   1       1.946  -0.216  -1.897  0.00  0.00     0.136 HD
ENDBRANCH  19  22
ENDBRANCH   3  19
TORSDOF 5
