REMARK  4 active torsions:
REMARK  status: ('A' for Active; 'I' for Inactive)
REMARK    1  A    between atoms: N_7  and  C_1 
REMARK    2  A    between atoms: C_13  and  N_2 
REMARK    3  A    between atoms: C_9  and  C_6 
REMARK       I    between atoms: C_8  and  N_7 
REMARK       I    between atoms: N_12  and  C_8 
REMARK    4  A    between atoms: C_15  and  N_12 
ROOT
ATOM      1  C   UNL d   1      -0.217  -0.865   0.155  0.00  0.00     0.133 C 
ATOM      2  N   UNL d   1       1.140  -0.681  -0.127  0.00  0.00    -0.240 N 
ATOM      3  N   UNL d   1       1.403   0.634  -0.334  0.00  0.00    -0.296 N 
ATOM      4  HN  UNL d   1       2.210   1.048  -0.802  1.00  0.00     0.187 HD
ATOM      5  C   UNL d   1      -0.675   0.371   0.552  0.00  0.00     0.077 C 
ATOM      6  C   UNL d   1       0.362   1.260   0.216  0.00  0.00     0.034 C 
ENDROOT
BRANCH   1   7
ATOM      7  N   UNL d   1      -0.926  -2.054   0.122  0.00  0.00    -0.293 N 
ATOM      8  C   UNL d   1      -0.906  -3.017  -0.865  0.00  0.00     0.326 C 
ATOM      9  N   UNL d   1      -0.296  -2.672  -2.047  0.00  0.00    -0.309 N 
ATOM     10  O   UNL d   1      -1.530  -4.053  -0.650  0.00  0.00    -0.247 OA
ATOM     11  H   UNL d   1       0.091  -1.743  -2.103  0.00  0.00     0.170 HD
ATOM     12  H   UNL d   1      -1.737  -2.150   0.723  0.00  0.00     0.172 HD
BRANCH   9  13
ATOM     13  C   UNL d   1      -0.288  -3.399  -3.260  0.00  0.00     0.036 A 
ATOM     14  C   UNL d   1      -0.888  -4.649  -3.432  0.00  0.00     0.031 A 
ATOM     15  C   UNL d   1      -0.852  -5.294  -4.676  0.00  0.00     0.026 A 
ATOM     16  C   UNL d   1      -0.210  -4.692  -5.754  0.00  0.00     0.034 A 
ATOM     17  C   UNL d   1       0.390  -3.446  -5.602  0.00  0.00     0.026 A 
ATOM     18 CL   UNL d   1      -0.160  -5.489  -7.277  0.00  0.00    -0.084 Cl
ATOM     19  C   UNL d   1       0.353  -2.802  -4.358  0.00  0.00     0.031 A 
ENDBRANCH   9  13
ENDBRANCH   1   7
BRANCH   2  20
ATOM     20  C   UNL d   1       2.216  -1.605  -0.055  0.00  0.00     0.058 A 
ATOM     21  C   UNL d   1       3.417  -1.311  -0.716  0.00  0.00     0.031 A 
ATOM     22  C   UNL d   1       4.518  -2.157  -0.575  0.00  0.00     0.002 A 
ATOM     23  C   UNL d   1       4.436  -3.277   0.252  0.00  0.00     0.000 A 
ATOM     24  C   UNL d   1       3.247  -3.564   0.923  0.00  0.00     0.002 A 
ATOM     25  C   UNL d   1       2.131  -2.740   0.762  0.00  0.00     0.031 A 
ENDBRANCH   2  20
BRANCH   6  26
ATOM     26  C   UNL d   1       0.371   2.767   0.401  0.00  0.00     0.037 A 
ATOM     27  C   UNL d   1      -0.451   3.394   1.509  0.00  0.00     0.011 A 
ATOM     28  C   UNL d   1      -0.872   3.571   0.090  0.00  0.00     0.011 A 
ENDBRANCH   6  26
TORSDOF 4
