REMARK  4 active torsions:
REMARK  status: ('A' for Active; 'I' for Inactive)
REMARK    1  A    between atoms: C1*_3  and  N1_1 
REMARK    2  A    between atoms: C4*_10  and  C5*_15 
REMARK    3  A    between atoms: C3*_11  and  O3*_14 
REMARK    4  A    between atoms: O5*_16  and  C5*_15 
ROOT
ATOM      1  C1* U11 d   1      -1.341  -2.447  -0.197  0.00  0.00     0.235 C 
ATOM      2  O4* U11 d   1      -2.019  -2.538  -1.466  0.00  0.00    -0.356 OA
ATOM      3  C2* U11 d   1      -2.368  -2.761   0.884  0.00  0.00     0.088 C 
ATOM      4  C4* U11 d   1      -3.303  -3.181  -1.263  0.00  0.00     0.176 C 
ATOM      5  C3* U11 d   1      -3.309  -3.703   0.170  0.00  0.00     0.153 C 
ENDROOT
BRANCH   1   6
ATOM      6  N1  U11 d   1      -0.713  -1.141  -0.037  0.00  0.00    -0.282 N 
ATOM      7  C2  U11 d   1       0.402  -1.070   0.791  0.00  0.00     0.331 A 
ATOM      8  N3  U11 d   1       0.965   0.172   0.924  0.00  0.00    -0.275 N 
ATOM      9  O2  U11 d   1       0.876  -2.034   1.389  0.00  0.00    -0.246 OA
ATOM     10  C4  U11 d   1       0.493   1.330   0.380  0.00  0.00     0.250 A 
ATOM     11  H3  U11 d   1       1.776   0.242   1.518  0.00  0.00     0.173 HD
ATOM     12  C5  U11 d   1      -0.704   1.198  -0.462  0.00  0.00     0.092 A 
ATOM     13  O4  U11 d   1       1.011   2.424   0.576  0.00  0.00    -0.268 OA
ATOM     14  C6  U11 d   1      -1.244  -0.011  -0.627  0.00  0.00     0.104 A 
ENDBRANCH   1   6
BRANCH   4  15
ATOM     15  C5* U11 d   1      -4.395  -2.138  -1.514  0.00  0.00     0.198 C 
BRANCH  15  16
ATOM     16  O5* U11 d   1      -4.291  -1.627  -2.843  0.00  0.00    -0.398 OA
ATOM     17  H5* U11 d   1      -3.341  -1.476  -3.009  0.00  0.00     0.209 HD
ENDBRANCH  15  16
ENDBRANCH   4  15
BRANCH   5  18
ATOM     18  O3* U11 d   1      -2.795  -5.034   0.241  0.00  0.00    -0.393 OA
ATOM     19  H3* U11 d   1      -2.053  -5.132  -0.383  0.00  0.00     0.210 HD
ENDBRANCH   5  18
TORSDOF 4
