REMARK  5 active torsions:
REMARK  status: ('A' for Active; 'I' for Inactive)
REMARK    1  A    between atoms: C_10  and  N_1 
REMARK    2  A    between atoms: S_7  and  C_4 
REMARK    3  A    between atoms: C_9  and  C_6 
REMARK    4  A    between atoms: C_8  and  S_7 
REMARK    5  A    between atoms: O_16  and  C_9 
ROOT
ATOM      1  N   UNL d   1       0.118   0.853   0.149  0.00  0.00    -0.251 N 
ATOM      2  C   UNL d   1      -0.992   0.067   0.372  0.00  0.00     0.232 C 
ATOM      3  C   UNL d   1       1.270   0.093   0.135  0.00  0.00     0.245 C 
ATOM      4  C   UNL d   1       0.897  -1.374   0.099  0.00  0.00     0.154 C 
ATOM      5  C   UNL d   1      -0.557  -1.362   0.526  0.00  0.00     0.129 C 
ATOM      6  O   UNL d   1      -2.163   0.400   0.481  0.00  0.00    -0.273 OA
ATOM      7  O   UNL d   1       2.435   0.474   0.161  0.00  0.00    -0.271 OA
ENDROOT
BRANCH   4   8
ATOM      8  S   UNL d   1       1.227  -1.951  -1.622  0.00  0.00    -0.114 SA
BRANCH   8   9
ATOM      9  C   UNL d   1       0.878  -3.704  -1.513  0.00  0.00     0.018 A 
ATOM     10  C   UNL d   1      -0.348  -4.274  -1.905  0.00  0.00     0.054 A 
ATOM     11  C   UNL d   1      -0.526  -5.668  -1.840  0.00  0.00     0.020 A 
ATOM     12  C   UNL d   1       0.520  -6.500  -1.449  0.00  0.00     0.001 A 
ATOM     13  C   UNL d   1       1.747  -5.945  -1.101  0.00  0.00     0.001 A 
ATOM     14  C   UNL d   1       1.925  -4.557  -1.125  0.00  0.00     0.019 A 
BRANCH  10  15
ATOM     15  C   UNL d   1      -1.512  -3.501  -2.397  0.00  0.00     0.177 C 
ATOM     16  O   UNL d   1      -2.661  -3.820  -2.133  0.00  0.00    -0.646 OA
BRANCH  15  17
ATOM     17  O   UNL d   1      -1.209  -2.473  -3.213  0.00  0.00    -0.773 OA
ATOM     18  H   UNL d   1      -0.247  -2.312  -3.317  0.00  0.00     0.167 HD
ENDBRANCH  15  17
ENDBRANCH  10  15
ENDBRANCH   8   9
ENDBRANCH   4   8
BRANCH   1  19
ATOM     19  C   UNL d   1       0.098   2.273   0.018  0.00  0.00     0.045 A 
ATOM     20  C   UNL d   1      -0.941   3.050   0.549  0.00  0.00     0.031 A 
ATOM     21  C   UNL d   1      -0.925   4.448   0.451  0.00  0.00     0.009 A 
ATOM     22  C   UNL d   1       0.117   5.105  -0.206  0.00  0.00    -0.062 A 
ATOM     23  C   UNL d   1       1.137   4.341  -0.773  0.00  0.00     0.009 A 
ATOM     24  C   UNL d   1       0.143   6.603  -0.271  0.00  0.00     0.048 C 
ATOM     25  C   UNL d   1       1.130   2.945  -0.656  0.00  0.00     0.031 A 
ENDBRANCH   1  19
TORSDOF 5
