REMARK  5 active torsions:
REMARK  status: ('A' for Active; 'I' for Inactive)
REMARK    1  A    between atoms: C_5  and  C_1 
REMARK    2  A    between atoms: C_7  and  C_3 
REMARK    3  A    between atoms: N_4  and  C_5 
REMARK    4  A    between atoms: O_14  and  C_6 
REMARK    5  A    between atoms: O_13  and  N_8 
ROOT
ATOM      1  C   UNL d   1       0.554  -5.078  -0.644  0.00  0.00     0.004 A 
ATOM      2  C   UNL d   1      -0.116  -3.821  -0.783  0.00  0.00     0.025 A 
ATOM      3  C   UNL d   1      -1.479  -3.644  -0.494  0.00  0.00    -0.011 A 
ATOM      4  C   UNL d   1      -0.213  -6.179  -0.220  0.00  0.00     0.076 A 
ATOM      5  C   UNL d   1      -2.220  -4.767  -0.143  0.00  0.00     0.016 A 
ATOM      6  C   UNL d   1      -1.594  -6.005  -0.018  0.00  0.00     0.038 A 
ENDROOT
BRANCH   1   7
ATOM      7  C   UNL d   1       2.068  -5.011  -0.800  0.00  0.00     0.314 C 
BRANCH   7   8
ATOM      8  N   UNL d   1       2.690  -5.987  -1.698  0.00  0.00     0.096 N 
ATOM      9  C   UNL d   1       2.397  -5.791  -3.129  0.00  0.00     0.299 C 
ATOM     10  C   UNL d   1       3.234  -4.696  -3.813  0.00  0.00     0.198 C 
ATOM     11  O   UNL d   1       4.638  -4.873  -3.587  0.00  0.00    -0.388 OA
ATOM     12  C   UNL d   1       4.925  -4.914  -2.186  0.00  0.00     0.198 C 
ATOM     13  C   UNL d   1       4.154  -6.053  -1.503  0.00  0.00     0.299 C 
ENDBRANCH   7   8
ENDBRANCH   1   7
BRANCH   4  14
ATOM     14  O   UNL d   1       0.125  -7.454   0.123  0.00  0.00    -0.355 OA
ATOM     15  C   UNL d   1       1.424  -7.973  -0.044  0.00  0.00     0.210 C 
ENDBRANCH   4  14
BRANCH   3  16
ATOM     16  C   UNL d   1      -2.158  -2.299  -0.427  0.00  0.00     0.038 C 
ATOM     17  N   UNL d   1      -3.424  -2.261  -0.102  0.00  0.00    -0.273 N 
ATOM     18  HN  UNL d   1      -3.998  -3.091   0.045  1.00  0.00     0.193 HD
ATOM     19  C   UNL d   1      -1.356  -1.028  -0.637  0.00  0.00     0.071 C 
BRANCH  17  20
ATOM     20  O   UNL d   1      -3.899  -0.952   0.020  0.00  0.00    -0.290 OA
ATOM     21  H   UNL d   1      -4.809  -1.090   0.342  0.00  0.00     0.244 HD
ENDBRANCH  17  20
ENDBRANCH   3  16
TORSDOF 5
