REMARK  3 active torsions:
REMARK  status: ('A' for Active; 'I' for Inactive)
REMARK    1  A    between atoms: N_3  and  C_6 
REMARK    2  A    between atoms: C_5  and  N_3 
REMARK    3  A    between atoms: C_6  and  C_4 
ROOT
ATOM      1  N   UNL d   1       2.833   2.455   0.093  0.00  0.00    -0.289 NA
ATOM      2  H   UNL d   1       3.151   1.792  -0.612  0.00  0.00     0.128 HD
ENDROOT
BRANCH   1   3
ATOM      3  C   UNL d   1       1.374   2.528   0.139  0.00  0.00     0.132 C 
BRANCH   3   4
ATOM      4  C   UNL d   1       0.746   1.160   0.116  0.00  0.00    -0.030 A 
ATOM      5  C   UNL d   1      -0.460   0.960  -0.551  0.00  0.00     0.096 A 
ATOM      6  N   UNL d   1      -1.143  -0.207  -0.566  0.00  0.00    -0.375 N 
ATOM      7  C   UNL d   1      -0.605  -1.231   0.130  0.00  0.00     0.087 A 
ATOM      8  HN  UNL d   1      -2.019  -0.309  -1.077  1.00  0.00     0.164 HD
ATOM      9  C   UNL d   1       0.583  -1.141   0.836  0.00  0.00     0.018 A 
ATOM     10  C   UNL d   1       1.262   0.075   0.833  0.00  0.00     0.011 A 
ENDBRANCH   3   4
ENDBRANCH   1   3
BRANCH   1  11
ATOM     11  C   UNL d   1       3.539   3.665   0.008  0.00  0.00     0.008 A 
ATOM     12  C   UNL d   1       3.088   4.860   0.587  0.00  0.00     0.025 A 
ATOM     13  C   UNL d   1       3.846   6.034   0.515  0.00  0.00     0.025 A 
ATOM     14  C   UNL d   1       5.088   6.018  -0.110  0.00  0.00     0.034 A 
ATOM     15  C   UNL d   1       5.584   4.832  -0.642  0.00  0.00     0.025 A 
ATOM     16 CL   UNL d   1       6.015   7.461  -0.213  0.00  0.00    -0.084 Cl
ATOM     17  C   UNL d   1       4.820   3.663  -0.565  0.00  0.00     0.025 A 
ENDBRANCH   1  11
TORSDOF 3
