REMARK  4 active torsions:
REMARK  status: ('A' for Active; 'I' for Inactive)
REMARK    1  A    between atoms: C_9  and  C_3 
REMARK    2  A    between atoms: C_8  and  C_4 
REMARK    3  A    between atoms: C_17  and  C_14 
REMARK    4  A    between atoms: C_18  and  C_17 
ROOT
ATOM      1  N   UNL d   1       0.774   0.070   0.722  0.00  0.00    -0.319 N 
ATOM      2  HN  UNL d   1       1.406   0.136   1.520  1.00  0.00     0.169 HD
ATOM      3  C   UNL d   1      -0.039   1.044   0.186  0.00  0.00     0.138 A 
ATOM      4  C   UNL d   1       0.533  -0.966  -0.050  0.00  0.00     0.182 A 
ATOM      5  N   UNL d   1      -0.753   0.633  -0.877  0.00  0.00    -0.242 N 
ATOM      6  HN  UNL d   1      -1.417   1.170  -1.436  1.00  0.00     0.196 HD
ATOM      7  O   UNL d   1      -0.372  -0.697  -1.036  0.00  0.00    -0.217 OA
ENDROOT
BRANCH   4   8
ATOM      8  C   UNL d   1       1.069  -2.317   0.019  0.00  0.00     0.017 A 
ATOM      9  C   UNL d   1       1.922  -2.663   1.077  0.00  0.00     0.016 A 
ATOM     10  C   UNL d   1       2.451  -3.952   1.179  0.00  0.00     0.008 A 
ATOM     11  C   UNL d   1       2.143  -4.921   0.219  0.00  0.00    -0.058 A 
ATOM     12  C   UNL d   1       1.281  -4.583  -0.832  0.00  0.00     0.008 A 
ATOM     13  C   UNL d   1       0.755  -3.292  -0.935  0.00  0.00     0.016 A 
BRANCH  11  14
ATOM     14  C   UNL d   1       2.738  -6.305   0.314  0.00  0.00     0.038 C 
BRANCH  14  15
ATOM     15  C   UNL d   1       3.605  -6.690  -0.890  0.00  0.00     0.000 C 
ATOM     16  C   UNL d   1       4.817  -5.785  -1.071  0.00  0.00     0.005 C 
ENDBRANCH  14  15
ENDBRANCH  11  14
ENDBRANCH   4   8
BRANCH   3  17
ATOM     17  C   UNL d   1      -0.095   2.390   0.742  0.00  0.00     0.010 A 
ATOM     18  C   UNL d   1       0.737   2.743   1.814  0.00  0.00     0.015 A 
ATOM     19  C   UNL d   1       0.705   4.034   2.345  0.00  0.00     0.001 A 
ATOM     20  C   UNL d   1      -0.161   4.987   1.809  0.00  0.00     0.000 A 
ATOM     21  C   UNL d   1      -0.999   4.645   0.748  0.00  0.00     0.001 A 
ATOM     22  C   UNL d   1      -0.968   3.355   0.217  0.00  0.00     0.015 A 
ENDBRANCH   3  17
TORSDOF 4
