REMARK  4 active torsions:
REMARK  status: ('A' for Active; 'I' for Inactive)
REMARK    1  A    between atoms: C_6  and  C_1 
REMARK    2  A    between atoms: N_7  and  C_2 
REMARK    3  A    between atoms: C_8  and  C_4 
REMARK       I    between atoms: N_18  and  C_6 
REMARK       I    between atoms: C_9  and  N_7 
REMARK    4  A    between atoms: C_10  and  C_11 
ROOT
ATOM      1  C   UNL d   1       0.740   1.201  -0.818  0.00  0.00     0.100 A 
ATOM      2  C   UNL d   1       0.781   1.080   0.563  0.00  0.00     0.058 A 
ATOM      3  S   UNL d   1       0.330  -0.297  -1.550  0.00  0.00    -0.082 SA
ATOM      4  C   UNL d   1       0.200  -1.123  -0.053  0.00  0.00     0.018 A 
ATOM      5  C   UNL d   1       0.524  -0.269   0.984  0.00  0.00     0.051 A 
ENDROOT
BRANCH   4   6
ATOM      6  C   UNL d   1      -0.193  -2.547  -0.018  0.00  0.00    -0.019 A 
ATOM      7  C   UNL d   1       0.233  -3.389   1.019  0.00  0.00     0.013 A 
ATOM      8  C   UNL d   1      -0.111  -4.754   1.030  0.00  0.00     0.009 A 
ATOM      9  C   UNL d   1      -0.883  -5.330   0.008  0.00  0.00    -0.051 A 
ATOM     10  C   UNL d   1      -1.329  -4.468  -1.002  0.00  0.00     0.009 A 
ATOM     11  C   UNL d   1      -0.999  -3.111  -1.012  0.00  0.00     0.013 A 
BRANCH   9  12
ATOM     12  C   UNL d   1      -1.176  -6.840  -0.013  0.00  0.00    -0.024 C 
ATOM     13  C   UNL d   1      -2.004  -7.288  -1.240  0.00  0.00     0.019 C 
ATOM     14  C   UNL d   1       0.155  -7.621  -0.053  0.00  0.00     0.019 C 
ATOM     15  C   UNL d   1      -1.964  -7.261   1.245  0.00  0.00     0.019 C 
ENDBRANCH   9  12
ENDBRANCH   4   6
BRANCH   1  16
ATOM     16  C   UNL d   1       1.033   2.296  -1.735  0.00  0.00     0.258 C 
ATOM     17  O   UNL d   1       0.602   2.405  -2.883  0.00  0.00    -0.267 OA
ATOM     18  N   UNL d   1       1.934   3.234  -1.304  0.00  0.00    -0.365 N 
ATOM     19  H   UNL d   1       2.316   3.225  -0.373  0.00  0.00     0.159 HD
ATOM     20  H   UNL d   1       2.107   4.015  -1.918  0.00  0.00     0.159 HD
ENDBRANCH   1  16
BRANCH   2  21
ATOM     21  N   UNL d   1       1.049   2.083   1.497  0.00  0.00    -0.326 N 
ATOM     22  C   UNL d   1       0.388   3.303   1.465  0.00  0.00     0.218 C 
ATOM     23  O   UNL d   1      -0.466   3.634   0.658  0.00  0.00    -0.274 OA
ATOM     24  C   UNL d   1       0.853   4.239   2.553  0.00  0.00     0.117 C 
ATOM     25  H   UNL d   1       1.313   1.760   2.422  0.00  0.00     0.169 HD
ENDBRANCH   2  21
TORSDOF 4
