REMARK  5 active torsions:
REMARK  status: ('A' for Active; 'I' for Inactive)
REMARK    1  A    between atoms: N_2  and  S_1 
REMARK    2  A    between atoms: C_3  and  S_1 
REMARK    3  A    between atoms: C_13  and  N_2 
REMARK       I    between atoms: C_6  and  N_7 
REMARK    4  A    between atoms: N_7  and  C_16 
REMARK    5  A    between atoms: C_8  and  C_9 
ROOT
ATOM      1  S   UNL d   1       0.642  -1.236  -1.999  0.00  0.00     0.263 S 
ATOM      2  O   UNL d   1      -0.057  -1.236  -3.266  0.00  0.00    -0.200 OA
ATOM      3  O   UNL d   1       0.241  -2.130  -0.933  0.00  0.00    -0.200 OA
ENDROOT
BRANCH   1   4
ATOM      4  N   UNL d   1       0.608   0.316  -1.343  0.00  0.00    -0.281 N 
ATOM      5  H   UNL d   1      -0.114   0.431  -0.635  0.00  0.00     0.179 HD
BRANCH   4   6
ATOM      6  C   UNL d   1       0.924   1.422  -2.173  0.00  0.00     0.042 A 
ATOM      7  C   UNL d   1      -0.017   1.996  -3.018  0.00  0.00     0.030 A 
ATOM      8  C   UNL d   1       0.346   3.085  -3.822  0.00  0.00     0.010 A 
ATOM      9  C   UNL d   1       1.653   3.617  -3.800  0.00  0.00    -0.051 A 
ATOM     10  C   UNL d   1       2.578   3.010  -2.936  0.00  0.00     0.010 A 
ATOM     11  C   UNL d   1       2.219   1.927  -2.130  0.00  0.00     0.030 A 
BRANCH   9  12
ATOM     12  C   UNL d   1       2.031   4.811  -4.697  0.00  0.00    -0.024 C 
ATOM     13  C   UNL d   1       3.504   5.258  -4.545  0.00  0.00     0.019 C 
ATOM     14  C   UNL d   1       1.819   4.440  -6.179  0.00  0.00     0.019 C 
ATOM     15  C   UNL d   1       1.149   6.029  -4.346  0.00  0.00     0.019 C 
ENDBRANCH   9  12
ENDBRANCH   4   6
ENDBRANCH   1   4
BRANCH   1  16
ATOM     16  C   UNL d   1       2.373  -1.502  -2.297  0.00  0.00     0.080 A 
ATOM     17  C   UNL d   1       3.203  -1.958  -1.272  0.00  0.00     0.027 A 
ATOM     18  C   UNL d   1       4.561  -2.178  -1.533  0.00  0.00     0.031 A 
ATOM     19  C   UNL d   1       5.094  -1.956  -2.812  0.00  0.00     0.034 A 
ATOM     20  C   UNL d   1       4.246  -1.504  -3.827  0.00  0.00     0.031 A 
ATOM     21  C   UNL d   1       2.888  -1.284  -3.576  0.00  0.00     0.027 A 
BRANCH  19  22
ATOM     22  N   UNL d   1       6.468  -2.220  -3.000  0.00  0.00    -0.328 N 
ATOM     23  C   UNL d   1       7.198  -2.072  -4.166  0.00  0.00     0.218 C 
ATOM     24  O   UNL d   1       6.787  -1.648  -5.242  0.00  0.00    -0.274 OA
ATOM     25  C   UNL d   1       8.639  -2.500  -4.029  0.00  0.00     0.117 C 
ATOM     26  H   UNL d   1       6.965  -2.567  -2.189  0.00  0.00     0.169 HD
ENDBRANCH  19  22
ENDBRANCH   1  16
TORSDOF 5
