REMARK  5 active torsions:
REMARK  status: ('A' for Active; 'I' for Inactive)
REMARK    1  A    between atoms: C_7  and  C_1 
REMARK       I    between atoms: C_2  and  N_9 
REMARK    2  A    between atoms: C_4  and  C_2 
REMARK    3  A    between atoms: N_8  and  C_3 
REMARK    4  A    between atoms: O_20  and  C_7 
REMARK    5  A    between atoms: N_9  and  C_15 
ROOT
ATOM      1  C   UNL d   1       1.494  -0.223   0.015  0.00  0.00     0.068 A 
ATOM      2  C   UNL d   1       0.691  -1.359  -0.244  0.00  0.00     0.046 A 
ATOM      3  C   UNL d   1       0.942   1.075  -0.009  0.00  0.00     0.049 A 
ATOM      4  C   UNL d   1      -0.654  -1.102  -0.579  0.00  0.00     0.032 A 
ATOM      5  C   UNL d   1      -0.400   1.300  -0.282  0.00  0.00     0.036 A 
ATOM      6  C   UNL d   1      -1.192   0.197  -0.605  0.00  0.00     0.032 A 
ENDROOT
BRANCH   5   7
ATOM      7  N   UNL d   1      -1.001   2.579  -0.215  0.00  0.00    -0.323 N 
ATOM      8  C   UNL d   1      -0.427   3.715   0.340  0.00  0.00     0.257 C 
ATOM      9  O   UNL d   1       0.736   3.848   0.714  0.00  0.00    -0.267 OA
ATOM     10  H   UNL d   1      -1.979   2.637  -0.472  0.00  0.00     0.169 HD
BRANCH   8  11
ATOM     11  C   UNL d   1      -1.340   4.876   0.526  0.00  0.00     0.044 A 
ATOM     12  C   UNL d   1      -2.527   4.743   1.287  0.00  0.00    -0.045 A 
ATOM     13  C   UNL d   1      -3.342   5.873   1.475  0.00  0.00     0.014 A 
ATOM     14  C   UNL d   1      -2.967   3.476   1.970  0.00  0.00     0.049 C 
ATOM     15  C   UNL d   1      -2.978   7.128   0.982  0.00  0.00    -0.061 A 
ATOM     16  C   UNL d   1      -1.784   7.254   0.270  0.00  0.00     0.014 A 
ATOM     17  C   UNL d   1      -3.869   8.314   1.205  0.00  0.00     0.048 C 
ATOM     18  C   UNL d   1      -0.960   6.142   0.022  0.00  0.00    -0.045 A 
ATOM     19  C   UNL d   1       0.327   6.399  -0.720  0.00  0.00     0.049 C 
ENDBRANCH   8  11
ENDBRANCH   5   7
BRANCH   1  20
ATOM     20  C   UNL d   1       2.974  -0.309   0.217  0.00  0.00     0.295 C 
ATOM     21  O   UNL d   1       3.720  -1.128  -0.292  0.00  0.00    -0.259 OA
BRANCH  20  22
ATOM     22  O   UNL d   1       3.357   0.673   1.075  0.00  0.00    -0.322 OA
ATOM     23  C   UNL d   1       4.763   0.819   1.276  0.00  0.00     0.213 C 
ENDBRANCH  20  22
ENDBRANCH   1  20
BRANCH   2  24
ATOM     24  N   UNL d   1       1.179  -2.659  -0.203  0.00  0.00    -0.376 N 
ATOM     25  C   UNL d   1       0.568  -3.753  -0.976  0.00  0.00     0.149 C 
ATOM     26  C   UNL d   1       1.643  -4.821  -1.254  0.00  0.00     0.187 C 
ATOM     27  O   UNL d   1       2.225  -5.317  -0.034  0.00  0.00    -0.388 OA
ATOM     28  C   UNL d   1       2.841  -4.234   0.692  0.00  0.00     0.187 C 
ATOM     29  C   UNL d   1       1.811  -3.146   1.044  0.00  0.00     0.149 C 
ENDBRANCH   2  24
TORSDOF 5
