REMARK  7 active torsions:
REMARK  status: ('A' for Active; 'I' for Inactive)
REMARK    1  A    between atoms: N_11  and  N_1 
REMARK    2  A    between atoms: C_5  and  C_2 
REMARK    3  A    between atoms: N_6  and  C_3 
REMARK    4  A    between atoms: S_4  and  N_6 
REMARK    5  A    between atoms: C_17  and  S_4 
REMARK    6  A    between atoms: O_20  and  C_10 
REMARK    7  A    between atoms: C_21  and  N_11 
ROOT
ATOM      1  N   UNL d   1      -0.278   1.244   0.065  0.00  0.00    -0.230 N 
ATOM      2  C   UNL d   1       1.044   0.681  -0.072  0.00  0.00     0.153 C 
ATOM      3  C   UNL d   1      -1.204   0.177  -0.291  0.00  0.00     0.338 C 
ATOM      4  N   UNL d   1       1.027  -0.620  -0.173  0.00  0.00    -0.284 N 
ATOM      5  HN  UNL d   1       1.833  -1.244  -0.211  1.00  0.00     0.188 HD
ATOM      6  N   UNL d   1      -0.305  -0.979  -0.219  0.00  0.00    -0.292 N 
ATOM      7  H   UNL d   1      -0.613  -1.935  -0.026  0.00  0.00     0.184 HD
ENDROOT
BRANCH   3   8
ATOM      8  N   UNL d   1      -1.641   0.318  -1.627  0.00  0.00    -0.273 N 
ATOM      9  H   UNL d   1      -1.560  -0.383  -2.344  0.00  0.00     0.176 HD
BRANCH   8  10
ATOM     10  S   UNL d   1      -2.625   1.553  -2.053  0.00  0.00     0.261 S 
ATOM     11  O   UNL d   1      -3.357   1.002  -3.162  0.00  0.00    -0.200 OA
ATOM     12  O   UNL d   1      -3.221   1.964  -0.798  0.00  0.00    -0.200 OA
BRANCH  10  13
ATOM     13  C   UNL d   1      -1.603   2.871  -2.646  0.00  0.00     0.079 A 
ATOM     14  C   UNL d   1      -0.756   2.651  -3.737  0.00  0.00     0.025 A 
ATOM     15  C   UNL d   1       0.070   3.687  -4.177  0.00  0.00     0.002 A 
ATOM     16  C   UNL d   1       0.056   4.922  -3.525  0.00  0.00     0.000 A 
ATOM     17  C   UNL d   1      -0.791   5.136  -2.439  0.00  0.00     0.002 A 
ATOM     18  C   UNL d   1      -1.634   4.115  -2.004  0.00  0.00     0.025 A 
ENDBRANCH  10  13
ENDBRANCH   8  10
ENDBRANCH   3   8
BRANCH   1  19
ATOM     19  N   UNL d   1      -0.684   2.484   0.694  0.00  0.00    -0.294 N 
ATOM     20  H   UNL d   1      -1.692   2.679   0.742  0.00  0.00     0.187 HD
BRANCH  19  21
ATOM     21  C   UNL d   1       0.081   3.249   1.594  0.00  0.00     0.048 A 
ATOM     22  C   UNL d   1       0.000   4.646   1.548  0.00  0.00     0.031 A 
ATOM     23  C   UNL d   1       0.864   5.433   2.313  0.00  0.00     0.002 A 
ATOM     24  C   UNL d   1       1.802   4.830   3.147  0.00  0.00     0.000 A 
ATOM     25  C   UNL d   1       1.855   3.443   3.244  0.00  0.00     0.002 A 
ATOM     26  C   UNL d   1       0.988   2.658   2.483  0.00  0.00     0.031 A 
ENDBRANCH  19  21
ENDBRANCH   1  19
BRANCH   2  27
ATOM     27  C   UNL d   1       2.262   1.494  -0.150  0.00  0.00     0.047 A 
ATOM     28  C   UNL d   1       3.491   1.017   0.320  0.00  0.00     0.101 A 
ATOM     29  C   UNL d   1       4.633   1.824   0.191  0.00  0.00     0.069 A 
ATOM     30 CL   UNL d   1       6.177   1.281   0.739  0.00  0.00    -0.081 Cl
ATOM     31  C   UNL d   1       4.549   3.094  -0.382  0.00  0.00     0.050 A 
ATOM     32  C   UNL d   1       3.327   3.556  -0.848  0.00  0.00     0.036 A 
ATOM     33  C   UNL d   1       2.191   2.755  -0.761  0.00  0.00     0.042 A 
ATOM     34 CL   UNL d   1       3.203   5.129  -1.529  0.00  0.00    -0.084 Cl
BRANCH  28  35
ATOM     35  O   UNL d   1       3.637  -0.199   0.933  0.00  0.00    -0.358 OA
ATOM     36  H   UNL d   1       2.810  -0.703   1.002  0.00  0.00     0.217 HD
ENDBRANCH  28  35
ENDBRANCH   2  27
TORSDOF 7
