REMARK  5 active torsions:
REMARK  status: ('A' for Active; 'I' for Inactive)
REMARK    1  A    between atoms: S_12  and  C_3 
REMARK    2  A    between atoms: N_11  and  C_4 
REMARK    3  A    between atoms: C_5  and  C_9 
REMARK    4  A    between atoms: C_9  and  S_12 
REMARK    5  A    between atoms: C_17  and  N_11 
ROOT
ATOM      1  N   UNL d   1       1.678   0.038  -0.155  0.00  0.00    -0.323 N 
ATOM      2  HN  UNL d   1       2.695   0.115  -0.183  1.00  0.00     0.169 HD
ATOM      3  C   UNL d   1       0.894   1.114  -0.303  0.00  0.00     0.146 A 
ATOM      4  C   UNL d   1       1.073  -1.149   0.031  0.00  0.00     0.109 A 
ATOM      5  N   UNL d   1      -0.447   1.091  -0.243  0.00  0.00    -0.341 N 
ATOM      6  HN  UNL d   1      -0.997   1.945  -0.339  1.00  0.00     0.167 HD
ATOM      7  C   UNL d   1      -0.303  -1.263   0.084  0.00  0.00     0.073 A 
ATOM      8  C   UNL d   1      -1.034  -0.103  -0.051  0.00  0.00     0.011 A 
ATOM      9  C   UNL d   1      -2.528  -0.107   0.040  0.00  0.00     0.068 C 
ENDROOT
BRANCH   3  10
ATOM     10  S   UNL d   1       1.704   2.659  -0.659  0.00  0.00    -0.089 SA
BRANCH  10  11
ATOM     11  C   UNL d   1       0.275   3.781  -0.571  0.00  0.00     0.124 C 
BRANCH  11  12
ATOM     12  C   UNL d   1       0.585   5.170  -1.085  0.00  0.00    -0.005 A 
ATOM     13  C   UNL d   1       0.395   5.503  -2.442  0.00  0.00     0.042 A 
ATOM     14 CL   UNL d   1      -0.134   4.342  -3.612  0.00  0.00    -0.084 Cl
ATOM     15  C   UNL d   1       0.616   6.804  -2.909  0.00  0.00     0.024 A 
ATOM     16  C   UNL d   1       1.047   7.799  -2.038  0.00  0.00     0.003 A 
ATOM     17  C   UNL d   1       1.273   7.487  -0.701  0.00  0.00     0.024 A 
ATOM     18  C   UNL d   1       1.051   6.186  -0.229  0.00  0.00     0.042 A 
ATOM     19 CL   UNL d   1       1.366   5.905   1.450  0.00  0.00    -0.084 Cl
ENDBRANCH  11  12
ENDBRANCH  10  11
ENDBRANCH   3  10
BRANCH   4  20
ATOM     20  N   UNL d   1       1.836  -2.336   0.176  0.00  0.00    -0.342 N 
ATOM     21  H   UNL d   1       1.564  -3.002  -0.539  0.00  0.00     0.167 HD
BRANCH  20  22
ATOM     22  C   UNL d   1       3.205  -2.413   0.511  0.00  0.00     0.035 A 
ATOM     23  C   UNL d   1       4.008  -3.419  -0.048  0.00  0.00     0.056 A 
ATOM     24  C   UNL d   1       5.357  -3.522   0.302  0.00  0.00     0.074 A 
ATOM     25 CL   UNL d   1       6.327  -4.745  -0.427  0.00  0.00    -0.081 Cl
ATOM     26  C   UNL d   1       5.906  -2.645   1.233  0.00  0.00     0.138 A 
ATOM     27  C   UNL d   1       5.120  -1.662   1.820  0.00  0.00     0.046 A 
ATOM     28  F   UNL d   1       7.197  -2.735   1.585  0.00  0.00    -0.204 F 
ATOM     29  C   UNL d   1       3.775  -1.551   1.461  0.00  0.00     0.032 A 
ENDBRANCH  20  22
ENDBRANCH   4  20
TORSDOF 5
