REMARK  10 active torsions:
REMARK  status: ('A' for Active; 'I' for Inactive)
REMARK    1  A    between atoms: C_2  and  C_1 
REMARK    2  A    between atoms: C_7  and  C_1 
REMARK    3  A    between atoms: C_16  and  C_1 
REMARK    4  A    between atoms: N_8  and  C_2 
REMARK    5  A    between atoms: C_11  and  C_2 
REMARK    6  A    between atoms: C_3  and  C_5 
REMARK    7  A    between atoms: C_4  and  C_6 
REMARK    8  A    between atoms: O_24  and  C_7 
REMARK    9  A    between atoms: C_9  and  N_8 
REMARK   10  A    between atoms: C_29  and  O_24 
ROOT
ATOM      1  C   UNL d   1       0.553  -0.557   1.074  0.00  0.00     0.149 C 
ENDROOT
BRANCH   1   2
ATOM      2  C   UNL d   1       1.175   0.013  -0.236  0.00  0.00     0.147 C 
BRANCH   2   3
ATOM      3  C   UNL d   1       0.812   1.470  -0.390  0.00  0.00     0.269 C 
ATOM      4  O   UNL d   1       0.732   2.278   0.533  0.00  0.00    -0.264 OA
BRANCH   3   5
ATOM      5  O   UNL d   1       0.627   1.775  -1.712  0.00  0.00    -0.321 OA
BRANCH   5   6
ATOM      6  C   UNL d   1       0.319   3.144  -2.009  0.00  0.00     0.174 C 
ATOM      7  C   UNL d   1      -1.164   3.400  -1.815  0.00  0.00     0.034 C 
ENDBRANCH   5   6
ENDBRANCH   3   5
ENDBRANCH   2   3
BRANCH   2   8
ATOM      8  C   UNL d   1       2.695  -0.149  -0.362  0.00  0.00    -0.042 A 
ATOM      9  C   UNL d   1       3.222  -0.910  -1.421  0.00  0.00     0.008 A 
ATOM     10  C   UNL d   1       4.598  -1.019  -1.619  0.00  0.00     0.001 A 
ATOM     11  C   UNL d   1       5.473  -0.370  -0.752  0.00  0.00     0.000 A 
ATOM     12  C   UNL d   1       4.970   0.362   0.324  0.00  0.00     0.001 A 
ATOM     13  C   UNL d   1       3.588   0.468   0.525  0.00  0.00     0.008 A 
ENDBRANCH   2   8
ENDBRANCH   1   2
BRANCH   1  14
ATOM     14  N   UNL d   1      -0.928  -0.381   1.193  0.00  0.00    -0.379 N 
ATOM     15  H   UNL d   1      -1.160   0.522   1.607  0.00  0.00     0.160 HD
BRANCH  14  16
ATOM     16  C   UNL d   1      -1.906  -0.827   0.313  0.00  0.00     0.030 A 
ATOM     17  C   UNL d   1      -1.672  -1.721  -0.732  0.00  0.00     0.045 A 
ATOM     18  C   UNL d   1      -2.683  -2.148  -1.609  0.00  0.00     0.050 A 
ATOM     19  C   UNL d   1      -3.995  -1.728  -1.386  0.00  0.00     0.032 A 
ATOM     20  C   UNL d   1      -4.294  -0.880  -0.314  0.00  0.00     0.050 A 
ATOM     21  C   UNL d   1      -3.245  -0.449   0.528  0.00  0.00     0.045 A 
BRANCH  18  22
ATOM     22  C   UNL d   1      -2.322  -3.009  -2.793  0.00  0.00     0.417 C 
ATOM     23  F   UNL d   1      -3.386  -3.292  -3.596  0.00  0.00    -0.166 F 
ATOM     24  F   UNL d   1      -1.402  -2.409  -3.601  0.00  0.00    -0.166 F 
ATOM     25  F   UNL d   1      -1.789  -4.209  -2.440  0.00  0.00    -0.166 F 
ENDBRANCH  18  22
BRANCH  20  26
ATOM     26  C   UNL d   1      -5.717  -0.429  -0.084  0.00  0.00     0.417 C 
ATOM     27  F   UNL d   1      -6.563  -0.792  -1.091  0.00  0.00    -0.166 F 
ATOM     28  F   UNL d   1      -6.257  -0.942   1.055  0.00  0.00    -0.166 F 
ATOM     29  F   UNL d   1      -5.829   0.924   0.018  0.00  0.00    -0.166 F 
ENDBRANCH  20  26
ENDBRANCH  14  16
ENDBRANCH   1  14
BRANCH   1  30
ATOM     30  C   UNL d   1       0.978  -2.007   1.352  0.00  0.00     0.033 A 
ATOM     31  N   UNL d   1       1.161  -2.835   0.289  0.00  0.00    -0.367 N 
ATOM     32  C   UNL d   1       1.640  -4.073   0.520  0.00  0.00     0.088 A 
ATOM     33  HN  UNL d   1       0.941  -2.527  -0.658  1.00  0.00     0.165 HD
ATOM     34  C   UNL d   1       1.965  -4.546   1.774  0.00  0.00     0.017 A 
ATOM     35  C   UNL d   1       1.744  -3.711   2.864  0.00  0.00     0.003 A 
ATOM     36  C   UNL d   1       1.229  -2.432   2.659  0.00  0.00     0.027 A 
ENDBRANCH   1  30
TORSDOF 10
