REMARK  0 active torsions:
REMARK  status: ('A' for Active; 'I' for Inactive)
ROOT
ATOM      1  C   UNL d   1       2.291   0.012   0.032  0.00  0.00     0.166 A 
ATOM      2  N   UNL d   1       1.594  -1.116   0.017  0.00  0.00    -0.333 N 
ATOM      3  HN  UNL d   1       1.949  -2.072   0.002  1.00  0.00     0.168 HD
ATOM      4  O   UNL d   1       1.506   1.145   0.058  0.00  0.00    -0.290 OA
ATOM      5  C   UNL d   1       0.285  -0.705   0.025  0.00  0.00     0.069 A 
ATOM      6  C   UNL d   1       3.729   0.045   0.008  0.00  0.00     0.056 A 
ATOM      7  C   UNL d   1       0.229   0.676   0.048  0.00  0.00     0.104 A 
ATOM      8  S   UNL d   1       4.597   1.522   0.061  0.00  0.00    -0.098 SA
ATOM      9  C   UNL d   1      -0.913  -1.432   0.011  0.00  0.00     0.039 A 
ATOM     10  C   UNL d   1       4.587  -1.037  -0.065  0.00  0.00     0.024 A 
ATOM     11  C   UNL d   1       6.105   0.719  -0.022  0.00  0.00     0.050 A 
ATOM     12  C   UNL d   1       5.958  -0.648  -0.086  0.00  0.00     0.009 A 
ATOM     13  C   UNL d   1      -0.941   1.423   0.054  0.00  0.00     0.040 A 
ATOM     14  C   UNL d   1      -2.130  -0.724   0.016  0.00  0.00    -0.060 A 
ATOM     15  C   UNL d   1      -2.131   0.683   0.035  0.00  0.00     0.009 A 
ATOM     16  C   UNL d   1      -3.438  -1.464  -0.000  0.00  0.00     0.048 C 
ENDROOT
TORSDOF 0
