REMARK  6 active torsions:
REMARK  status: ('A' for Active; 'I' for Inactive)
REMARK    1  A    between atoms: C_3  and  C_1 
REMARK    2  A    between atoms: C_4  and  C_2 
REMARK    3  A    between atoms: C_6  and  C_3 
REMARK    4  A    between atoms: C_7  and  C_3 
REMARK    5  A    between atoms: O_14  and  C_4 
REMARK    6  A    between atoms: O_15  and  C_12 
ROOT
ATOM      1  C   UNL d   1       1.433  -0.267   0.136  0.00  0.00    -0.023 A 
ATOM      2  C   UNL d   1       0.561  -1.339  -0.158  0.00  0.00     0.047 A 
ATOM      3  C   UNL d   1       0.879   1.026   0.138  0.00  0.00     0.012 A 
ATOM      4  C   UNL d   1      -0.825  -1.127  -0.315  0.00  0.00     0.055 A 
ATOM      5  C   UNL d   1      -1.357   0.154  -0.240  0.00  0.00     0.069 A 
ATOM      6  C   UNL d   1      -0.492   1.229  -0.048  0.00  0.00     0.037 A 
ENDROOT
BRANCH   1   7
ATOM      7  C   UNL d   1       2.905  -0.470   0.498  0.00  0.00     0.158 C 
BRANCH   7   8
ATOM      8  C   UNL d   1       3.800  -0.565  -0.726  0.00  0.00     0.138 C 
ATOM      9  O   UNL d   1       4.323  -1.642  -1.030  0.00  0.00    -0.297 OA
ATOM     10  C   UNL d   1       4.006   0.634  -1.612  0.00  0.00     0.092 C 
ENDBRANCH   7   8
BRANCH   7  11
ATOM     11  C   UNL d   1       3.432   0.537   1.513  0.00  0.00     0.138 C 
ATOM     12  O   UNL d   1       3.917   1.617   1.169  0.00  0.00    -0.297 OA
ATOM     13  C   UNL d   1       3.247   0.220   2.975  0.00  0.00     0.092 C 
ENDBRANCH   7  11
ENDBRANCH   1   7
BRANCH   2  14
ATOM     14  C   UNL d   1       0.979  -2.756  -0.234  0.00  0.00     0.176 C 
ATOM     15  O   UNL d   1       0.454  -3.615   0.458  0.00  0.00    -0.646 OA
BRANCH  14  16
ATOM     16  O   UNL d   1       1.875  -3.026  -1.196  0.00  0.00    -0.773 OA
ATOM     17  H   UNL d   1       2.267  -2.289  -1.700  0.00  0.00     0.167 HD
ENDBRANCH  14  16
ENDBRANCH   2  14
BRANCH   5  18
ATOM     18  O   UNL d   1      -2.677   0.490  -0.344  0.00  0.00    -0.356 OA
ATOM     19  C   UNL d   1      -3.620  -0.576  -0.340  0.00  0.00     0.210 C 
ENDBRANCH   5  18
TORSDOF 6
