REMARK  3 active torsions:
REMARK  status: ('A' for Active; 'I' for Inactive)
REMARK    1  A    between atoms: C_2  and  C_1 
REMARK       I    between atoms: N_3  and  C_1 
REMARK    2  A    between atoms: C_11  and  N_3 
REMARK    3  A    between atoms: C_5  and  C_6 
ROOT
ATOM      1  C   UNL d   1      -4.008   0.829   1.250  0.00  0.00    -0.051 A 
ATOM      2  C   UNL d   1      -1.166   0.945   1.041  0.00  0.00     0.035 A 
ATOM      3  C   UNL d   1      -3.312   2.047   1.312  0.00  0.00     0.010 A 
ATOM      4  C   UNL d   1      -3.238  -0.335   1.102  0.00  0.00     0.010 A 
ATOM      5  C   UNL d   1      -1.917   2.104   1.211  0.00  0.00     0.030 A 
ATOM      6  C   UNL d   1      -1.839  -0.278   0.989  0.00  0.00     0.030 A 
ENDROOT
BRANCH   2   7
ATOM      7  N   UNL d   1       0.237   0.944   0.880  0.00  0.00    -0.323 N 
ATOM      8  C   UNL d   1       1.095   2.019   1.058  0.00  0.00     0.263 C 
ATOM      9  O   UNL d   1       0.751   3.106   1.519  0.00  0.00    -0.267 OA
ATOM     10  H   UNL d   1       0.670   0.067   0.615  0.00  0.00     0.169 HD
BRANCH   8  11
ATOM     11  C   UNL d   1       2.489   1.793   0.676  0.00  0.00     0.072 A 
ATOM     12  S   UNL d   1       3.049   0.341  -0.037  0.00  0.00    -0.097 SA
ATOM     13  C   UNL d   1       4.647   0.943  -0.172  0.00  0.00     0.050 A 
ATOM     14  C   UNL d   1       4.761   2.221   0.322  0.00  0.00     0.009 A 
ATOM     15  C   UNL d   1       3.518   2.708   0.812  0.00  0.00     0.025 A 
ENDBRANCH   8  11
ENDBRANCH   2   7
BRANCH   1  16
ATOM     16  C   UNL d   1      -5.545   0.825   1.312  0.00  0.00    -0.024 C 
ATOM     17  C   UNL d   1      -6.168  -0.584   1.215  0.00  0.00     0.019 C 
ATOM     18  C   UNL d   1      -6.024   1.450   2.641  0.00  0.00     0.019 C 
ATOM     19  C   UNL d   1      -6.109   1.655   0.136  0.00  0.00     0.019 C 
ENDBRANCH   1  16
TORSDOF 3
