REMARK  6 active torsions:
REMARK  status: ('A' for Active; 'I' for Inactive)
REMARK    1  A    between atoms: C_20  and  N_1 
REMARK    2  A    between atoms: N_2  and  C_19 
REMARK    3  A    between atoms: C_19  and  C_35 
REMARK    4  A    between atoms: C_34  and  C_20 
REMARK    5  A    between atoms: N_25  and  C_34 
REMARK    6  A    between atoms: C_35  and  N_25 
ROOT
ATOM      1  N   UNL d   1       5.781  -1.502   0.555  0.00  0.00     0.086 N 
ATOM      2  H   UNL d   1       6.025  -1.152   1.483  0.00  0.00     0.316 HD
ENDROOT
BRANCH   1   3
ATOM      3  C   UNL d   1       4.323  -1.380   0.368  0.00  0.00     0.290 C 
BRANCH   3   4
ATOM      4  C   UNL d   1       3.488  -2.275   1.302  0.00  0.00     0.165 C 
BRANCH   4   5
ATOM      5  N   UNL d   1       2.050  -2.194   1.083  0.00  0.00    -0.278 N 
ATOM      6  C   UNL d   1       1.547  -2.783  -0.079  0.00  0.00     0.261 A 
ATOM      7  C   UNL d   1       0.078  -2.899  -0.186  0.00  0.00     0.044 A 
ATOM      8  O   UNL d   1       2.243  -3.195  -1.002  0.00  0.00    -0.267 OA
ATOM      9  C   UNL d   1      -0.482  -3.571  -1.281  0.00  0.00     0.018 A 
ATOM     10  C   UNL d   1      -0.734  -2.351   0.813  0.00  0.00     0.005 A 
ATOM     11  C   UNL d   1      -1.863  -3.699  -1.384  0.00  0.00     0.002 A 
ATOM     12  C   UNL d   1      -2.687  -3.150  -0.401  0.00  0.00     0.012 A 
ATOM     13  C   UNL d   1      -2.139  -2.471   0.701  0.00  0.00    -0.024 A 
ATOM     14  C   UNL d   1      -2.957  -1.913   1.696  0.00  0.00     0.012 A 
ATOM     15  C   UNL d   1      -2.403  -1.249   2.790  0.00  0.00     0.002 A 
ATOM     16  C   UNL d   1      -1.020  -1.142   2.907  0.00  0.00     0.018 A 
ATOM     17  C   UNL d   1      -0.192  -1.693   1.923  0.00  0.00     0.044 A 
ATOM     18  C   UNL d   1       1.276  -1.610   2.082  0.00  0.00     0.261 A 
ATOM     19  O   UNL d   1       1.739  -1.057   3.077  0.00  0.00    -0.267 OA
ENDBRANCH   4   5
ENDBRANCH   3   4
ENDBRANCH   1   3
BRANCH   1  20
ATOM     20  C   UNL d   1       6.284  -2.883   0.428  0.00  0.00     0.290 C 
BRANCH  20  21
ATOM     21  C   UNL d   1       5.994  -3.551  -0.930  0.00  0.00     0.165 C 
BRANCH  21  22
ATOM     22  N   UNL d   1       6.328  -4.971  -0.945  0.00  0.00    -0.278 N 
ATOM     23  C   UNL d   1       5.346  -5.870  -0.531  0.00  0.00     0.261 C 
ATOM     24  C   UNL d   1       5.637  -7.307  -0.713  0.00  0.00     0.044 A 
ATOM     25  O   UNL d   1       4.284  -5.542  -0.007  0.00  0.00    -0.267 OA
ATOM     26  C   UNL d   1       4.629  -8.253  -0.485  0.00  0.00     0.018 A 
ATOM     27  C   UNL d   1       6.917  -7.703  -1.111  0.00  0.00     0.005 A 
ATOM     28  C   UNL d   1       4.897  -9.607  -0.654  0.00  0.00     0.002 A 
ATOM     29  C   UNL d   1       6.173 -10.019  -1.040  0.00  0.00     0.012 A 
ATOM     30  C   UNL d   1       7.193  -9.082  -1.268  0.00  0.00    -0.024 A 
ATOM     31  C   UNL d   1       8.484  -9.483  -1.650  0.00  0.00     0.012 A 
ATOM     32  C   UNL d   1       9.488  -8.544  -1.875  0.00  0.00     0.002 A 
ATOM     33  C   UNL d   1       9.213  -7.186  -1.728  0.00  0.00     0.018 A 
ATOM     34  C   UNL d   1       7.931  -6.771  -1.354  0.00  0.00     0.044 A 
ATOM     35  C   UNL d   1       7.640  -5.323  -1.245  0.00  0.00     0.261 C 
ATOM     36  O   UNL d   1       8.546  -4.512  -1.410  0.00  0.00    -0.267 OA
ENDBRANCH  21  22
ENDBRANCH  20  21
ENDBRANCH   1  20
TORSDOF 6
