REMARK  4 active torsions:
REMARK  status: ('A' for Active; 'I' for Inactive)
REMARK    1  A    between atoms: C_2  and  C_1 
REMARK       I    between atoms: N_12  and  C_2 
REMARK    2  A    between atoms: C_17  and  C_5 
REMARK    3  A    between atoms: C_7  and  N_13 
REMARK    4  A    between atoms: C_8  and  C_9 
ROOT
ATOM      1  C   UNL d   1      -2.801  -1.262   0.013  0.00  0.00     0.256 C 
ATOM      2  N   UNL d   1      -3.998  -0.550   0.095  0.00  0.00    -0.345 N 
ATOM      3  N   UNL d   1      -6.246   1.099   0.567  0.00  0.00    -0.363 N 
ATOM      4  O   UNL d   1      -2.500  -2.092   0.869  0.00  0.00    -0.267 OA
ATOM      5  C   UNL d   1      -4.645   0.197  -1.000  0.00  0.00     0.146 C 
ATOM      6  C   UNL d   1      -4.914  -0.840   1.217  0.00  0.00     0.146 C 
ATOM      7  C   UNL d   1      -5.641   0.431   1.727  0.00  0.00     0.144 C 
ATOM      8  C   UNL d   1      -5.267   1.494  -0.453  0.00  0.00     0.144 C 
ENDROOT
BRANCH   1   9
ATOM      9  C   UNL d   1      -1.917  -1.049  -1.136  0.00  0.00     0.063 A 
ATOM     10  C   UNL d   1      -1.174  -2.085  -1.789  0.00  0.00     0.053 A 
ATOM     11  C   UNL d   1      -0.437  -1.496  -2.792  0.00  0.00     0.062 A 
ATOM     12  O   UNL d   1      -0.675  -0.157  -2.793  0.00  0.00    -0.318 OA
ATOM     13  C   UNL d   1      -1.517   0.125  -1.764  0.00  0.00     0.065 A 
ATOM     14  C   UNL d   1      -1.756   1.572  -1.576  0.00  0.00     0.077 C 
BRANCH  11  15
ATOM     15  C   UNL d   1       0.564  -1.976  -3.807  0.00  0.00    -0.002 C 
ATOM     16  C   UNL d   1       0.860  -3.475  -3.634  0.00  0.00     0.021 C 
ATOM     17  C   UNL d   1       0.021  -1.735  -5.226  0.00  0.00     0.021 C 
ATOM     18  C   UNL d   1       1.876  -1.188  -3.623  0.00  0.00     0.021 C 
ENDBRANCH  11  15
ENDBRANCH   1   9
BRANCH   3  19
ATOM     19  C   UNL d   1      -7.403   1.836   0.706  0.00  0.00     0.125 A 
ATOM     20  N   UNL d   1      -7.683   2.368   1.921  0.00  0.00    -0.350 N 
ATOM     21  C   UNL d   1      -8.831   3.076   2.074  0.00  0.00     0.106 A 
ATOM     22  HN  UNL d   1      -7.043   2.239   2.705  1.00  0.00     0.166 HD
ATOM     23  C   UNL d   1      -9.754   3.290   1.062  0.00  0.00     0.065 A 
ATOM     24  C   UNL d   1      -9.478   2.726  -0.180  0.00  0.00     0.045 A 
ATOM     25  C   UNL d   1      -8.314   1.986  -0.361  0.00  0.00     0.078 A 
ATOM     26 CL   UNL d   1      -8.139   1.183  -1.888  0.00  0.00    -0.080 Cl
BRANCH  23  27
ATOM     27  C   UNL d   1     -11.003   4.072   1.314  0.00  0.00     0.418 C 
ATOM     28  F   UNL d   1     -11.795   4.185   0.210  0.00  0.00    -0.166 F 
ATOM     29  F   UNL d   1     -11.784   3.512   2.276  0.00  0.00    -0.166 F 
ATOM     30  F   UNL d   1     -10.750   5.344   1.721  0.00  0.00    -0.166 F 
ENDBRANCH  23  27
ENDBRANCH   3  19
TORSDOF 4
