REMARK  6 active torsions:
REMARK  status: ('A' for Active; 'I' for Inactive)
REMARK    1  A    between atoms: C_5  and  C_1 
REMARK    2  A    between atoms: S_18  and  C_6 
REMARK    3  A    between atoms: C_11  and  C_13 
REMARK    4  A    between atoms: C_14  and  C_15 
REMARK    5  A    between atoms: C_15  and  C_21 
REMARK    6  A    between atoms: C_21  and  S_18 
ROOT
ATOM      1  C   UNL d   1      -0.238  -1.048  -0.017  0.00  0.00     0.177 A 
ATOM      2  O   UNL d   1      -1.137  -0.039   0.228  0.00  0.00    -0.267 OA
ATOM      3  N   UNL d   1       0.988  -0.590  -0.174  0.00  0.00    -0.277 N 
ATOM      4  HN  UNL d   1       1.823  -1.143  -0.369  1.00  0.00     0.189 HD
ATOM      5  C   UNL d   1      -0.333   1.072   0.215  0.00  0.00     0.204 A 
ATOM      6  N   UNL d   1       0.926   0.774  -0.026  0.00  0.00    -0.272 N 
ATOM      7  HN  UNL d   1       1.705   1.430  -0.090  1.00  0.00     0.189 HD
ENDROOT
BRANCH   1   8
ATOM      8  C   UNL d   1      -0.745  -2.418  -0.059  0.00  0.00     0.039 A 
ATOM      9  C   UNL d   1       0.106  -3.527  -0.171  0.00  0.00     0.020 A 
ATOM     10  N   UNL d   1      -0.352  -4.811  -0.225  0.00  0.00    -0.355 N 
ATOM     11  C   UNL d   1       1.603  -3.404  -0.238  0.00  0.00     0.069 C 
ATOM     12  C   UNL d   1      -1.691  -5.044  -0.165  0.00  0.00     0.117 A 
ATOM     13  HN  UNL d   1       0.303  -5.588  -0.309  1.00  0.00     0.166 HD
ATOM     14  C   UNL d   1      -2.599  -3.996  -0.044  0.00  0.00     0.035 A 
ATOM     15  C   UNL d   1      -2.120  -2.684   0.009  0.00  0.00     0.020 A 
BRANCH  12  16
ATOM     16  C   UNL d   1      -2.208  -6.476  -0.235  0.00  0.00     0.432 C 
ATOM     17  F   UNL d   1      -1.234  -7.423  -0.350  0.00  0.00    -0.165 F 
ATOM     18  F   UNL d   1      -2.934  -6.823   0.868  0.00  0.00    -0.165 F 
ATOM     19  F   UNL d   1      -3.044  -6.674  -1.297  0.00  0.00    -0.165 F 
ENDBRANCH  12  16
ENDBRANCH   1   8
BRANCH   5  20
ATOM     20  S   UNL d   1      -0.922   2.679   0.501  0.00  0.00    -0.077 SA
BRANCH  20  21
ATOM     21  C   UNL d   1       0.651   3.600   0.449  0.00  0.00     0.167 C 
BRANCH  21  22
ATOM     22  C   UNL d   1       0.477   5.082   0.779  0.00  0.00     0.175 C 
ATOM     23  O   UNL d   1      -0.613   5.546   1.123  0.00  0.00    -0.291 OA
BRANCH  22  24
ATOM     24  C   UNL d   1       1.655   5.948   0.682  0.00  0.00     0.051 A 
ATOM     25  S   UNL d   1       3.213   5.361   0.275  0.00  0.00    -0.098 SA
ATOM     26  C   UNL d   1       3.909   6.919   0.368  0.00  0.00     0.050 A 
ATOM     27  C   UNL d   1       2.983   7.876   0.714  0.00  0.00     0.009 A 
ATOM     28  C   UNL d   1       1.687   7.315   0.901  0.00  0.00     0.023 A 
ENDBRANCH  22  24
ENDBRANCH  21  22
ENDBRANCH  20  21
ENDBRANCH   5  20
TORSDOF 6
