REMARK  5 active torsions:
REMARK  status: ('A' for Active; 'I' for Inactive)
REMARK    1  A    between atoms: C_8  and  C_2 
REMARK    2  A    between atoms: S_11  and  C_5 
REMARK    3  A    between atoms: C_9  and  C_10 
REMARK    4  A    between atoms: C_19  and  S_11 
REMARK    5  A    between atoms: C_17  and  C_19 
ROOT
ATOM      1  N   UNL d   1       0.654  -0.041  -0.552  0.00  0.00    -0.315 N 
ATOM      2  C   UNL d   1      -0.084   1.038  -0.098  0.00  0.00     0.134 A 
ATOM      3  N   UNL d   1      -1.200   0.562   0.437  0.00  0.00    -0.283 N 
ATOM      4  HN  UNL d   1      -1.913   1.118   0.910  1.00  0.00     0.188 HD
ATOM      5  C   UNL d   1      -0.136  -1.143  -0.360  0.00  0.00     0.162 A 
ATOM      6  N   UNL d   1      -1.241  -0.798   0.253  0.00  0.00    -0.278 N 
ATOM      7  HN  UNL d   1      -1.993  -1.424   0.540  1.00  0.00     0.189 HD
ATOM      8  C   UNL d   1       1.994  -0.052  -1.079  0.00  0.00     0.160 C 
ENDROOT
BRANCH   2   9
ATOM      9  C   UNL d   1       0.278   2.456  -0.148  0.00  0.00     0.009 A 
ATOM     10  C   UNL d   1       0.949   3.024  -1.236  0.00  0.00     0.016 A 
ATOM     11  C   UNL d   1       1.310   4.375  -1.233  0.00  0.00     0.009 A 
ATOM     12  C   UNL d   1       0.978   5.227  -0.165  0.00  0.00    -0.051 A 
ATOM     13  C   UNL d   1       0.248   4.664   0.894  0.00  0.00     0.009 A 
ATOM     14  C   UNL d   1      -0.094   3.304   0.902  0.00  0.00     0.016 A 
BRANCH  12  15
ATOM     15  C   UNL d   1       1.418   6.702  -0.187  0.00  0.00    -0.024 C 
ATOM     16  C   UNL d   1       0.928   7.515   1.032  0.00  0.00     0.019 C 
ATOM     17  C   UNL d   1       2.961   6.773  -0.197  0.00  0.00     0.019 C 
ATOM     18  C   UNL d   1       0.875   7.404  -1.450  0.00  0.00     0.019 C 
ENDBRANCH  12  15
ENDBRANCH   2   9
BRANCH   5  19
ATOM     19  S   UNL d   1       0.300  -2.736  -0.873  0.00  0.00    -0.089 SA
BRANCH  19  20
ATOM     20  C   UNL d   1      -1.343  -3.498  -1.003  0.00  0.00     0.108 C 
BRANCH  20  21
ATOM     21  C   UNL d   1      -1.189  -4.926  -1.438  0.00  0.00    -0.026 C 
ATOM     22  C   UNL d   1      -1.680  -5.432  -2.578  0.00  0.00     0.007 C 
ENDBRANCH  20  21
ENDBRANCH  19  20
ENDBRANCH   5  19
TORSDOF 5
