REMARK  4 active torsions:
REMARK  status: ('A' for Active; 'I' for Inactive)
REMARK    1  A    between atoms: S_15  and  C_3 
REMARK    2  A    between atoms: S_16  and  C_4 
REMARK    3  A    between atoms: C_19  and  S_15 
REMARK    4  A    between atoms: C_20  and  S_16 
ROOT
ATOM      1  N   UNL d   1      -3.219  -1.891  -3.442  0.00  0.00    -0.197 NA
ATOM      2  C   UNL d   1      -3.271  -2.238  -2.334  0.00  0.00     0.069 C 
ATOM      3  C   UNL d   1      -3.340  -2.700  -0.942  0.00  0.00     0.206 C 
ENDROOT
BRANCH   3   4
ATOM      4  S   UNL d   1      -1.724  -2.759  -0.120  0.00  0.00    -0.078 SA
BRANCH   4   5
ATOM      5  C   UNL d   1      -1.308  -1.080  -0.091  0.00  0.00     0.162 A 
ATOM      6  N   UNL d   1      -0.020  -0.671  -0.036  0.00  0.00    -0.241 N 
ATOM      7  N   UNL d   1       0.043   0.651  -0.042  0.00  0.00    -0.241 N 
ATOM      8  C   UNL d   1       1.323  -1.165  -0.048  0.00  0.00     0.206 A 
ATOM      9  C   UNL d   1       1.336   1.054  -0.024  0.00  0.00     0.162 A 
ATOM     10  C   UNL d   1      -1.303   1.139  -0.049  0.00  0.00     0.206 A 
ATOM     11  N   UNL d   1       2.224   0.076  -0.057  0.00  0.00    -0.347 N 
ATOM     12  HN  UNL d   1       3.243   0.133  -0.082  1.00  0.00     0.163 HD
ATOM     13  N   UNL d   1      -2.205  -0.107  -0.094  0.00  0.00    -0.347 N 
ATOM     14  C   UNL d   1      -1.603   1.988  -1.272  0.00  0.00     0.057 C 
ATOM     15  HN  UNL d   1      -3.223  -0.167  -0.120  1.00  0.00     0.163 HD
ATOM     16  C   UNL d   1       1.635  -1.970   1.204  0.00  0.00     0.057 C 
BRANCH   9  17
ATOM     17  S   UNL d   1       1.766   2.729   0.047  0.00  0.00    -0.078 SA
BRANCH  17  18
ATOM     18  C   UNL d   1       3.579   2.638   0.076  0.00  0.00     0.206 C 
ATOM     19  C   UNL d   1       4.145   2.031   1.291  0.00  0.00     0.069 C 
ATOM     20  N   UNL d   1       4.609   1.578   2.252  0.00  0.00    -0.197 NA
ENDBRANCH  17  18
ENDBRANCH   9  17
ENDBRANCH   4   5
ENDBRANCH   3   4
TORSDOF 4
