REMARK  2 active torsions:
REMARK  status: ('A' for Active; 'I' for Inactive)
REMARK    1  A    between atoms: S_3  and  C_1 
REMARK    2  A    between atoms: C_9  and  C_7 
ROOT
ATOM      1  C   UNL d   1       0.305   1.143   0.038  0.00  0.00     0.166 A 
ATOM      2  C   UNL d   1      -0.400  -0.042   0.016  0.00  0.00     0.113 A 
ATOM      3  N   UNL d   1       1.615   0.767   0.043  0.00  0.00    -0.288 N 
ATOM      4  N   UNL d   1       1.802  -0.563   0.072  0.00  0.00    -0.297 N 
ATOM      5  HN  UNL d   1       2.687  -1.066   0.134  1.00  0.00     0.187 HD
ATOM      6  C   UNL d   1       0.565  -1.083   0.001  0.00  0.00     0.082 A 
ATOM      7  C   UNL d   1      -1.820  -0.144   0.009  0.00  0.00     0.105 C 
ATOM      8  N   UNL d   1      -2.976  -0.223   0.033  0.00  0.00    -0.191 NA
ATOM      9  H   UNL d   1       2.428   1.382   0.029  0.00  0.00     0.188 HD
ENDROOT
BRANCH   1  10
ATOM     10  S   UNL d   1      -0.124   2.837  -0.001  0.00  0.00     0.190 S 
ATOM     11  O   UNL d   1       1.149   3.515   0.139  0.00  0.00    -0.221 OA
ATOM     12  O   UNL d   1      -0.950   2.965  -1.178  0.00  0.00    -0.221 OA
ATOM     13  C   UNL d   1      -1.098   3.097   1.456  0.00  0.00     0.168 C 
ENDBRANCH   1  10
BRANCH   6  14
ATOM     14  C   UNL d   1       0.361  -2.535  -0.080  0.00  0.00    -0.005 A 
ATOM     15  C   UNL d   1       1.265  -3.412   0.537  0.00  0.00     0.037 A 
ATOM     16  C   UNL d   1       1.084  -4.792   0.439  0.00  0.00     0.035 A 
ATOM     17 CL   UNL d   1       2.205  -5.859   1.191  0.00  0.00    -0.084 Cl
ATOM     18  C   UNL d   1       0.005  -5.318  -0.269  0.00  0.00     0.024 A 
ATOM     19  C   UNL d   1      -0.899  -4.459  -0.886  0.00  0.00     0.003 A 
ATOM     20  C   UNL d   1      -0.718  -3.076  -0.798  0.00  0.00     0.014 A 
ENDBRANCH   6  14
TORSDOF 2
