REMARK  2 active torsions:
REMARK  status: ('A' for Active; 'I' for Inactive)
REMARK    1  A    between atoms: C_10  and  N_1 
REMARK    2  A    between atoms: C_2  and  C_3 
ROOT
ATOM      1  N   UNL d   1      -0.577  -1.192   0.272  0.00  0.00    -0.297 N 
ATOM      2  C   UNL d   1       0.788  -1.335  -0.208  0.00  0.00     0.212 C 
ATOM      3  S   UNL d   1       1.533   0.319  -0.158  0.00  0.00    -0.127 SA
ATOM      4  C   UNL d   1      -1.104   0.105   0.167  0.00  0.00     0.235 C 
ATOM      5  C   UNL d   1      -0.063   1.131  -0.223  0.00  0.00     0.179 C 
ATOM      6  O   UNL d   1      -2.282   0.428   0.295  0.00  0.00    -0.272 OA
ENDROOT
BRANCH   2   7
ATOM      7  C   UNL d   1       1.619  -2.311   0.566  0.00  0.00     0.087 A 
ATOM      8  O   UNL d   1       1.774  -3.539  -0.022  0.00  0.00    -0.311 OA
ATOM      9  C   UNL d   1       2.618  -4.267   0.753  0.00  0.00     0.086 A 
ATOM     10  C   UNL d   1       3.027  -5.571   0.486  0.00  0.00     0.038 A 
ATOM     11  C   UNL d   1       3.040  -3.518   1.841  0.00  0.00     0.000 A 
ATOM     12  C   UNL d   1       3.959  -6.123   1.370  0.00  0.00     0.003 A 
ATOM     13  C   UNL d   1       4.434  -5.395   2.462  0.00  0.00     0.001 A 
ATOM     14  C   UNL d   1       3.977  -4.091   2.720  0.00  0.00     0.014 A 
ATOM     15  C   UNL d   1       2.361  -2.271   1.736  0.00  0.00     0.050 A 
ENDBRANCH   2   7
BRANCH   1  16
ATOM     16  C   UNL d   1      -1.446  -2.309   0.464  0.00  0.00     0.039 A 
ATOM     17  C   UNL d   1      -1.283  -3.505  -0.250  0.00  0.00     0.033 A 
ATOM     18  C   UNL d   1      -2.144  -4.588  -0.044  0.00  0.00     0.044 A 
ATOM     19  C   UNL d   1      -3.172  -4.481   0.882  0.00  0.00     0.116 A 
ATOM     20  C   UNL d   1      -3.362  -3.309   1.598  0.00  0.00     0.044 A 
ATOM     21  F   UNL d   1      -3.993  -5.520   1.080  0.00  0.00    -0.206 F 
ATOM     22  C   UNL d   1      -2.507  -2.223   1.384  0.00  0.00     0.033 A 
ENDBRANCH   1  16
TORSDOF 2
