REMARK  3 active torsions:
REMARK  status: ('A' for Active; 'I' for Inactive)
REMARK    1  A    between atoms: C_2  and  N_1 
REMARK    2  A    between atoms: C_4  and  N_7 
REMARK    3  A    between atoms: N_7  and  C_6 
ROOT
ATOM      1  C   UNL d   1       0.372   0.816   0.902  0.00  0.00     0.115 A 
ATOM      2  C   UNL d   1      -0.638   0.403   1.802  0.00  0.00     0.026 A 
ATOM      3  C   UNL d   1      -1.108   1.352   2.736  0.00  0.00     0.071 A 
ATOM      4  C   UNL d   1      -0.559   2.666   2.758  0.00  0.00     0.056 A 
ATOM      5  C   UNL d   1       0.913   2.104   0.919  0.00  0.00     0.039 A 
ATOM      6  N   UNL d   1      -2.079   1.042   3.630  0.00  0.00    -0.363 N 
ATOM      7  HN  UNL d   1      -2.417   1.746   4.287  1.00  0.00     0.165 HD
ATOM      8  C   UNL d   1       0.460   3.010   1.866  0.00  0.00     0.034 A 
ATOM      9  C   UNL d   1      -1.206  -0.899   1.860  0.00  0.00     0.017 A 
ATOM     10  C   UNL d   1      -2.595  -0.208   3.643  0.00  0.00     0.088 A 
ATOM     11  C   UNL d   1      -2.191  -1.206   2.786  0.00  0.00     0.018 A 
ENDROOT
BRANCH   4  12
ATOM     12  N   UNL d   1      -1.008   3.538   3.752  0.00  0.00    -0.379 N 
ATOM     13  H   UNL d   1      -1.794   3.082   4.232  0.00  0.00     0.160 HD
BRANCH  12  14
ATOM     14  C   UNL d   1      -1.053   5.004   3.790  0.00  0.00     0.031 C 
ATOM     15  C   UNL d   1      -1.251   5.690   2.418  0.00  0.00     0.035 C 
ATOM     16  C   UNL d   1      -1.391   7.215   2.589  0.00  0.00    -0.012 C 
ATOM     17  C   UNL d   1      -2.611   7.513   3.468  0.00  0.00     0.009 C 
ATOM     18  C   UNL d   1      -0.127   7.776   3.267  0.00  0.00     0.009 C 
ATOM     19  C   UNL d   1      -2.423   6.879   4.854  0.00  0.00    -0.012 C 
ATOM     20  C   UNL d   1      -2.276   5.364   4.687  0.00  0.00     0.035 C 
ATOM     21  C   UNL d   1      -1.150   7.424   5.517  0.00  0.00     0.009 C 
ATOM     22  C   UNL d   1       0.074   7.113   4.640  0.00  0.00    -0.012 C 
ATOM     23  C   UNL d   1       0.213   5.584   4.462  0.00  0.00     0.035 C 
ENDBRANCH  12  14
ENDBRANCH   4  12
BRANCH   1  24
ATOM     24  N   UNL d   1       0.951  -0.108  -0.057  0.00  0.00    -0.115 N 
ATOM     25  O   UNL d   1       0.181  -0.631  -0.873  0.00  0.00    -0.532 OA
ATOM     26  O   UNL d   1       2.174  -0.294  -0.004  0.00  0.00    -0.532 OA
ENDBRANCH   1  24
TORSDOF 3
