REMARK  4 active torsions:
REMARK  status: ('A' for Active; 'I' for Inactive)
REMARK    1  A    between atoms: C_8  and  N_1 
REMARK    2  A    between atoms: C_9  and  C_4 
REMARK    3  A    between atoms: C_10  and  C_8 
REMARK    4  A    between atoms: C_11  and  C_10 
ROOT
ATOM      1  N   UNL d   1      -1.531  -3.135  -0.344  0.00  0.00    -0.209 N 
ATOM      2  N   UNL d   1      -2.108  -3.006  -1.560  0.00  0.00    -0.268 N 
ATOM      3  HN  UNL d   1      -1.696  -2.721  -2.449  1.00  0.00     0.190 HD
ATOM      4  C   UNL d   1      -3.372  -3.358  -1.274  0.00  0.00     0.144 A 
ATOM      5  N   UNL d   1      -3.547  -3.652   0.058  0.00  0.00    -0.266 N 
ATOM      6  HN  UNL d   1      -4.415  -3.948   0.505  1.00  0.00     0.186 HD
ATOM      7  N   UNL d   1      -2.374  -3.475   0.650  0.00  0.00    -0.002 NA
ENDROOT
BRANCH   1   8
ATOM      8  C   UNL d   1      -0.280  -2.463  -0.056  0.00  0.00     0.251 C 
BRANCH   8   9
ATOM      9  C   UNL d   1       0.897  -3.399  -0.010  0.00  0.00     0.180 C 
ATOM     10  O   UNL d   1       0.789  -4.622  -0.033  0.00  0.00    -0.290 OA
BRANCH   9  11
ATOM     11  C   UNL d   1       2.265  -2.790   0.073  0.00  0.00     0.012 A 
ATOM     12  C   UNL d   1       3.382  -3.638   0.059  0.00  0.00     0.027 A 
ATOM     13  C   UNL d   1       4.689  -3.118   0.078  0.00  0.00    -0.025 A 
ATOM     14  C   UNL d   1       5.815  -3.957   0.048  0.00  0.00     0.012 A 
ATOM     15  C   UNL d   1       4.877  -1.718   0.114  0.00  0.00    -0.026 A 
ATOM     16  C   UNL d   1       7.105  -3.422   0.032  0.00  0.00     0.001 A 
ATOM     17  C   UNL d   1       7.287  -2.043   0.050  0.00  0.00     0.001 A 
ATOM     18  C   UNL d   1       6.180  -1.195   0.097  0.00  0.00     0.012 A 
ATOM     19  C   UNL d   1       3.757  -0.878   0.159  0.00  0.00     0.013 A 
ATOM     20  C   UNL d   1       2.462  -1.406   0.142  0.00  0.00     0.016 A 
ENDBRANCH   9  11
ENDBRANCH   8   9
ENDBRANCH   1   8
BRANCH   4  21
ATOM     21  C   UNL d   1      -4.466  -3.330  -2.236  0.00  0.00     0.014 A 
ATOM     22  C   UNL d   1      -4.226  -2.992  -3.576  0.00  0.00     0.039 A 
ATOM     23  C   UNL d   1      -5.283  -2.915  -4.483  0.00  0.00     0.036 A 
ATOM     24 CL   UNL d   1      -4.970  -2.478  -6.118  0.00  0.00    -0.084 Cl
ATOM     25  C   UNL d   1      -6.588  -3.173  -4.077  0.00  0.00     0.047 A 
ATOM     26  C   UNL d   1      -6.828  -3.518  -2.750  0.00  0.00     0.036 A 
ATOM     27  C   UNL d   1      -5.781  -3.599  -1.829  0.00  0.00     0.039 A 
ATOM     28 CL   UNL d   1      -8.441  -3.831  -2.234  0.00  0.00    -0.084 Cl
ENDBRANCH   4  21
TORSDOF 4
