REMARK  1 active torsions:
REMARK  status: ('A' for Active; 'I' for Inactive)
REMARK    1  A    between atoms: C_6  and  N_1 
ROOT
ATOM      1  N   UNL d   1      -2.411  -0.756   0.068  0.00  0.00    -0.242 N 
ATOM      2  C   UNL d   1      -1.334  -1.608   0.175  0.00  0.00     0.268 A 
ATOM      3  C   UNL d   1      -2.005   0.529  -0.202  0.00  0.00     0.266 A 
ATOM      4  C   UNL d   1      -0.151  -0.773   0.105  0.00  0.00     0.064 A 
ATOM      5  C   UNL d   1      -0.546   0.528  -0.108  0.00  0.00     0.051 A 
ATOM      6  O   UNL d   1      -1.275  -2.822   0.211  0.00  0.00    -0.267 OA
ATOM      7  O   UNL d   1      -2.651   1.525  -0.472  0.00  0.00    -0.267 OA
ATOM      8  N   UNL d   1       2.117  -0.108   0.085  0.00  0.00    -0.374 N 
ATOM      9  HN  UNL d   1       3.111  -0.331   0.146  1.00  0.00     0.164 HD
ATOM     10  C   UNL d   1       1.178  -1.080   0.181  0.00  0.00     0.105 A 
ATOM     11  C   UNL d   1       0.366   1.556  -0.207  0.00  0.00     0.035 A 
ATOM     12  C   UNL d   1       1.695   1.178  -0.095  0.00  0.00     0.088 A 
ENDROOT
BRANCH   1  13
ATOM     13  C   UNL d   1      -3.749  -1.212   0.036  0.00  0.00     0.067 A 
ATOM     14  C   UNL d   1      -4.267  -2.075   1.023  0.00  0.00     0.063 A 
ATOM     15  C   UNL d   1      -5.562  -2.588   0.913  0.00  0.00     0.050 A 
ATOM     16 CL   UNL d   1      -3.414  -2.415   2.493  0.00  0.00    -0.082 Cl
ATOM     17  C   UNL d   1      -6.349  -2.244  -0.182  0.00  0.00     0.035 A 
ATOM     18  C   UNL d   1      -5.870  -1.360  -1.146  0.00  0.00     0.026 A 
ATOM     19 CL   UNL d   1      -7.930  -2.902  -0.336  0.00  0.00    -0.084 Cl
ATOM     20  C   UNL d   1      -4.581  -0.831  -1.028  0.00  0.00     0.034 A 
ENDBRANCH   1  13
TORSDOF 1
