REMARK  3 active torsions:
REMARK  status: ('A' for Active; 'I' for Inactive)
REMARK    1  A    between atoms: N_10  and  C_3 
REMARK    2  A    between atoms: N_13  and  C_6 
REMARK    3  A    between atoms: C_11  and  N_10 
ROOT
ATOM      1  N   UNL d   1      -0.149  -1.078   0.660  0.00  0.00    -0.166 N 
ATOM      2  HN  UNL d   1      -0.615  -1.875   1.094  1.00  0.00     0.187 HD
ATOM      3  C   UNL d   1      -0.832  -0.093   0.081  0.00  0.00     0.685 A 
ATOM      4  N   UNL d   1      -0.267   0.962  -0.497  0.00  0.00    -0.188 N 
ATOM      5  HN  UNL d   1      -0.808   1.722  -0.910  1.00  0.00     0.185 HD
ATOM      6  C   UNL d   1       1.166  -0.966   0.641  0.00  0.00     0.170 A 
ATOM      7  N   UNL d   1       1.834   0.011   0.050  0.00  0.00    -0.328 N 
ATOM      8  HN  UNL d   1       2.853   0.043   0.014  1.00  0.00     0.169 HD
ATOM      9  C   UNL d   1       1.062   0.945  -0.491  0.00  0.00     0.200 A 
ENDROOT
BRANCH   3  10
ATOM     10  N   UNL d   1      -2.229  -0.132   0.080  0.00  0.00    -0.192 N 
ATOM     11  H   UNL d   1      -2.588   0.695  -0.379  0.00  0.00     0.184 HD
BRANCH  10  12
ATOM     12  C   UNL d   1      -3.061  -1.261  -0.019  0.00  0.00     0.050 A 
ATOM     13  C   UNL d   1      -2.613  -2.488  -0.522  0.00  0.00     0.053 A 
ATOM     14  C   UNL d   1      -3.474  -3.584  -0.596  0.00  0.00     0.036 A 
ATOM     15 CL   UNL d   1      -2.903  -5.074  -1.243  0.00  0.00    -0.084 Cl
ATOM     16  C   UNL d   1      -4.790  -3.479  -0.157  0.00  0.00     0.024 A 
ATOM     17  C   UNL d   1      -5.250  -2.266   0.352  0.00  0.00     0.004 A 
ATOM     18  C   UNL d   1      -4.392  -1.163   0.412  0.00  0.00     0.030 A 
ENDBRANCH  10  12
ENDBRANCH   3  10
BRANCH   6  19
ATOM     19  N   UNL d   1       1.892  -1.970   1.248  0.00  0.00    -0.273 NA
ATOM     20  H   UNL d   1       1.333  -2.807   1.328  0.00  0.00     0.127 HD
ATOM     21  H   UNL d   1       2.807  -2.054   0.833  0.00  0.00     0.127 HD
ENDBRANCH   6  19
TORSDOF 3
