REMARK  7 active torsions:
REMARK  status: ('A' for Active; 'I' for Inactive)
REMARK    1  A    between atoms: C_3  and  C_1 
REMARK    2  A    between atoms: N_9  and  C_2 
REMARK    3  A    between atoms: O_17  and  C_3 
REMARK    4  A    between atoms: O_5  and  C_10 
REMARK    5  A    between atoms: C_7  and  O_5 
REMARK    6  A    between atoms: C_12  and  N_9 
REMARK    7  A    between atoms: C_22  and  O_17 
ROOT
ATOM      1  C   UNL d   1       2.973  -0.855   1.221  0.00  0.00     0.135 C 
ATOM      2  C   UNL d   1       2.272  -1.927   1.635  0.00  0.00     0.117 C 
ATOM      3  C   UNL d   1       2.517  -0.006   0.181  0.00  0.00     0.107 C 
ATOM      4  N   UNL d   1       2.111   0.672  -0.666  0.00  0.00    -0.191 NA
ENDROOT
BRANCH   1   5
ATOM      5  C   UNL d   1       4.261  -0.575   1.906  0.00  0.00     0.305 C 
ATOM      6  O   UNL d   1       4.630  -1.128   2.934  0.00  0.00    -0.258 OA
BRANCH   5   7
ATOM      7  O   UNL d   1       4.957   0.374   1.232  0.00  0.00    -0.317 OA
BRANCH   7   8
ATOM      8  C   UNL d   1       6.202   0.789   1.820  0.00  0.00     0.174 C 
ATOM      9  C   UNL d   1       5.945   1.913   2.806  0.00  0.00     0.034 C 
ENDBRANCH   7   8
ENDBRANCH   5   7
ENDBRANCH   1   5
BRANCH   2  10
ATOM     10  N   UNL d   1       1.073  -2.432   1.181  0.00  0.00    -0.362 N 
ATOM     11  H   UNL d   1       0.613  -1.956   0.404  0.00  0.00     0.165 HD
BRANCH  10  12
ATOM     12  C   UNL d   1       0.298  -3.475   1.737  0.00  0.00     0.066 A 
ATOM     13  C   UNL d   1      -0.752  -4.051   0.990  0.00  0.00     0.102 A 
ATOM     14  C   UNL d   1      -1.550  -5.068   1.542  0.00  0.00     0.039 A 
ATOM     15  C   UNL d   1      -1.238  -5.611   2.784  0.00  0.00     0.003 A 
ATOM     16  C   UNL d   1      -0.165  -5.102   3.504  0.00  0.00     0.002 A 
ATOM     17  C   UNL d   1       0.582  -4.035   2.994  0.00  0.00     0.032 A 
BRANCH  13  18
ATOM     18  O   UNL d   1      -0.964  -3.574  -0.298  0.00  0.00    -0.307 OA
BRANCH  18  19
ATOM     19  C   UNL d   1      -1.418  -4.482  -1.237  0.00  0.00     0.098 A 
ATOM     20  C   UNL d   1      -2.518  -4.151  -2.037  0.00  0.00     0.069 A 
ATOM     21  C   UNL d   1      -3.057  -5.095  -2.916  0.00  0.00     0.050 A 
ATOM     22 CL   UNL d   1      -3.266  -2.599  -1.938  0.00  0.00    -0.081 Cl
ATOM     23  C   UNL d   1      -2.483  -6.362  -3.002  0.00  0.00     0.035 A 
ATOM     24  C   UNL d   1      -1.349  -6.681  -2.255  0.00  0.00     0.026 A 
ATOM     25 CL   UNL d   1      -3.184  -7.551  -4.028  0.00  0.00    -0.084 Cl
ATOM     26  C   UNL d   1      -0.800  -5.732  -1.392  0.00  0.00     0.041 A 
ENDBRANCH  18  19
ENDBRANCH  13  18
ENDBRANCH  10  12
ENDBRANCH   2  10
TORSDOF 7
