REMARK  4 active torsions:
REMARK  status: ('A' for Active; 'I' for Inactive)
REMARK    1  A    between atoms: C_3  and  C_1 
REMARK       I    between atoms: N_8  and  C_3 
REMARK    2  A    between atoms: C_10  and  C_5 
REMARK    3  A    between atoms: N_6  and  C_9 
REMARK    4  A    between atoms: C_18  and  N_8 
ROOT
ATOM      1  C   UNL d   1      -0.226  -1.247   0.115  0.00  0.00     0.064 A 
ATOM      2  C   UNL d   1      -1.510  -0.655   0.315  0.00  0.00     0.057 A 
ATOM      3  C   UNL d   1       0.644  -0.171  -0.016  0.00  0.00     0.065 A 
ATOM      4  C   UNL d   1      -1.355   0.714   0.226  0.00  0.00     0.087 A 
ATOM      5  O   UNL d   1      -0.039   1.006   0.035  0.00  0.00    -0.314 OA
ATOM      6  C   UNL d   1       2.111  -0.028  -0.176  0.00  0.00     0.077 C 
ENDROOT
BRANCH   1   7
ATOM      7  C   UNL d   1       0.175  -2.654   0.083  0.00  0.00     0.258 C 
ATOM      8  N   UNL d   1      -0.856  -3.563   0.262  0.00  0.00    -0.323 N 
ATOM      9  H   UNL d   1      -1.800  -3.203   0.251  0.00  0.00     0.169 HD
ATOM     10  O   UNL d   1       1.345  -2.966  -0.102  0.00  0.00    -0.267 OA
BRANCH   8  11
ATOM     11  C   UNL d   1      -0.722  -4.954   0.474  0.00  0.00     0.035 A 
ATOM     12  C   UNL d   1       0.513  -5.585   0.668  0.00  0.00     0.032 A 
ATOM     13  C   UNL d   1       0.588  -6.948   0.967  0.00  0.00     0.038 A 
ATOM     14  C   UNL d   1      -0.586  -7.696   1.070  0.00  0.00     0.103 A 
ATOM     15  C   UNL d   1      -1.830  -7.092   0.845  0.00  0.00     0.038 A 
ATOM     16  C   UNL d   1      -1.892  -5.724   0.551  0.00  0.00     0.032 A 
BRANCH  14  17
ATOM     17  N   UNL d   1      -0.508  -9.112   1.447  0.00  0.00    -0.116 N 
ATOM     18  O   UNL d   1       0.610  -9.591   1.674  0.00  0.00    -0.532 OA
ATOM     19  O   UNL d   1      -1.574  -9.743   1.528  0.00  0.00    -0.532 OA
ENDBRANCH  14  17
ENDBRANCH   8  11
ENDBRANCH   1   7
BRANCH   4  20
ATOM     20  C   UNL d   1      -2.276   1.843   0.297  0.00  0.00    -0.002 A 
ATOM     21  C   UNL d   1      -1.818   3.151   0.520  0.00  0.00     0.016 A 
ATOM     22  C   UNL d   1      -2.719   4.218   0.619  0.00  0.00     0.024 A 
ATOM     23  C   UNL d   1      -4.086   3.985   0.489  0.00  0.00     0.034 A 
ATOM     24  C   UNL d   1      -4.558   2.698   0.247  0.00  0.00     0.024 A 
ATOM     25 CL   UNL d   1      -5.198   5.288   0.631  0.00  0.00    -0.084 Cl
ATOM     26  C   UNL d   1      -3.656   1.634   0.151  0.00  0.00     0.016 A 
ENDBRANCH   4  20
TORSDOF 4
