REMARK  5 active torsions:
REMARK  status: ('A' for Active; 'I' for Inactive)
REMARK    1  A    between atoms: C_6  and  N_1 
REMARK    2  A    between atoms: N_9  and  C_6 
REMARK    3  A    between atoms: C_13  and  N_9 
REMARK    4  A    between atoms: C_14  and  C_10 
REMARK    5  A    between atoms: C_19  and  C_14 
ROOT
ATOM      1  C   UNL d   1       3.048   0.583  -0.846  0.00  0.00     0.230 C 
ENDROOT
BRANCH   1   2
ATOM      2  N   UNL d   1       1.671   0.877  -0.541  0.00  0.00    -0.267 N 
ATOM      3  C   UNL d   1       1.001   1.954  -1.051  0.00  0.00     0.262 A 
ATOM      4  C   UNL d   1      -0.371   1.865  -0.561  0.00  0.00     0.048 A 
ATOM      5  O   UNL d   1       1.405   2.842  -1.781  0.00  0.00    -0.267 OA
ATOM      6  C   UNL d   1      -1.451   2.700  -0.779  0.00  0.00     0.018 A 
ATOM      7  C   UNL d   1      -0.467   0.717   0.200  0.00  0.00     0.048 A 
ATOM      8  C   UNL d   1      -2.665   2.335  -0.191  0.00  0.00     0.001 A 
ATOM      9  C   UNL d   1      -2.767   1.163   0.588  0.00  0.00     0.001 A 
ATOM     10  C   UNL d   1      -1.655   0.337   0.791  0.00  0.00     0.018 A 
ATOM     11  C   UNL d   1       0.847   0.070   0.190  0.00  0.00     0.262 A 
ATOM     12  O   UNL d   1       1.074  -1.003   0.716  0.00  0.00    -0.267 OA
ENDBRANCH   1   2
BRANCH   1  13
ATOM     13  N   UNL d   1       3.865   1.340   0.085  0.00  0.00    -0.276 NA
ATOM     14  H   UNL d   1       3.369   2.162   0.414  0.00  0.00     0.129 HD
BRANCH  13  15
ATOM     15  C   UNL d   1       5.187   1.652  -0.250  0.00  0.00     0.009 A 
ATOM     16  C   UNL d   1       5.777   2.762   0.368  0.00  0.00     0.024 A 
ATOM     17  C   UNL d   1       7.123   3.090   0.170  0.00  0.00     0.009 A 
ATOM     18  C   UNL d   1       7.950   2.282  -0.613  0.00  0.00    -0.054 A 
ATOM     19  C   UNL d   1       7.367   1.167  -1.236  0.00  0.00     0.009 A 
ATOM     20  C   UNL d   1       6.009   0.853  -1.048  0.00  0.00     0.024 A 
BRANCH  18  21
ATOM     21  C   UNL d   1       9.448   2.538  -0.746  0.00  0.00     0.014 C 
ATOM     22  C   UNL d   1      10.065   3.074   0.559  0.00  0.00     0.015 C 
BRANCH  21  23
ATOM     23  C   UNL d   1       9.818   3.489  -1.900  0.00  0.00     0.004 C 
ATOM     24  C   UNL d   1       9.508   2.938  -3.285  0.00  0.00     0.006 C 
ENDBRANCH  21  23
ENDBRANCH  18  21
ENDBRANCH  13  15
ENDBRANCH   1  13
TORSDOF 5
