REMARK  3 active torsions:
REMARK  status: ('A' for Active; 'I' for Inactive)
REMARK    1  A    between atoms: N_3  and  C_1 
REMARK    2  A    between atoms: C_5  and  N_3 
REMARK    3  A    between atoms: C_11  and  C_5 
ROOT
ATOM      1  N   UNL d   1      -2.673  -3.665  -2.204  0.00  0.00    -0.195 NA
ATOM      2  C   UNL d   1      -2.070  -3.956  -1.253  0.00  0.00     0.089 C 
ATOM      3  C   UNL d   1      -1.288  -4.326  -0.038  0.00  0.00     0.223 C 
ENDROOT
BRANCH   3   4
ATOM      4  N   UNL d   1      -0.038  -3.549   0.100  0.00  0.00    -0.369 N 
ATOM      5  H   UNL d   1       0.674  -3.884  -0.546  0.00  0.00     0.161 HD
BRANCH   4   6
ATOM      6  C   UNL d   1      -0.069  -2.152   0.191  0.00  0.00     0.032 A 
ATOM      7  C   UNL d   1      -1.134  -1.436   0.751  0.00  0.00     0.053 A 
ATOM      8  C   UNL d   1      -1.089  -0.041   0.851  0.00  0.00     0.037 A 
ATOM      9 CL   UNL d   1      -2.433   0.806   1.516  0.00  0.00    -0.084 Cl
ATOM     10  C   UNL d   1       0.027   0.669   0.427  0.00  0.00     0.048 A 
ATOM     11  C   UNL d   1       1.112  -0.035  -0.078  0.00  0.00     0.037 A 
ATOM     12  C   UNL d   1       1.074  -1.428  -0.181  0.00  0.00     0.053 A 
ATOM     13 CL   UNL d   1       2.518   0.820  -0.587  0.00  0.00    -0.084 Cl
ENDBRANCH   4   6
ENDBRANCH   3   4
BRANCH   3  14
ATOM     14  C   UNL d   1      -0.920  -5.811   0.008  0.00  0.00    -0.022 A 
ATOM     15  C   UNL d   1      -0.748  -6.586  -1.154  0.00  0.00     0.010 A 
ATOM     16  C   UNL d   1      -0.431  -7.943  -1.068  0.00  0.00     0.001 A 
ATOM     17  C   UNL d   1      -0.259  -8.545   0.176  0.00  0.00     0.000 A 
ATOM     18  C   UNL d   1      -0.393  -7.788   1.337  0.00  0.00     0.001 A 
ATOM     19  C   UNL d   1      -0.715  -6.431   1.254  0.00  0.00     0.010 A 
ENDBRANCH   3  14
TORSDOF 3
