REMARK  6 active torsions:
REMARK  status: ('A' for Active; 'I' for Inactive)
REMARK    1  A    between atoms: C_2  and  S_1 
REMARK    2  A    between atoms: N_4  and  S_1 
REMARK    3  A    between atoms: C_6  and  C_3 
REMARK    4  A    between atoms: C_5  and  N_4 
REMARK    5  A    between atoms: O_15  and  C_6 
REMARK    6  A    between atoms: N_9  and  C_10 
ROOT
ATOM      1  N   UNL d   1       0.256   1.353   0.325  0.00  0.00    -0.179 NA
ATOM      2  H   UNL d   1       1.028   1.293  -0.341  0.00  0.00     0.146 HD
ENDROOT
BRANCH   1   3
ATOM      3  S   UNL d   1      -0.595  -0.101   0.389  0.00  0.00     0.247 S 
ATOM      4  O   UNL d   1      -0.606  -0.625  -0.962  0.00  0.00    -0.205 OA
ATOM      5  O   UNL d   1      -0.179  -0.911   1.511  0.00  0.00    -0.205 OA
BRANCH   3   6
ATOM      6  C   UNL d   1      -2.285   0.162   0.654  0.00  0.00     0.099 A 
ATOM      7  C   UNL d   1      -3.085   0.966  -0.136  0.00  0.00     0.101 A 
ATOM      8  S   UNL d   1      -4.713   0.934   0.425  0.00  0.00    -0.094 SA
ATOM      9  C   UNL d   1      -4.356  -0.207   1.643  0.00  0.00     0.052 A 
ATOM     10  C   UNL d   1      -3.018  -0.520   1.673  0.00  0.00     0.033 A 
BRANCH   7  11
ATOM     11  C   UNL d   1      -2.788   1.801  -1.285  0.00  0.00     0.184 C 
ATOM     12  O   UNL d   1      -3.276   2.903  -1.500  0.00  0.00    -0.646 OA
BRANCH  11  13
ATOM     13  O   UNL d   1      -1.927   1.238  -2.167  0.00  0.00    -0.772 OA
ATOM     14  H   UNL d   1      -1.622   0.321  -1.974  0.00  0.00     0.167 HD
ENDBRANCH  11  13
ENDBRANCH   7  11
ENDBRANCH   3   6
ENDBRANCH   1   3
BRANCH   1  15
ATOM     15  C   UNL d   1       0.725   1.887   1.573  0.00  0.00     0.049 A 
ATOM     16  C   UNL d   1       2.090   1.770   1.968  0.00  0.00     0.052 A 
ATOM     17  C   UNL d   1       2.418   2.382   3.196  0.00  0.00     0.031 A 
ATOM     18  C   UNL d   1       1.484   3.094   3.961  0.00  0.00     0.002 A 
ATOM     19  C   UNL d   1       0.171   3.211   3.529  0.00  0.00     0.002 A 
ATOM     20  C   UNL d   1      -0.213   2.594   2.344  0.00  0.00     0.027 A 
BRANCH  16  21
ATOM     21  N   UNL d   1       3.087   1.192   1.175  0.00  0.00    -0.379 N 
ATOM     22  C   UNL d   1       4.473   1.694   1.238  0.00  0.00     0.123 C 
ATOM     23  C   UNL d   1       5.392   0.693   1.942  0.00  0.00     0.020 C 
ATOM     24  C   UNL d   1       5.314  -0.679   1.280  0.00  0.00     0.003 C 
ATOM     25  C   UNL d   1       3.871  -1.159   1.245  0.00  0.00     0.020 C 
ATOM     26  C   UNL d   1       2.963  -0.138   0.567  0.00  0.00     0.123 C 
ENDBRANCH  16  21
ENDBRANCH   1  15
TORSDOF 6
