REMARK  3 active torsions:
REMARK  status: ('A' for Active; 'I' for Inactive)
REMARK    1  A    between atoms: N_5  and  C_1 
REMARK    2  A    between atoms: C_2  and  C_10 
REMARK    3  A    between atoms: C_10  and  N_5 
ROOT
ATOM      1  N   UNL d   1       0.185   0.625   0.911  0.00  0.00    -0.361 N 
ATOM      2  H   UNL d   1       0.697   1.287   1.478  0.00  0.00     0.162 HD
ENDROOT
BRANCH   1   3
ATOM      3  C   UNL d   1       0.882   0.039  -0.105  0.00  0.00     0.165 C 
ATOM      4  S   UNL d   1       0.268  -0.728  -1.444  0.00  0.00    -0.041 SA
ATOM      5  N   UNL d   1       2.226   0.120   0.061  0.00  0.00    -0.376 N 
ATOM      6  H   UNL d   1       2.807  -0.392  -0.597  0.00  0.00     0.158 HD
ATOM      7  H   UNL d   1       2.632   0.314   0.966  0.00  0.00     0.158 HD
ENDBRANCH   1   3
BRANCH   1   8
ATOM      8  C   UNL d   1      -1.262   0.759   0.943  0.00  0.00     0.187 C 
BRANCH   8   9
ATOM      9  C   UNL d   1      -1.668   1.438   2.199  0.00  0.00     0.070 A 
ATOM     10  O   UNL d   1      -1.750   2.801   2.154  0.00  0.00    -0.325 OA
ATOM     11  C   UNL d   1      -2.173   3.213   3.376  0.00  0.00     0.142 A 
ATOM     12  C   UNL d   1      -2.348   2.136   4.214  0.00  0.00     0.027 A 
ATOM     13  C   UNL d   1      -2.014   0.988   3.454  0.00  0.00     0.036 A 
ENDBRANCH   8   9
ENDBRANCH   1   8
TORSDOF 3
