REMARK  9 active torsions:
REMARK  status: ('A' for Active; 'I' for Inactive)
REMARK    1  A    between atoms: C_6  and  C_1 
REMARK    2  A    between atoms: N_19  and  C_4 
REMARK       I    between atoms: C_5  and  N_18 
REMARK       I    between atoms: N_7  and  C_5 
REMARK    3  A    between atoms: C_8  and  N_7 
REMARK    4  A    between atoms: N_18  and  C_25 
REMARK    5  A    between atoms: C_26  and  N_19 
REMARK    6  A    between atoms: C_27  and  C_22 
REMARK    7  A    between atoms: C_25  and  C_26 
REMARK    8  A    between atoms: C_28  and  C_27 
REMARK    9  A    between atoms: C_29  and  C_28 
ROOT
ATOM      1  C   UNL d   1       1.094   9.211   2.243  0.00  0.00     0.320 C 
ATOM      2  N   UNL d   1       1.943   9.562   1.222  0.00  0.00    -0.308 N 
ATOM      3  O   UNL d   1       0.354   8.234   2.257  0.00  0.00    -0.247 OA
ATOM      4  N   UNL d   1       1.228  10.077   3.311  0.00  0.00    -0.342 N 
ATOM      5  H   UNL d   1       2.726  10.129   1.501  0.00  0.00     0.170 HD
ATOM      6  H   UNL d   1       1.571  11.001   3.095  0.00  0.00     0.164 HD
ENDROOT
BRANCH   4   7
ATOM      7  C   UNL d   1       0.405   9.931   4.502  0.00  0.00     0.139 C 
BRANCH   7   8
ATOM      8  C   UNL d   1       1.185  10.204   5.798  0.00  0.00     0.115 C 
BRANCH   8   9
ATOM      9  N   UNL d   1       0.333   9.961   6.946  0.00  0.00    -0.263 NA
ATOM     10  H   UNL d   1      -0.573  10.415   6.962  0.00  0.00     0.130 HD
BRANCH   9  11
ATOM     11  C   UNL d   1       0.894  10.107   8.196  0.00  0.00     0.157 A 
ATOM     12  N   UNL d   1       0.035  10.398   9.178  0.00  0.00    -0.329 N 
ATOM     13  C   UNL d   1       0.517  10.493  10.445  0.00  0.00     0.120 A 
ATOM     14  HN  UNL d   1      -0.955  10.543   8.982  1.00  0.00     0.168 HD
ATOM     15  C   UNL d   1       1.854  10.317  10.725  0.00  0.00     0.051 A 
ATOM     16  C   UNL d   1       2.663  10.049   9.651  0.00  0.00     0.093 A 
ATOM     17  N   UNL d   1       2.208   9.945   8.389  0.00  0.00    -0.343 N 
ATOM     18  HN  UNL d   1       2.839   9.751   7.612  1.00  0.00     0.167 HD
BRANCH  13  19
ATOM     19  C   UNL d   1      -0.444  10.790  11.583  0.00  0.00     0.432 C 
ATOM     20  F   UNL d   1      -1.737  10.979  11.197  0.00  0.00    -0.165 F 
ATOM     21  F   UNL d   1      -0.096  11.917  12.274  0.00  0.00    -0.165 F 
ATOM     22  F   UNL d   1      -0.474   9.792  12.512  0.00  0.00    -0.165 F 
ENDBRANCH  13  19
ENDBRANCH   9  11
ENDBRANCH   8   9
ENDBRANCH   7   8
ENDBRANCH   4   7
BRANCH   2  23
ATOM     23  C   UNL d   1       2.053   8.895  -0.018  0.00  0.00     0.042 A 
ATOM     24  C   UNL d   1       3.315   8.761  -0.621  0.00  0.00    -0.035 A 
ATOM     25  C   UNL d   1       3.397   8.299  -1.948  0.00  0.00     0.016 A 
ATOM     26  C   UNL d   1       4.606   9.036   0.102  0.00  0.00     0.050 C 
ATOM     27  C   UNL d   1       2.249   7.955  -2.673  0.00  0.00    -0.058 A 
ATOM     28  C   UNL d   1       1.011   7.998  -2.021  0.00  0.00     0.009 A 
ATOM     29  C   UNL d   1       0.914   8.455  -0.701  0.00  0.00     0.031 A 
BRANCH  27  30
ATOM     30  C   UNL d   1       2.334   7.632  -4.146  0.00  0.00     0.038 C 
BRANCH  30  31
ATOM     31  C   UNL d   1       3.184   6.415  -4.524  0.00  0.00     0.004 C 
BRANCH  31  32
ATOM     32  C   UNL d   1       2.594   5.096  -4.028  0.00  0.00    -0.004 C 
ATOM     33  C   UNL d   1       3.444   3.914  -4.471  0.00  0.00     0.005 C 
ENDBRANCH  31  32
ENDBRANCH  30  31
ENDBRANCH  27  30
ENDBRANCH   2  23
TORSDOF 9
