REMARK  1 active torsions:
REMARK  status: ('A' for Active; 'I' for Inactive)
REMARK    1  A    between atoms: C_2  and  C_1 
REMARK       I    between atoms: N_6  and  C_2 
ROOT
ATOM      1  C   UNL d   1      -1.451  -0.205  -0.093  0.00  0.00     0.050 A 
ATOM      2  C   UNL d   1      -0.622  -1.339  -0.082  0.00  0.00     0.022 A 
ATOM      3  C   UNL d   1      -0.857   1.073  -0.055  0.00  0.00     0.042 A 
ATOM      4  C   UNL d   1       0.773  -1.182  -0.007  0.00  0.00     0.021 A 
ATOM      5  C   UNL d   1       0.526   1.213   0.009  0.00  0.00     0.035 A 
ATOM      6  I   UNL d   1      -1.286  -3.325  -0.269  0.00  0.00    -0.043 I 
ATOM      7  C   UNL d   1       1.345   0.090   0.039  0.00  0.00     0.025 A 
ATOM      8 CL   UNL d   1       1.230   2.782   0.045  0.00  0.00    -0.084 Cl
ENDROOT
BRANCH   1   9
ATOM      9  C   UNL d   1      -2.940  -0.201  -0.178  0.00  0.00     0.252 C 
ATOM     10  O   UNL d   1      -3.500   0.684  -0.818  0.00  0.00    -0.268 OA
ATOM     11  N   UNL d   1      -3.618  -1.170   0.522  0.00  0.00    -0.361 N 
ATOM     12  C   UNL d   1      -5.053  -1.308   0.452  0.00  0.00     0.149 C 
ATOM     13  H   UNL d   1      -3.095  -1.906   0.981  0.00  0.00     0.162 HD
ENDBRANCH   1   9
TORSDOF 1
