REMARK  3 active torsions:
REMARK  status: ('A' for Active; 'I' for Inactive)
REMARK       I    between atoms: N_3  and  C_1 
REMARK       I    between atoms: C_2  and  N_4 
REMARK    1  A    between atoms: C_13  and  N_3 
REMARK    2  A    between atoms: N_4  and  C_14 
REMARK    3  A    between atoms: C_6  and  C_5 
ROOT
ATOM      1  C   UNL d   1       2.254   2.500   4.472  0.00  0.00    -0.026 A 
ATOM      2  C   UNL d   1       1.442   1.369   4.660  0.00  0.00     0.014 A 
ATOM      3  C   UNL d   1       2.373   2.986   3.161  0.00  0.00     0.014 A 
ATOM      4  C   UNL d   1       0.916   1.234   2.297  0.00  0.00     0.034 A 
ATOM      5  C   UNL d   1       0.788   0.742   3.593  0.00  0.00     0.030 A 
ATOM      6  C   UNL d   1       1.716   2.361   2.089  0.00  0.00     0.030 A 
ENDROOT
BRANCH   1   7
ATOM      7  C   UNL d   1       2.948   3.129   5.616  0.00  0.00    -0.026 A 
ATOM      8  C   UNL d   1       3.070   4.521   5.744  0.00  0.00     0.014 A 
ATOM      9  C   UNL d   1       3.697   5.100   6.855  0.00  0.00     0.030 A 
ATOM     10  C   UNL d   1       4.218   4.304   7.881  0.00  0.00     0.034 A 
ATOM     11  C   UNL d   1       4.119   2.922   7.762  0.00  0.00     0.030 A 
ATOM     12  C   UNL d   1       3.500   2.346   6.644  0.00  0.00     0.014 A 
BRANCH  10  13
ATOM     13  N   UNL d   1       4.812   4.958   8.982  0.00  0.00    -0.328 N 
ATOM     14  C   UNL d   1       5.351   4.372  10.113  0.00  0.00     0.218 C 
ATOM     15  O   UNL d   1       5.411   3.173  10.366  0.00  0.00    -0.274 OA
ATOM     16  C   UNL d   1       5.899   5.377  11.097  0.00  0.00     0.117 C 
ATOM     17  H   UNL d   1       4.822   5.969   8.937  0.00  0.00     0.169 HD
ENDBRANCH  10  13
ENDBRANCH   1   7
BRANCH   4  18
ATOM     18  N   UNL d   1       0.303   0.639   1.174  0.00  0.00    -0.328 N 
ATOM     19  C   UNL d   1      -0.603  -0.408   1.179  0.00  0.00     0.218 C 
ATOM     20  O   UNL d   1      -1.122  -0.926   2.162  0.00  0.00    -0.274 OA
ATOM     21  C   UNL d   1      -0.957  -0.891  -0.205  0.00  0.00     0.117 C 
ATOM     22  H   UNL d   1       0.532   1.048   0.277  0.00  0.00     0.169 HD
ENDBRANCH   4  18
TORSDOF 3
