REMARK  3 active torsions:
REMARK  status: ('A' for Active; 'I' for Inactive)
REMARK    1  A    between atoms: C_26  and  N_5 
REMARK    2  A    between atoms: C_18  and  C_9 
REMARK    3  A    between atoms: C_14  and  C_15 
ROOT
ATOM      1  C   UNL d   1      -0.274  -1.336   0.011  0.00  0.00     0.123 A 
ATOM      2  C   UNL d   1      -0.456  -2.748   0.107  0.00  0.00     0.202 A 
ATOM      3  N   UNL d   1      -0.075  -3.469   1.135  0.00  0.00    -0.316 N 
ATOM      4  HN  UNL d   1       0.372  -3.152   1.995  1.00  0.00     0.169 HD
ATOM      5  N   UNL d   1      -1.049  -0.489  -0.742  0.00  0.00    -0.287 N 
ATOM      6  N   UNL d   1      -0.634   0.796  -0.705  0.00  0.00    -0.301 N 
ATOM      7  HN  UNL d   1      -1.029   1.594  -1.202  1.00  0.00     0.187 HD
ATOM      8  C   UNL d   1       0.660  -0.517   0.609  0.00  0.00     0.067 A 
ATOM      9  C   UNL d   1      -0.421  -4.756   0.780  0.00  0.00     0.154 A 
ATOM     10  C   UNL d   1       0.412   0.786   0.132  0.00  0.00     0.042 A 
ATOM     11  N   UNL d   1      -1.001  -4.837  -0.431  0.00  0.00    -0.241 N 
ATOM     12  HN  UNL d   1      -1.341  -5.669  -0.913  1.00  0.00     0.196 HD
ATOM     13  O   UNL d   1      -1.028  -3.518  -0.872  0.00  0.00    -0.215 OA
ATOM     14 BR   UNL d   1       2.042  -0.987   1.790  0.00  0.00    -0.046 Br
ATOM     15  C   UNL d   1       1.123   2.057   0.417  0.00  0.00     0.071 C 
ENDROOT
BRANCH   9  16
ATOM     16  C   UNL d   1      -0.183  -5.909   1.654  0.00  0.00     0.078 A 
ATOM     17  N   UNL d   1       0.224  -5.643   2.923  0.00  0.00    -0.362 N 
ATOM     18  C   UNL d   1       0.431  -6.688   3.757  0.00  0.00     0.104 A 
ATOM     19  HN  UNL d   1       0.370  -4.683   3.238  1.00  0.00     0.165 HD
ATOM     20  C   UNL d   1       0.253  -8.013   3.394  0.00  0.00     0.063 A 
ATOM     21  C   UNL d   1      -0.156  -8.272   2.082  0.00  0.00     0.020 A 
ATOM     22  C   UNL d   1      -0.378  -7.212   1.202  0.00  0.00     0.034 A 
BRANCH  20  23
ATOM     23  C   UNL d   1       0.485  -9.117   4.378  0.00  0.00     0.418 C 
ATOM     24  F   UNL d   1       0.868  -8.682   5.610  0.00  0.00    -0.166 F 
ATOM     25  F   UNL d   1      -0.628  -9.874   4.580  0.00  0.00    -0.166 F 
ATOM     26  F   UNL d   1       1.455  -9.982   3.970  0.00  0.00    -0.166 F 
ENDBRANCH  20  23
ENDBRANCH   9  16
BRANCH   5  27
ATOM     27  C   UNL d   1      -2.263  -0.784  -1.485  0.00  0.00     0.145 C 
ATOM     28  C   UNL d   1      -1.994  -1.061  -2.954  0.00  0.00     0.028 C 
ENDBRANCH   5  27
TORSDOF 3
