REMARK  4 active torsions:
REMARK  status: ('A' for Active; 'I' for Inactive)
REMARK    1  A    between atoms: C_8  and  C_3 
REMARK    2  A    between atoms: C_9  and  N_4 
REMARK    3  A    between atoms: C_10  and  C_9 
REMARK       I    between atoms: N_17  and  C_10 
REMARK    4  A    between atoms: N_18  and  N_17 
ROOT
ATOM      1  N   UNL d   1      -0.312  -1.235  -0.025  0.00  0.00    -0.268 N 
ATOM      2  HN  UNL d   1      -0.526  -2.231  -0.057  1.00  0.00     0.190 HD
ATOM      3  C   UNL d   1       0.878  -0.608   0.025  0.00  0.00     0.144 A 
ATOM      4  N   UNL d   1      -1.143  -0.171  -0.020  0.00  0.00    -0.207 N 
ATOM      5  N   UNL d   1       0.747   0.759   0.101  0.00  0.00    -0.266 N 
ATOM      6  HN  UNL d   1       1.506   1.438   0.165  1.00  0.00     0.186 HD
ATOM      7  N   UNL d   1      -0.550   1.027   0.076  0.00  0.00    -0.002 NA
ENDROOT
BRANCH   3   8
ATOM      8  C   UNL d   1       2.171  -1.280   0.011  0.00  0.00     0.014 A 
ATOM      9  C   UNL d   1       2.258  -2.667  -0.170  0.00  0.00     0.039 A 
ATOM     10  C   UNL d   1       3.501  -3.299  -0.183  0.00  0.00     0.036 A 
ATOM     11 CL   UNL d   1       3.589  -5.003  -0.409  0.00  0.00    -0.084 Cl
ATOM     12  C   UNL d   1       4.673  -2.566  -0.013  0.00  0.00     0.047 A 
ATOM     13  C   UNL d   1       4.590  -1.189   0.166  0.00  0.00     0.036 A 
ATOM     14  C   UNL d   1       3.353  -0.543   0.177  0.00  0.00     0.039 A 
ATOM     15 CL   UNL d   1       6.031  -0.272   0.377  0.00  0.00    -0.084 Cl
ENDBRANCH   3   8
BRANCH   4  16
ATOM     16  C   UNL d   1      -2.575  -0.322  -0.053  0.00  0.00     0.271 C 
BRANCH  16  17
ATOM     17  C   UNL d   1      -3.155  -0.492   1.326  0.00  0.00     0.252 C 
ATOM     18  O   UNL d   1      -4.239   0.007   1.639  0.00  0.00    -0.270 OA
ATOM     19  N   UNL d   1      -2.449  -1.320   2.193  0.00  0.00    -0.292 N 
ATOM     20  H   UNL d   1      -1.627  -1.841   1.876  0.00  0.00     0.183 HD
BRANCH  19  21
ATOM     21  N   UNL d   1      -2.978  -1.598   3.471  0.00  0.00    -0.247 NA
ATOM     22  H   UNL d   1      -3.964  -1.297   3.464  0.00  0.00     0.143 HD
ATOM     23  H   UNL d   1      -2.536  -0.964   4.143  0.00  0.00     0.143 HD
ENDBRANCH  19  21
ENDBRANCH  16  17
ENDBRANCH   4  16
TORSDOF 4
