REMARK  6 active torsions:
REMARK  status: ('A' for Active; 'I' for Inactive)
REMARK    1  A    between atoms: N_2  and  S_1 
REMARK    2  A    between atoms: C_6  and  S_1 
REMARK    3  A    between atoms: N_3  and  C_4 
REMARK    4  A    between atoms: C_16  and  C_5 
REMARK    5  A    between atoms: C_9  and  O_15 
REMARK    6  A    between atoms: O_15  and  C_16 
ROOT
ATOM      1  N   UNL d   1      -0.010  -1.324  -0.321  0.00  0.00    -0.290 N 
ATOM      2  C   UNL d   1      -1.346  -0.909  -0.799  0.00  0.00     0.181 C 
ATOM      3  S   UNL d   1      -2.508  -1.444   0.501  0.00  0.00    -0.139 SA
ATOM      4  C   UNL d   1      -0.089  -2.610   0.409  0.00  0.00     0.147 C 
ATOM      5  C   UNL d   1      -1.368  -2.632   1.240  0.00  0.00     0.097 C 
ENDROOT
BRANCH   2   6
ATOM      6  C   UNL d   1      -1.636  -1.650  -2.134  0.00  0.00     0.212 C 
BRANCH   6   7
ATOM      7  O   UNL d   1      -3.012  -1.541  -2.533  0.00  0.00    -0.346 OA
BRANCH   7   8
ATOM      8  C   UNL d   1      -3.419  -2.482  -3.444  0.00  0.00     0.101 A 
ATOM      9  C   UNL d   1      -4.192  -2.098  -4.545  0.00  0.00     0.136 A 
ATOM     10  C   UNL d   1      -4.662  -3.030  -5.483  0.00  0.00     0.045 A 
ATOM     11  C   UNL d   1      -4.363  -4.387  -5.322  0.00  0.00    -0.059 A 
ATOM     12  C   UNL d   1      -3.635  -4.788  -4.194  0.00  0.00     0.009 A 
ATOM     13  C   UNL d   1      -4.837  -5.394  -6.328  0.00  0.00     0.048 C 
ATOM     14  C   UNL d   1      -3.186  -3.848  -3.259  0.00  0.00     0.040 A 
BRANCH   9  15
ATOM     15  N   UNL d   1      -4.531  -0.707  -4.747  0.00  0.00    -0.113 N 
ATOM     16  O   UNL d   1      -3.601   0.109  -4.823  0.00  0.00    -0.532 OA
ATOM     17  O   UNL d   1      -5.734  -0.432  -4.888  0.00  0.00    -0.532 OA
ENDBRANCH   9  15
ENDBRANCH   7   8
ENDBRANCH   6   7
ENDBRANCH   2   6
BRANCH   1  18
ATOM     18  S   UNL d   1       1.097  -0.163   0.194  0.00  0.00     0.262 S 
ATOM     19  O   UNL d   1       0.830   1.076  -0.500  0.00  0.00    -0.200 OA
ATOM     20  O   UNL d   1       2.406  -0.781   0.144  0.00  0.00    -0.200 OA
BRANCH  18  21
ATOM     21  C   UNL d   1       0.707   0.064   1.919  0.00  0.00     0.079 A 
ATOM     22  C   UNL d   1       1.397  -0.699   2.876  0.00  0.00     0.028 A 
ATOM     23  C   UNL d   1       1.067  -0.579   4.225  0.00  0.00     0.044 A 
ATOM     24  C   UNL d   1       0.078   0.319   4.607  0.00  0.00     0.116 A 
ATOM     25  C   UNL d   1      -0.577   1.115   3.667  0.00  0.00     0.044 A 
ATOM     26  F   UNL d   1      -0.250   0.422   5.901  0.00  0.00    -0.206 F 
ATOM     27  C   UNL d   1      -0.259   0.995   2.311  0.00  0.00     0.028 A 
ENDBRANCH  18  21
ENDBRANCH   1  18
TORSDOF 6
