REMARK  1 active torsions:
REMARK  status: ('A' for Active; 'I' for Inactive)
REMARK    1  A    between atoms: C_7  and  C_4 
ROOT
ATOM      1  C   UNL d   1      -1.125  -0.708   0.292  0.00  0.00     0.041 C 
ATOM      2  C   UNL d   1       0.363  -0.997   0.272  0.00  0.00     0.256 C 
ATOM      3  N   UNL d   1       0.950   0.209  -0.077  0.00  0.00    -0.322 N 
ATOM      4  C   UNL d   1      -1.965  -1.751   0.197  0.00  0.00    -0.004 C 
ATOM      5  C   UNL d   1      -1.271   0.739   0.161  0.00  0.00     0.006 C 
ATOM      6  C   UNL d   1       0.004   1.229  -0.145  0.00  0.00     0.046 C 
ATOM      7  O   UNL d   1       0.923  -2.061   0.458  0.00  0.00    -0.267 OA
ATOM      8  C   UNL d   1      -2.313   1.624   0.361  0.00  0.00     0.014 C 
ATOM      9  C   UNL d   1       0.246   2.560  -0.414  0.00  0.00     0.030 C 
ATOM     10  C   UNL d   1      -2.095   2.981   0.098  0.00  0.00     0.001 C 
ATOM     11  C   UNL d   1      -0.833   3.440  -0.314  0.00  0.00     0.002 C 
ATOM     12  H   UNL d   1       1.944   0.315  -0.201  0.00  0.00     0.169 HD
ENDROOT
BRANCH   4  13
ATOM     13  C   UNL d   1      -3.415  -1.871  -0.214  0.00  0.00     0.017 C 
ATOM     14  C   UNL d   1      -4.149  -0.751  -1.016  0.00  0.00     0.016 C 
ATOM     15  C   UNL d   1      -3.384  -0.428  -2.279  0.00  0.00    -0.025 C 
ATOM     16  C   UNL d   1      -5.300  -1.546  -1.655  0.00  0.00     0.017 C 
ATOM     17  C   UNL d   1      -3.493  -1.492  -3.089  0.00  0.00    -0.026 C 
ATOM     18  C   UNL d   1      -4.364  -2.504  -2.386  0.00  0.00     0.009 C 
ATOM     19  C   UNL d   1      -3.574  -3.093  -1.200  0.00  0.00     0.017 C 
ENDBRANCH   4  13
TORSDOF 1
