REMARK  6 active torsions:
REMARK  status: ('A' for Active; 'I' for Inactive)
REMARK    1  A    between atoms: C_10  and  C_3 
REMARK    2  A    between atoms: C_11  and  C_4 
REMARK    3  A    between atoms: C_8  and  O_13 
REMARK    4  A    between atoms: C_9  and  O_12 
REMARK    5  A    between atoms: O_12  and  C_24 
REMARK    6  A    between atoms: O_13  and  C_25 
ROOT
ATOM      1  N   UNL d   1       1.282   0.166   0.005  0.00  0.00    -0.319 N 
ATOM      2  HN  UNL d   1       2.291   0.312   0.013  1.00  0.00     0.169 HD
ATOM      3  C   UNL d   1       0.276   1.111  -0.002  0.00  0.00     0.138 A 
ATOM      4  C   UNL d   1       0.619  -0.965  -0.001  0.00  0.00     0.182 A 
ATOM      5  N   UNL d   1      -0.963   0.589  -0.004  0.00  0.00    -0.242 N 
ATOM      6  HN  UNL d   1      -1.856   1.082  -0.004  1.00  0.00     0.196 HD
ATOM      7  O   UNL d   1      -0.735  -0.788  -0.006  0.00  0.00    -0.217 OA
ENDROOT
BRANCH   3   8
ATOM      8  C   UNL d   1       0.558   2.544  -0.009  0.00  0.00     0.010 A 
ATOM      9  C   UNL d   1       1.883   3.004  -0.035  0.00  0.00     0.018 A 
ATOM     10  C   UNL d   1       2.176   4.374  -0.090  0.00  0.00     0.038 A 
ATOM     11  C   UNL d   1       1.141   5.304  -0.147  0.00  0.00     0.078 A 
ATOM     12  C   UNL d   1      -0.180   4.855  -0.065  0.00  0.00     0.038 A 
ATOM     13  C   UNL d   1      -0.472   3.488   0.000  0.00  0.00     0.018 A 
BRANCH  11  14
ATOM     14  O   UNL d   1       1.269   6.652  -0.268  0.00  0.00    -0.255 OA
BRANCH  14  15
ATOM     15  C   UNL d   1       2.429   7.183  -0.880  0.00  0.00     0.530 C 
ATOM     16  F   UNL d   1       3.056   6.315  -1.704  0.00  0.00    -0.144 F 
ATOM     17  F   UNL d   1       2.059   8.252  -1.626  0.00  0.00    -0.144 F 
ATOM     18  F   UNL d   1       3.299   7.610   0.057  0.00  0.00    -0.144 F 
ENDBRANCH  14  15
ENDBRANCH  11  14
ENDBRANCH   3   8
BRANCH   4  19
ATOM     19  C   UNL d   1       1.120  -2.333   0.026  0.00  0.00     0.017 A 
ATOM     20  C   UNL d   1       2.503  -2.562   0.103  0.00  0.00     0.018 A 
ATOM     21  C   UNL d   1       3.021  -3.863   0.182  0.00  0.00     0.038 A 
ATOM     22  C   UNL d   1       2.158  -4.954   0.210  0.00  0.00     0.078 A 
ATOM     23  C   UNL d   1       0.783  -4.737   0.077  0.00  0.00     0.038 A 
ATOM     24  C   UNL d   1       0.266  -3.441  -0.010  0.00  0.00     0.018 A 
BRANCH  22  25
ATOM     25  O   UNL d   1       2.509  -6.262   0.343  0.00  0.00    -0.255 OA
BRANCH  25  26
ATOM     26  C   UNL d   1       3.730  -6.586   0.990  0.00  0.00     0.530 C 
ATOM     27  F   UNL d   1       4.163  -5.627   1.835  0.00  0.00    -0.144 F 
ATOM     28  F   UNL d   1       3.541  -7.713   1.712  0.00  0.00    -0.144 F 
ATOM     29  F   UNL d   1       4.686  -6.830   0.069  0.00  0.00    -0.144 F 
ENDBRANCH  25  26
ENDBRANCH  22  25
ENDBRANCH   4  19
TORSDOF 6
