REMARK  6 active torsions:
REMARK  status: ('A' for Active; 'I' for Inactive)
REMARK    1  A    between atoms: C_10  and  N_1 
REMARK    2  A    between atoms: S_6  and  C_2 
REMARK    3  A    between atoms: C_8  and  S_6 
REMARK       I    between atoms: N_12  and  C_8 
REMARK    4  A    between atoms: C_11  and  C_10 
REMARK    5  A    between atoms: C_19  and  N_12 
REMARK    6  A    between atoms: C_20  and  N_12 
ROOT
ATOM      1  N   UNL d   1       2.525  -0.036  -0.117  0.00  0.00    -0.293 N 
ATOM      2  C   UNL d   1       2.804   1.204   0.433  0.00  0.00     0.159 C 
ATOM      3  C   UNL d   1       1.318  -0.648   0.195  0.00  0.00     0.262 C 
ATOM      4  N   UNL d   1       1.881   2.005   0.877  0.00  0.00    -0.335 N 
ATOM      5  HN  UNL d   1       2.119   2.897   1.311  1.00  0.00     0.168 HD
ATOM      6  C   UNL d   1       0.211   0.261   0.502  0.00  0.00     0.059 A 
ATOM      7  C   UNL d   1       0.542   1.595   0.735  0.00  0.00     0.049 A 
ATOM      8  O   UNL d   1       1.126  -1.862   0.183  0.00  0.00    -0.267 OA
ATOM      9  C   UNL d   1      -1.111  -0.184   0.433  0.00  0.00     0.019 A 
ATOM     10  C   UNL d   1      -0.502   2.512   0.858  0.00  0.00     0.030 A 
ATOM     11  C   UNL d   1      -2.141   0.742   0.563  0.00  0.00     0.001 A 
ATOM     12  C   UNL d   1      -1.836   2.089   0.756  0.00  0.00     0.002 A 
ENDROOT
BRANCH   2  13
ATOM     13  S   UNL d   1       4.486   1.546   0.758  0.00  0.00     0.007 SA
BRANCH  13  14
ATOM     14  C   UNL d   1       4.658   3.172   0.138  0.00  0.00     0.289 C 
ATOM     15  N   UNL d   1       5.734   3.915   0.661  0.00  0.00    -0.343 N 
ATOM     16  O   UNL d   1       3.923   3.593  -0.748  0.00  0.00    -0.260 OA
BRANCH  15  17
ATOM     17  C   UNL d   1       5.905   5.293   0.195  0.00  0.00     0.122 C 
ATOM     18  C   UNL d   1       7.040   5.457  -0.804  0.00  0.00     0.026 C 
ENDBRANCH  15  17
BRANCH  15  19
ATOM     19  C   UNL d   1       6.746   3.401   1.599  0.00  0.00     0.122 C 
ATOM     20  C   UNL d   1       7.836   2.578   0.920  0.00  0.00     0.026 C 
ENDBRANCH  15  19
ENDBRANCH  13  14
ENDBRANCH   2  13
BRANCH   1  21
ATOM     21  C   UNL d   1       3.443  -0.832  -0.932  0.00  0.00     0.139 C 
BRANCH  21  22
ATOM     22  C   UNL d   1       2.829  -1.046  -2.299  0.00  0.00     0.004 A 
ATOM     23  C   UNL d   1       3.656  -1.533  -3.458  0.00  0.00     0.007 A 
ATOM     24  C   UNL d   1       3.145  -0.117  -3.444  0.00  0.00     0.007 A 
ENDBRANCH  21  22
ENDBRANCH   1  21
TORSDOF 6
