REMARK  1 active torsions:
REMARK  status: ('A' for Active; 'I' for Inactive)
REMARK    1  A    between atoms: C_7  and  C_6 
ROOT
ATOM      1  N   UNL d   1       0.773  -1.415  -0.490  0.00  0.00    -0.305 N 
ATOM      2  HN  UNL d   1      -0.003  -1.722   0.097  1.00  0.00     0.186 HD
ATOM      3  C   UNL d   1       1.101  -1.841  -1.673  0.00  0.00     0.043 C 
ATOM      4  N   UNL d   1       1.708  -0.458  -0.214  0.00  0.00    -0.322 N 
ATOM      5  C   UNL d   1       2.275  -1.151  -2.312  0.00  0.00     0.067 C 
ATOM      6  C   UNL d   1       2.937  -0.643  -1.017  0.00  0.00     0.144 C 
ATOM      7  C   UNL d   1       0.428  -2.893  -2.429  0.00  0.00    -0.005 A 
ATOM      8  C   UNL d   1      -0.296  -2.528  -3.570  0.00  0.00    -0.046 A 
ATOM      9  C   UNL d   1       1.899   0.026   1.139  0.00  0.00     0.171 C 
ATOM     10  C   UNL d   1       1.752   0.001  -3.199  0.00  0.00     0.013 C 
ATOM     11  C   UNL d   1       0.681  -4.229  -2.116  0.00  0.00     0.014 A 
ATOM     12  C   UNL d   1       0.820  -0.403  -4.354  0.00  0.00     0.005 C 
ATOM     13  C   UNL d   1      -0.491  -1.077  -3.924  0.00  0.00     0.039 C 
ATOM     14  C   UNL d   1      -0.798  -3.546  -4.391  0.00  0.00     0.008 A 
ATOM     15  C   UNL d   1       0.197  -5.228  -2.957  0.00  0.00     0.001 A 
ATOM     16  C   UNL d   1      -0.543  -4.887  -4.091  0.00  0.00     0.001 A 
ENDROOT
BRANCH   6  17
ATOM     17  C   UNL d   1       3.954  -1.609  -0.391  0.00  0.00    -0.030 A 
ATOM     18  C   UNL d   1       5.318  -1.276  -0.411  0.00  0.00     0.049 A 
ATOM     19  C   UNL d   1       6.196  -2.065   0.315  0.00  0.00     0.105 A 
ATOM     20  O   UNL d   1       7.528  -1.829   0.475  0.00  0.00    -0.323 OA
ATOM     21  C   UNL d   1       5.780  -3.174   1.010  0.00  0.00     0.105 A 
ATOM     22  C   UNL d   1       7.858  -2.831   1.461  0.00  0.00     0.352 C 
ATOM     23  O   UNL d   1       6.788  -3.767   1.704  0.00  0.00    -0.323 OA
ATOM     24  C   UNL d   1       4.468  -3.576   1.009  0.00  0.00     0.040 A 
ATOM     25  C   UNL d   1       3.553  -2.784   0.301  0.00  0.00     0.012 A 
ENDBRANCH   6  17
TORSDOF 1
