REMARK  5 active torsions:
REMARK  status: ('A' for Active; 'I' for Inactive)
REMARK    1  A    between atoms: N_4  and  C_1 
REMARK    2  A    between atoms: N_5  and  C_1 
REMARK       I    between atoms: C_2  and  N_3 
REMARK    3  A    between atoms: C_8  and  C_2 
REMARK    4  A    between atoms: N_3  and  N_4 
REMARK    5  A    between atoms: C_9  and  N_5 
ROOT
ATOM      1  C   UNL d   1       0.245  -2.820   2.390  0.00  0.00     0.270 C 
ATOM      2  N   UNL d   1       0.760  -1.574   2.080  0.00  0.00    -0.264 N 
ATOM      3  O   UNL d   1      -0.768  -3.261   1.845  0.00  0.00    -0.266 OA
ATOM      4  H   UNL d   1       1.715  -1.304   2.305  0.00  0.00     0.190 HD
ENDROOT
BRANCH   2   5
ATOM      5  N   UNL d   1       0.183  -0.949   0.956  0.00  0.00    -0.274 N 
ATOM      6  H   UNL d   1      -0.645  -1.434   0.625  0.00  0.00     0.189 HD
BRANCH   5   7
ATOM      7  C   UNL d   1       0.945  -0.218   0.093  0.00  0.00     0.187 C 
ATOM      8  S   UNL d   1       2.357   0.574   0.524  0.00  0.00    -0.040 SA
BRANCH   7   9
ATOM      9  N   UNL d   1       0.533  -0.128  -1.201  0.00  0.00    -0.358 N 
ATOM     10  H   UNL d   1       1.157   0.454  -1.751  0.00  0.00     0.162 HD
BRANCH   9  11
ATOM     11  C   UNL d   1      -0.473  -0.892  -1.974  0.00  0.00     0.021 C 
ATOM     12  C   UNL d   1      -1.908  -0.534  -1.556  0.00  0.00     0.037 C 
ATOM     13  C   UNL d   1      -0.311  -0.506  -3.460  0.00  0.00     0.037 C 
ATOM     14  C   UNL d   1      -0.226  -2.407  -1.864  0.00  0.00     0.037 C 
ENDBRANCH   9  11
ENDBRANCH   7   9
ENDBRANCH   5   7
ENDBRANCH   2   5
BRANCH   1  15
ATOM     15  C   UNL d   1       0.983  -3.649   3.380  0.00  0.00     0.033 A 
ATOM     16  C   UNL d   1       1.855  -3.099   4.326  0.00  0.00     0.017 A 
ATOM     17  C   UNL d   1       2.500  -3.933   5.244  0.00  0.00     0.001 A 
ATOM     18  C   UNL d   1       2.276  -5.310   5.223  0.00  0.00     0.000 A 
ATOM     19  C   UNL d   1       1.406  -5.862   4.285  0.00  0.00     0.001 A 
ATOM     20  C   UNL d   1       0.759  -5.034   3.369  0.00  0.00     0.017 A 
ENDBRANCH   1  15
TORSDOF 5
