REMARK  5 active torsions:
REMARK  status: ('A' for Active; 'I' for Inactive)
REMARK    1  A    between atoms: C_7  and  C_1 
REMARK    2  A    between atoms: C_8  and  C_5 
REMARK    3  A    between atoms: O_11  and  C_7 
REMARK    4  A    between atoms: C_19  and  O_11 
REMARK    5  A    between atoms: C_20  and  C_19 
ROOT
ATOM      1  C   UNL d   1      -0.513  -1.222  -0.076  0.00  0.00     0.067 C 
ATOM      2  C   UNL d   1      -1.318  -0.129   0.006  0.00  0.00     0.026 C 
ATOM      3  C   UNL d   1       0.620   1.375  -0.183  0.00  0.00     0.323 C 
ATOM      4  N   UNL d   1      -0.745   1.156  -0.067  0.00  0.00    -0.308 N 
ATOM      5  C   UNL d   1       0.985  -1.080  -0.057  0.00  0.00     0.161 C 
ATOM      6  N   UNL d   1       1.404   0.279  -0.291  0.00  0.00    -0.330 N 
ATOM      7  O   UNL d   1       1.148   2.487  -0.210  0.00  0.00    -0.247 OA
ATOM      8  C   UNL d   1      -2.816  -0.193   0.220  0.00  0.00     0.069 C 
ATOM      9  C   UNL d   1      -1.544   2.380  -0.076  0.00  0.00     0.161 C 
ATOM     10  H   UNL d   1       2.393   0.489  -0.287  0.00  0.00     0.165 HD
ENDROOT
BRANCH   1  11
ATOM     11  C   UNL d   1      -1.044  -2.630  -0.154  0.00  0.00     0.294 C 
ATOM     12  O   UNL d   1      -2.210  -2.941   0.026  0.00  0.00    -0.259 OA
BRANCH  11  13
ATOM     13  O   UNL d   1      -0.075  -3.539  -0.458  0.00  0.00    -0.313 OA
BRANCH  13  14
ATOM     14  C   UNL d   1      -0.394  -4.914  -0.140  0.00  0.00     0.217 C 
BRANCH  14  15
ATOM     15  C   UNL d   1      -0.685  -5.844  -1.304  0.00  0.00    -0.034 A 
ATOM     16  C   UNL d   1      -0.772  -5.418  -2.632  0.00  0.00     0.009 A 
ATOM     17  C   UNL d   1      -1.030  -6.337  -3.660  0.00  0.00     0.001 A 
ATOM     18  C   UNL d   1      -1.206  -7.691  -3.375  0.00  0.00     0.000 A 
ATOM     19  C   UNL d   1      -1.135  -8.130  -2.056  0.00  0.00     0.001 A 
ATOM     20  C   UNL d   1      -0.880  -7.215  -1.032  0.00  0.00     0.009 A 
ENDBRANCH  14  15
ENDBRANCH  13  14
ENDBRANCH  11  13
ENDBRANCH   1  11
BRANCH   5  21
ATOM     21  C   UNL d   1       1.625  -1.569   1.239  0.00  0.00    -0.030 A 
ATOM     22  C   UNL d   1       2.604  -2.576   1.194  0.00  0.00     0.022 A 
ATOM     23  C   UNL d   1       3.212  -3.060   2.363  0.00  0.00    -0.025 A 
ATOM     24  C   UNL d   1       4.179  -4.075   2.312  0.00  0.00     0.012 A 
ATOM     25  C   UNL d   1       2.842  -2.517   3.614  0.00  0.00    -0.026 A 
ATOM     26  C   UNL d   1       4.769  -4.558   3.480  0.00  0.00     0.001 A 
ATOM     27  C   UNL d   1       4.403  -4.029   4.714  0.00  0.00     0.001 A 
ATOM     28  C   UNL d   1       3.448  -3.012   4.781  0.00  0.00     0.012 A 
ATOM     29  C   UNL d   1       1.883  -1.495   3.659  0.00  0.00     0.013 A 
ATOM     30  C   UNL d   1       1.284  -1.024   2.487  0.00  0.00     0.010 A 
ENDBRANCH   5  21
TORSDOF 5
