REMARK  8 active torsions:
REMARK  status: ('A' for Active; 'I' for Inactive)
REMARK    1  A    between atoms: C_4  and  S_1 
REMARK    2  A    between atoms: N_13  and  S_1 
REMARK    3  A    between atoms: C_2  and  C_5 
REMARK    4  A    between atoms: C_3  and  C_6 
REMARK    5  A    between atoms: N_12  and  C_21 
REMARK    6  A    between atoms: C_25  and  N_13 
REMARK    7  A    between atoms: C_21  and  C_22 
REMARK    8  A    between atoms: C_22  and  C_25 
ROOT
ATOM      1  C   UNL d   1       0.478  -1.543   0.884  0.00  0.00     0.081 A 
ATOM      2  C   UNL d   1       0.765  -3.949   0.737  0.00  0.00     0.050 A 
ATOM      3  C   UNL d   1      -0.511  -2.960   2.587  0.00  0.00     0.050 A 
ATOM      4  C   UNL d   1      -0.273  -1.683   2.056  0.00  0.00     0.041 A 
ATOM      5  C   UNL d   1       1.000  -2.663   0.229  0.00  0.00     0.041 A 
ATOM      6  C   UNL d   1       0.018  -4.084   1.922  0.00  0.00     0.032 A 
ENDROOT
BRANCH   1   7
ATOM      7  S   UNL d   1       0.654   0.055   0.127  0.00  0.00     0.258 S 
ATOM      8  O   UNL d   1       0.010   1.040   0.962  0.00  0.00    -0.201 OA
ATOM      9  O   UNL d   1       0.320  -0.109  -1.271  0.00  0.00    -0.201 OA
BRANCH   7  10
ATOM     10  N   UNL d   1       2.313   0.311   0.185  0.00  0.00    -0.315 N 
ATOM     11  H   UNL d   1       2.668   0.576  -0.736  0.00  0.00     0.172 HD
BRANCH  10  12
ATOM     12  C   UNL d   1       2.882   1.008   1.347  0.00  0.00     0.134 C 
BRANCH  12  13
ATOM     13  C   UNL d   1       4.399   1.061   1.165  0.00  0.00     0.050 C 
BRANCH  13  14
ATOM     14  C   UNL d   1       5.109   1.770   2.326  0.00  0.00     0.274 C 
BRANCH  14  15
ATOM     15  N   UNL d   1       6.550   1.926   2.074  0.00  0.00     0.092 N 
ATOM     16  C   UNL d   1       7.306   0.654   2.022  0.00  0.00     0.298 C 
ATOM     17  C   UNL d   1       7.558   0.010   3.395  0.00  0.00     0.198 C 
ATOM     18  O   UNL d   1       8.222   0.918   4.282  0.00  0.00    -0.388 OA
ATOM     19  C   UNL d   1       7.462   2.123   4.434  0.00  0.00     0.198 C 
ATOM     20  C   UNL d   1       7.199   2.801   3.078  0.00  0.00     0.298 C 
ENDBRANCH  14  15
ENDBRANCH  13  14
ENDBRANCH  12  13
ENDBRANCH  10  12
ENDBRANCH   7  10
ENDBRANCH   1   7
BRANCH   3  21
ATOM     21  C   UNL d   1      -1.359  -3.144   3.826  0.00  0.00     0.417 C 
ATOM     22  F   UNL d   1      -1.842  -1.977   4.332  0.00  0.00    -0.166 F 
ATOM     23  F   UNL d   1      -2.444  -3.932   3.596  0.00  0.00    -0.166 F 
ATOM     24  F   UNL d   1      -0.671  -3.736   4.840  0.00  0.00    -0.166 F 
ENDBRANCH   3  21
BRANCH   2  25
ATOM     25  C   UNL d   1       1.254  -5.176   0.000  0.00  0.00     0.417 C 
ATOM     26  F   UNL d   1       1.921  -4.887  -1.151  0.00  0.00    -0.166 F 
ATOM     27  F   UNL d   1       2.105  -5.928   0.749  0.00  0.00    -0.166 F 
ATOM     28  F   UNL d   1       0.233  -6.003  -0.355  0.00  0.00    -0.166 F 
ENDBRANCH   2  25
TORSDOF 8
