REMARK  3 active torsions:
REMARK  status: ('A' for Active; 'I' for Inactive)
REMARK    1  A    between atoms: C_9  and  C_2 
REMARK    2  A    between atoms: O_11  and  C_5 
REMARK    3  A    between atoms: O_12  and  C_7 
ROOT
ATOM      1  C   UNL d   1      -0.037   0.603  -0.092  0.00  0.00    -0.012 A 
ATOM      2  C   UNL d   1       1.314   1.193  -0.479  0.00  0.00     0.287 C 
ATOM      3  C   UNL d   1      -1.186   1.405   0.006  0.00  0.00     0.049 A 
ATOM      4  C   UNL d   1      -0.151  -0.783   0.048  0.00  0.00    -0.045 A 
ATOM      5  C   UNL d   1      -2.454   0.840   0.213  0.00  0.00     0.102 A 
ATOM      6  C   UNL d   1      -1.410  -1.357   0.217  0.00  0.00     0.047 A 
ATOM      7  C   UNL d   1      -2.566  -0.562   0.296  0.00  0.00     0.102 A 
ATOM      8  N   UNL d   1       2.446   0.563   0.231  0.00  0.00     0.097 N 
ATOM      9  C   UNL d   1       2.267  -0.849   0.593  0.00  0.00     0.275 C 
ATOM     10  C   UNL d   1       1.103  -1.603  -0.061  0.00  0.00     0.069 C 
ATOM     11  H   UNL d   1       2.617   1.090   1.086  0.00  0.00     0.317 HD
ENDROOT
BRANCH   2  12
ATOM     12  C   UNL d   1       1.576   1.274  -1.989  0.00  0.00    -0.021 A 
ATOM     13  C   UNL d   1       0.644   0.856  -2.957  0.00  0.00     0.009 A 
ATOM     14  C   UNL d   1       0.896   1.013  -4.322  0.00  0.00     0.001 A 
ATOM     15  C   UNL d   1       2.088   1.592  -4.750  0.00  0.00     0.000 A 
ATOM     16  C   UNL d   1       3.029   2.007  -3.814  0.00  0.00     0.001 A 
ATOM     17  C   UNL d   1       2.774   1.852  -2.449  0.00  0.00     0.009 A 
ENDBRANCH   2  12
BRANCH   5  18
ATOM     18  O   UNL d   1      -3.593   1.591   0.321  0.00  0.00    -0.353 OA
ATOM     19  C   UNL d   1      -3.472   3.007   0.335  0.00  0.00     0.210 C 
ENDBRANCH   5  18
BRANCH   7  20
ATOM     20  O   UNL d   1      -3.696  -1.326   0.441  0.00  0.00    -0.353 OA
ATOM     21  C   UNL d   1      -4.962  -0.685   0.480  0.00  0.00     0.210 C 
ENDBRANCH   7  20
TORSDOF 3
