REMARK  5 active torsions:
REMARK  status: ('A' for Active; 'I' for Inactive)
REMARK    1  A    between atoms: S_2  and  C_1 
REMARK    2  A    between atoms: N_13  and  S_2 
REMARK    3  A    between atoms: C_16  and  N_13 
REMARK    4  A    between atoms: C_18  and  C_16 
REMARK    5  A    between atoms: C_17  and  C_18 
ROOT
ATOM      1  S   UNL d   1      -1.317  -3.266  -0.028  0.00  0.00     0.243 S 
ATOM      2  O   UNL d   1      -0.480  -4.233   0.650  0.00  0.00    -0.206 OA
ATOM      3  O   UNL d   1      -1.348  -1.883   0.383  0.00  0.00    -0.206 OA
ENDROOT
BRANCH   1   4
ATOM      4  C   UNL d   1      -0.879  -3.288  -1.732  0.00  0.00     0.103 A 
ATOM      5  C   UNL d   1      -1.554  -2.490  -2.684  0.00  0.00     0.089 A 
ATOM      6  N   UNL d   1      -2.638  -1.721  -2.490  0.00  0.00    -0.309 N 
ATOM      7  C   UNL d   1      -1.079  -2.466  -4.117  0.00  0.00     0.068 A 
ATOM      8  S   UNL d   1      -2.947  -0.951  -3.929  0.00  0.00     0.068 SA
ATOM      9  HN  UNL d   1      -3.170  -1.628  -1.624  1.00  0.00     0.176 HD
ATOM     10  N   UNL d   1      -1.792  -1.642  -4.899  0.00  0.00    -0.310 N 
ATOM     11  HN  UNL d   1      -1.652  -1.473  -5.895  1.00  0.00     0.176 HD
ATOM     12  C   UNL d   1       0.019  -3.256  -4.537  0.00  0.00     0.032 A 
ATOM     13  C   UNL d   1       0.631  -4.048  -3.549  0.00  0.00     0.004 A 
ATOM     14  C   UNL d   1       0.206  -4.059  -2.200  0.00  0.00     0.027 A 
ENDBRANCH   1   4
BRANCH   1  15
ATOM     15  N   UNL d   1      -2.905  -3.856  -0.026  0.00  0.00    -0.215 NA
ATOM     16  H   UNL d   1      -3.474  -3.353  -0.712  0.00  0.00     0.139 HD
BRANCH  15  17
ATOM     17  C   UNL d   1      -3.058  -5.326  -0.022  0.00  0.00     0.109 C 
BRANCH  17  18
ATOM     18  C   UNL d   1      -4.540  -5.706   0.016  0.00  0.00     0.054 C 
BRANCH  18  19
ATOM     19  C   UNL d   1      -4.722  -7.200   0.137  0.00  0.00    -0.057 A 
ATOM     20  C   UNL d   1      -4.786  -7.806   1.400  0.00  0.00     0.007 A 
ATOM     21  C   UNL d   1      -4.918  -9.192   1.515  0.00  0.00     0.001 A 
ATOM     22  C   UNL d   1      -4.983  -9.984   0.371  0.00  0.00     0.000 A 
ATOM     23  C   UNL d   1      -4.916  -9.393  -0.889  0.00  0.00     0.001 A 
ATOM     24  C   UNL d   1      -4.785  -8.007  -1.007  0.00  0.00     0.007 A 
ENDBRANCH  18  19
ENDBRANCH  17  18
ENDBRANCH  15  17
ENDBRANCH   1  15
TORSDOF 5
