REMARK  5 active torsions:
REMARK  status: ('A' for Active; 'I' for Inactive)
REMARK    1  A    between atoms: N_3  and  C_1 
REMARK    2  A    between atoms: N_5  and  C_1 
REMARK    3  A    between atoms: C_2  and  N_3 
REMARK    4  A    between atoms: C_11  and  C_4 
REMARK    5  A    between atoms: C_9  and  N_5 
ROOT
ATOM      1  N   UNL d   1       0.618   0.730  -0.785  0.00  0.00    -0.362 N 
ATOM      2  H   UNL d   1       1.339   0.355  -0.183  0.00  0.00     0.162 HD
ENDROOT
BRANCH   1   3
ATOM      3  C   UNL d   1       1.082   1.347  -2.035  0.00  0.00     0.088 C 
ATOM      4  C   UNL d   1       2.521   0.846  -2.362  0.00  0.00     0.012 C 
ATOM      5  C   UNL d   1       3.168   1.672  -3.490  0.00  0.00     0.007 C 
ATOM      6  C   UNL d   1       3.099   3.174  -3.230  0.00  0.00     0.005 C 
ATOM      7  C   UNL d   1       1.653   3.626  -3.040  0.00  0.00    -0.017 C 
ATOM      8  C   UNL d   1       1.031   2.876  -1.864  0.00  0.00     0.029 C 
ATOM      9  C   UNL d   1       1.579   5.134  -2.812  0.00  0.00     0.010 C 
BRANCH   4  10
ATOM     10  C   UNL d   1       2.578  -0.694  -2.630  0.00  0.00    -0.017 C 
ATOM     11  C   UNL d   1       1.759  -1.152  -3.841  0.00  0.00     0.010 C 
ATOM     12  C   UNL d   1       4.020  -1.198  -2.772  0.00  0.00     0.010 C 
ENDBRANCH   4  10
ENDBRANCH   1   3
BRANCH   1  13
ATOM     13  C   UNL d   1      -0.649   0.645  -0.286  0.00  0.00     0.172 C 
ATOM     14  S   UNL d   1      -2.056   0.802  -1.169  0.00  0.00    -0.041 SA
BRANCH  13  15
ATOM     15  N   UNL d   1      -0.744   0.320   1.044  0.00  0.00    -0.333 N 
ATOM     16  H   UNL d   1      -1.655  -0.037   1.312  0.00  0.00     0.168 HD
BRANCH  15  17
ATOM     17  C   UNL d   1       0.190   0.509   2.085  0.00  0.00     0.037 A 
ATOM     18  C   UNL d   1       1.227   1.443   2.024  0.00  0.00     0.071 A 
ATOM     19  C   UNL d   1       2.123   1.560   3.080  0.00  0.00     0.118 A 
ATOM     20  F   UNL d   1       3.120   2.453   3.000  0.00  0.00    -0.206 F 
ATOM     21  C   UNL d   1       1.998   0.774   4.216  0.00  0.00     0.042 A 
ATOM     22  C   UNL d   1       0.941  -0.129   4.307  0.00  0.00     0.005 A 
ATOM     23  C   UNL d   1       0.030  -0.249   3.252  0.00  0.00     0.029 A 
ENDBRANCH  15  17
ENDBRANCH  13  15
ENDBRANCH   1  13
TORSDOF 5
