REMARK  2 active torsions:
REMARK  status: ('A' for Active; 'I' for Inactive)
REMARK    1  A    between atoms: C_2  and  C_1 
REMARK    2  A    between atoms: N_4  and  C_2 
REMARK       I    between atoms: C_3  and  N_4 
ROOT
ATOM      1  C   UNL d   1      -0.314   0.881  -0.013  0.00  0.00     0.020 A 
ATOM      2  C   UNL d   1      -0.455   0.201  -1.230  0.00  0.00     0.044 A 
ATOM      3  C   UNL d   1      -0.439   0.135   1.166  0.00  0.00     0.126 A 
ATOM      4 CL   UNL d   1      -0.364   1.019  -2.748  0.00  0.00    -0.084 Cl
ATOM      5  F   UNL d   1      -0.337   0.746   2.355  0.00  0.00    -0.205 F 
ATOM      6  C   UNL d   1      -0.786  -1.903  -0.067  0.00  0.00     0.005 A 
ATOM      7  C   UNL d   1      -0.683  -1.182  -1.256  0.00  0.00     0.024 A 
ATOM      8  C   UNL d   1      -0.669  -1.239   1.149  0.00  0.00     0.043 A 
ENDROOT
BRANCH   1   9
ATOM      9  C   UNL d   1      -0.046   2.355   0.081  0.00  0.00     0.166 C 
BRANCH   9  10
ATOM     10  N   UNL d   1      -1.259   3.141   0.044  0.00  0.00    -0.357 N 
ATOM     11  C   UNL d   1      -1.194   4.512   0.096  0.00  0.00     0.213 C 
ATOM     12  O   UNL d   1      -0.140   5.139   0.129  0.00  0.00    -0.274 OA
ATOM     13  C   UNL d   1      -2.531   5.205   0.107  0.00  0.00     0.117 C 
ATOM     14  H   UNL d   1      -2.153   2.675   0.103  0.00  0.00     0.162 HD
ENDBRANCH   9  10
ENDBRANCH   1   9
TORSDOF 2
