REMARK  6 active torsions:
REMARK  status: ('A' for Active; 'I' for Inactive)
REMARK    1  A    between atoms: S_9  and  C_1 
REMARK    2  A    between atoms: N_13  and  C_1 
REMARK    3  A    between atoms: N_2  and  N_4 
REMARK    4  A    between atoms: C_6  and  C_8 
REMARK    5  A    between atoms: C_14  and  S_9 
REMARK    6  A    between atoms: C_15  and  C_14 
ROOT
ATOM      1  C   UNL d   1       1.022   0.119   0.115  0.00  0.00     0.131 C 
ATOM      2  N   UNL d   1       0.317  -0.556   0.969  0.00  0.00    -0.285 N 
ATOM      3  HN  UNL d   1      -0.699  -0.648   0.930  1.00  0.00     0.188 HD
ENDROOT
BRANCH   1   4
ATOM      4  S   UNL d   1       0.309   0.858  -1.296  0.00  0.00    -0.094 SA
BRANCH   4   5
ATOM      5  C   UNL d   1      -1.390   1.141  -0.734  0.00  0.00     0.120 C 
BRANCH   5   6
ATOM      6  C   UNL d   1      -2.202   1.842  -1.801  0.00  0.00    -0.049 A 
ATOM      7  C   UNL d   1      -2.901   1.102  -2.767  0.00  0.00     0.008 A 
ATOM      8  C   UNL d   1      -3.631   1.748  -3.768  0.00  0.00     0.001 A 
ATOM      9  C   UNL d   1      -3.668   3.140  -3.820  0.00  0.00     0.000 A 
ATOM     10  C   UNL d   1      -2.971   3.888  -2.872  0.00  0.00     0.001 A 
ATOM     11  C   UNL d   1      -2.240   3.244  -1.871  0.00  0.00     0.008 A 
ENDBRANCH   5   6
ENDBRANCH   4   5
ENDBRANCH   1   4
BRANCH   1  12
ATOM     12  N   UNL d   1       2.373   0.287   0.178  0.00  0.00    -0.282 NA
ATOM     13  H   UNL d   1       2.777  -0.417   0.789  0.00  0.00     0.126 HD
ATOM     14  H   UNL d   1       2.818   0.374  -0.725  0.00  0.00     0.126 HD
ENDBRANCH   1  12
BRANCH   2  15
ATOM     15  N   UNL d   1       1.131  -1.148   1.958  0.00  0.00    -0.309 N 
ATOM     16  C   UNL d   1       0.464  -1.406   3.041  0.00  0.00     0.126 C 
ATOM     17  HN  UNL d   1       2.123  -1.349   1.837  1.00  0.00     0.186 HD
BRANCH  16  18
ATOM     18  C   UNL d   1       1.112  -2.010   4.181  0.00  0.00     0.021 A 
ATOM     19  S   UNL d   1       0.214  -2.265   5.614  0.00  0.00    -0.101 SA
ATOM     20  C   UNL d   1       1.562  -2.945   6.418  0.00  0.00     0.050 A 
ATOM     21  C   UNL d   1       2.679  -2.981   5.614  0.00  0.00     0.008 A 
ATOM     22  C   UNL d   1       2.420  -2.439   4.320  0.00  0.00     0.021 A 
ENDBRANCH  16  18
ENDBRANCH   2  15
TORSDOF 6
