REMARK  4 active torsions:
REMARK  status: ('A' for Active; 'I' for Inactive)
REMARK    1  A    between atoms: C_9  and  C_4 
REMARK    2  A    between atoms: C_10  and  C_19 
REMARK    3  A    between atoms: O_18  and  C_12 
REMARK    4  A    between atoms: C_19  and  O_18 
ROOT
ATOM      1  C   UNL d   1      -2.051   0.324   0.038  0.00  0.00    -0.006 C 
ATOM      2  C   UNL d   1      -1.074  -0.807   0.013  0.00  0.00     0.189 C 
ATOM      3  C   UNL d   1       0.367  -0.427   0.018  0.00  0.00     0.021 A 
ATOM      4  C   UNL d   1      -3.252   0.120  -0.527  0.00  0.00     0.022 C 
ATOM      5  C   UNL d   1       0.759   0.926  -0.018  0.00  0.00    -0.044 A 
ATOM      6  C   UNL d   1      -1.549   1.596   0.657  0.00  0.00     0.047 C 
ATOM      7  O   UNL d   1      -1.429  -1.980  -0.029  0.00  0.00    -0.287 OA
ATOM      8  C   UNL d   1      -0.266   2.031  -0.039  0.00  0.00     0.044 C 
ATOM      9  C   UNL d   1       1.335  -1.437   0.023  0.00  0.00     0.016 A 
ATOM     10  C   UNL d   1       2.122   1.243  -0.085  0.00  0.00     0.008 A 
ATOM     11  C   UNL d   1       2.690  -1.106  -0.023  0.00  0.00     0.001 A 
ATOM     12  C   UNL d   1       3.081   0.230  -0.083  0.00  0.00     0.001 A 
ENDROOT
BRANCH   4  13
ATOM     13  C   UNL d   1      -4.260   1.171  -0.651  0.00  0.00    -0.035 A 
ATOM     14  C   UNL d   1      -4.296   1.973  -1.795  0.00  0.00     0.014 A 
ATOM     15  C   UNL d   1      -5.237   3.000  -1.900  0.00  0.00     0.037 A 
ATOM     16  C   UNL d   1      -6.152   3.224  -0.870  0.00  0.00     0.069 A 
ATOM     17  C   UNL d   1      -6.087   2.448   0.289  0.00  0.00     0.037 A 
ATOM     18  C   UNL d   1      -5.150   1.418   0.395  0.00  0.00     0.014 A 
BRANCH  16  19
ATOM     19  O   UNL d   1      -7.058   4.225  -1.096  0.00  0.00    -0.348 OA
BRANCH  19  20
ATOM     20  C   UNL d   1      -8.262   4.136  -0.332  0.00  0.00     0.202 C 
BRANCH  20  21
ATOM     21  C   UNL d   1      -9.316   4.943  -1.025  0.00  0.00    -0.011 C 
ATOM     22  C   UNL d   1     -10.451   4.424  -1.515  0.00  0.00     0.009 C 
ENDBRANCH  20  21
ENDBRANCH  19  20
ENDBRANCH  16  19
ENDBRANCH   4  13
TORSDOF 4
