REMARK  4 active torsions:
REMARK  status: ('A' for Active; 'I' for Inactive)
REMARK    1  A    between atoms: C_10  and  C_3 
REMARK    2  A    between atoms: N_4  and  C_9 
REMARK    3  A    between atoms: C_12  and  C_5 
REMARK    4  A    between atoms: C_8  and  C_16 
ROOT
ATOM      1  N   UNL d   1       1.348  -0.576   0.441  0.00  0.00    -0.349 N 
ATOM      2  HN  UNL d   1       2.131  -1.072   0.868  1.00  0.00     0.166 HD
ATOM      3  C   UNL d   1       0.282  -1.158  -0.080  0.00  0.00     0.084 A 
ATOM      4  C   UNL d   1       1.252   0.803   0.326  0.00  0.00     0.050 A 
ATOM      5  S   UNL d   1      -0.897  -0.060  -0.708  0.00  0.00    -0.081 SA
ATOM      6  C   UNL d   1       0.105   1.256  -0.295  0.00  0.00     0.082 A 
ENDROOT
BRANCH   3   7
ATOM      7  C   UNL d   1       0.027  -2.611  -0.107  0.00  0.00    -0.002 A 
ATOM      8  C   UNL d   1       0.543  -3.434   0.903  0.00  0.00     0.015 A 
ATOM      9  C   UNL d   1       0.275  -4.811   0.920  0.00  0.00     0.010 A 
ATOM     10  C   UNL d   1      -0.509  -5.409  -0.082  0.00  0.00    -0.035 A 
ATOM     11  C   UNL d   1      -1.007  -4.587  -1.103  0.00  0.00     0.010 A 
ATOM     12  C   UNL d   1      -0.736  -3.215  -1.119  0.00  0.00     0.015 A 
BRANCH  10  13
ATOM     13  C   UNL d   1      -0.807  -6.894  -0.033  0.00  0.00     0.141 C 
ATOM     14  S   UNL d   1      -0.353  -7.775  -1.557  0.00  0.00    -0.148 SA
ATOM     15  C   UNL d   1      -1.448  -9.178  -1.257  0.00  0.00     0.085 C 
ATOM     16  C   UNL d   1      -2.790  -8.631  -0.808  0.00  0.00     0.085 C 
ATOM     17  S   UNL d   1      -2.557  -7.247   0.351  0.00  0.00    -0.148 SA
ENDBRANCH  10  13
ENDBRANCH   3   7
BRANCH   4  18
ATOM     18  C   UNL d   1       2.303   1.694   0.811  0.00  0.00    -0.009 A 
ATOM     19  C   UNL d   1       3.639   1.266   0.806  0.00  0.00     0.016 A 
ATOM     20  C   UNL d   1       4.662   2.111   1.256  0.00  0.00     0.037 A 
ATOM     21  C   UNL d   1       4.345   3.393   1.723  0.00  0.00     0.102 A 
ATOM     22  C   UNL d   1       3.016   3.832   1.742  0.00  0.00     0.037 A 
ATOM     23  C   UNL d   1       2.003   2.981   1.288  0.00  0.00     0.016 A 
BRANCH  21  24
ATOM     24  N   UNL d   1       5.408   4.284   2.202  0.00  0.00    -0.116 N 
ATOM     25  O   UNL d   1       5.080   5.409   2.607  0.00  0.00    -0.532 OA
ATOM     26  O   UNL d   1       6.575   3.863   2.170  0.00  0.00    -0.532 OA
ENDBRANCH  21  24
ENDBRANCH   4  18
TORSDOF 4
