REMARK  1 active torsions:
REMARK  status: ('A' for Active; 'I' for Inactive)
REMARK    1  A    between atoms: C_6  and  C_3 
ROOT
ATOM      1  N   UNL d   1      -0.718  -0.968  -0.131  0.00  0.00    -0.277 N 
ATOM      2  C   UNL d   1       0.637  -1.074  -0.040  0.00  0.00     0.254 A 
ATOM      3  C   UNL d   1       1.239   0.344   0.074  0.00  0.00     0.116 A 
ATOM      4  C   UNL d   1      -1.099   0.329  -0.124  0.00  0.00     0.323 A 
ATOM      5  N   UNL d   1       0.022   1.116  -0.059  0.00  0.00    -0.325 N 
ATOM      6  O   UNL d   1       1.250  -2.132  -0.038  0.00  0.00    -0.270 OA
ATOM      7  O   UNL d   1      -2.243   0.743  -0.166  0.00  0.00    -0.247 OA
ATOM      8  C   UNL d   1       2.186   0.607  -1.091  0.00  0.00     0.049 C 
ATOM      9  H   UNL d   1      -1.353  -1.743  -0.186  0.00  0.00     0.173 HD
ATOM     10  H   UNL d   1      -0.055   2.121   0.021  0.00  0.00     0.165 HD
ENDROOT
BRANCH   3  11
ATOM     11  C   UNL d   1       1.871   0.689   1.400  0.00  0.00     0.023 A 
ATOM     12  C   UNL d   1       2.971  -0.151   2.003  0.00  0.00     0.008 A 
ATOM     13  C   UNL d   1       1.621  -0.103   2.664  0.00  0.00     0.008 A 
ENDBRANCH   3  11
TORSDOF 1
