REMARK  2 active torsions:
REMARK  status: ('A' for Active; 'I' for Inactive)
REMARK    1  A    between atoms: C_10  and  C_4 
REMARK    2  A    between atoms: C_11  and  C_10 
ROOT
ATOM      1  C   UNL d   1      -0.270   0.534  -0.083  0.00  0.00     0.178 A 
ATOM      2  C   UNL d   1      -0.302  -0.836  -0.034  0.00  0.00     0.047 A 
ATOM      3  C   UNL d   1       0.972  -1.477  -0.012  0.00  0.00    -0.033 C 
ATOM      4  C   UNL d   1       2.093  -0.711  -0.062  0.00  0.00     0.029 C 
ATOM      5  O   UNL d   1       0.750   1.363  -0.166  0.00  0.00    -0.255 OA
ATOM      6  C   UNL d   1       1.981   0.782  -0.249  0.00  0.00     0.296 C 
ATOM      7  N   UNL d   1      -1.555   0.968  -0.043  0.00  0.00    -0.279 N 
ATOM      8  N   UNL d   1      -2.441  -0.040  -0.012  0.00  0.00    -0.302 N 
ATOM      9  HN  UNL d   1      -3.459   0.025   0.010  1.00  0.00     0.186 HD
ATOM     10  C   UNL d   1      -1.688  -1.156  -0.016  0.00  0.00     0.037 A 
ATOM     11  O   UNL d   1       2.979   1.464  -0.471  0.00  0.00    -0.259 OA
ATOM     12  C   UNL d   1       1.040  -2.968   0.109  0.00  0.00     0.050 C 
ATOM     13  C   UNL d   1      -2.431  -2.442  -0.011  0.00  0.00     0.070 C 
ATOM     14  H   UNL d   1      -1.895   1.921  -0.042  0.00  0.00     0.189 HD
ENDROOT
BRANCH   4  15
ATOM     15  C   UNL d   1       3.509  -1.241  -0.017  0.00  0.00     0.089 C 
BRANCH  15  16
ATOM     16  C   UNL d   1       4.119  -1.435   1.362  0.00  0.00     0.007 A 
ATOM     17  C   UNL d   1       3.877  -0.531   2.409  0.00  0.00     0.124 A 
ATOM     18  F   UNL d   1       3.023   0.488   2.252  0.00  0.00    -0.205 F 
ATOM     19  C   UNL d   1       4.503  -0.642   3.652  0.00  0.00     0.043 A 
ATOM     20  C   UNL d   1       5.406  -1.669   3.886  0.00  0.00     0.005 A 
ATOM     21  C   UNL d   1       5.672  -2.583   2.871  0.00  0.00     0.024 A 
ATOM     22  C   UNL d   1       5.043  -2.466   1.622  0.00  0.00     0.043 A 
ATOM     23 CL   UNL d   1       5.472  -3.644   0.429  0.00  0.00    -0.084 Cl
ENDBRANCH  15  16
ENDBRANCH   4  15
TORSDOF 2
