REMARK  5 active torsions:
REMARK  status: ('A' for Active; 'I' for Inactive)
REMARK    1  A    between atoms: N_2  and  C_1 
REMARK       I    between atoms: C_3  and  N_5 
REMARK    2  A    between atoms: C_6  and  C_3 
REMARK    3  A    between atoms: N_10  and  C_4 
REMARK       I    between atoms: N_5  and  C_7 
REMARK       I    between atoms: C_7  and  N_11 
REMARK    4  A    between atoms: C_8  and  C_12 
REMARK    5  A    between atoms: N_11  and  N_10 
ROOT
ATOM      1  C   UNL d   1      -3.768  -5.324  -1.180  0.00  0.00     0.263 C 
ATOM      2  N   UNL d   1      -3.266  -4.288  -1.962  0.00  0.00    -0.274 N 
ATOM      3  C   UNL d   1      -2.112  -3.532  -1.918  0.00  0.00     0.341 C 
ATOM      4  N   UNL d   1      -1.415  -3.505  -0.730  0.00  0.00    -0.249 N 
ATOM      5  O   UNL d   1      -3.145  -5.798  -0.235  0.00  0.00    -0.267 OA
ATOM      6  O   UNL d   1      -1.833  -2.907  -2.944  0.00  0.00    -0.245 OA
ATOM      7  H   UNL d   1      -3.799  -4.032  -2.784  0.00  0.00     0.173 HD
ATOM      8  H   UNL d   1      -1.800  -3.989   0.080  0.00  0.00     0.192 HD
ENDROOT
BRANCH   4   9
ATOM      9  N   UNL d   1      -0.318  -2.586  -0.448  0.00  0.00    -0.290 N 
ATOM     10  C   UNL d   1       0.957  -3.285  -0.285  0.00  0.00     0.178 C 
BRANCH   9  11
ATOM     11  C   UNL d   1      -0.358  -1.381  -1.192  0.00  0.00     0.083 C 
ATOM     12  C   UNL d   1      -1.403  -0.446  -1.033  0.00  0.00     0.131 C 
ATOM     13  C   UNL d   1      -1.691   0.553  -1.977  0.00  0.00     0.054 C 
ATOM     14  C   UNL d   1      -0.897   0.673  -3.117  0.00  0.00     0.050 C 
ATOM     15  C   UNL d   1       0.277  -0.095  -3.189  0.00  0.00     0.019 C 
ATOM     16  C   UNL d   1       0.547  -1.098  -2.234  0.00  0.00     0.034 C 
BRANCH  12  17
ATOM     17  N   UNL d   1      -2.204  -0.439   0.170  0.00  0.00    -0.113 N 
ATOM     18  O   UNL d   1      -3.119  -1.273   0.269  0.00  0.00    -0.532 OA
ATOM     19  O   UNL d   1      -1.973   0.472   0.975  0.00  0.00    -0.532 OA
ENDBRANCH  12  17
BRANCH  14  20
ATOM     20  C   UNL d   1      -1.337   1.550  -4.266  0.00  0.00     0.417 C 
ATOM     21  F   UNL d   1      -2.578   2.085  -4.083  0.00  0.00    -0.166 F 
ATOM     22  F   UNL d   1      -0.505   2.602  -4.486  0.00  0.00    -0.166 F 
ATOM     23  F   UNL d   1      -1.405   0.868  -5.444  0.00  0.00    -0.166 F 
ENDBRANCH  14  20
ENDBRANCH   9  11
ENDBRANCH   4   9
BRANCH   1  24
ATOM     24  C   UNL d   1      -5.108  -5.867  -1.620  0.00  0.00     0.075 A 
ATOM     25  C   UNL d   1      -5.382  -7.251  -1.624  0.00  0.00     0.051 A 
ATOM     26 CL   UNL d   1      -4.249  -8.452  -1.110  0.00  0.00    -0.083 Cl
ATOM     27  C   UNL d   1      -6.609  -7.743  -2.096  0.00  0.00     0.025 A 
ATOM     28  C   UNL d   1      -7.592  -6.878  -2.575  0.00  0.00     0.003 A 
ATOM     29  C   UNL d   1      -7.352  -5.510  -2.551  0.00  0.00     0.025 A 
ATOM     30  C   UNL d   1      -6.134  -5.006  -2.064  0.00  0.00     0.051 A 
ATOM     31 CL   UNL d   1      -6.021  -3.278  -2.020  0.00  0.00    -0.083 Cl
ENDBRANCH   1  24
TORSDOF 5
