REMARK  9 active torsions:
REMARK  status: ('A' for Active; 'I' for Inactive)
REMARK    1  A    between atoms: N_6  and  C_5 
REMARK    2  A    between atoms: C_7  and  N_6 
REMARK    3  A    between atoms: C_8  and  C_7 
REMARK    4  A    between atoms: O_16  and  C_8 
REMARK    5  A    between atoms: C_20  and  C_8 
REMARK    6  A    between atoms: O_17  and  C_9 
REMARK    7  A    between atoms: O_10  and  C_20 
REMARK    8  A    between atoms: C_21  and  O_10 
REMARK    9  A    between atoms: C_11  and  C_21 
ROOT
ATOM      1  C   UNL d   1       6.008   1.106   0.396  0.00  0.00     0.170 C 
ENDROOT
BRANCH   1   2
ATOM      2  C   UNL d   1       4.580   1.146  -0.182  0.00  0.00     0.303 C 
BRANCH   2   3
ATOM      3  N   UNL d   1       3.778   0.017   0.311  0.00  0.00     0.091 N 
ATOM      4  H   UNL d   1       4.262  -0.850   0.063  0.00  0.00     0.316 HD
BRANCH   3   5
ATOM      5  C   UNL d   1       2.422   0.029  -0.248  0.00  0.00     0.229 C 
ATOM      6  C   UNL d   1       1.605   1.285   0.148  0.00  0.00     0.075 C 
ATOM      7  C   UNL d   1       0.203   0.772   0.071  0.00  0.00    -0.050 A 
ATOM      8  C   UNL d   1       0.181  -0.625   0.113  0.00  0.00    -0.050 A 
ATOM      9  C   UNL d   1      -0.966   1.511   0.027  0.00  0.00     0.007 A 
ATOM     10  C   UNL d   1       1.571  -1.179   0.220  0.00  0.00     0.075 C 
ATOM     11  C   UNL d   1      -1.018  -1.315   0.110  0.00  0.00     0.007 A 
ATOM     12  C   UNL d   1      -2.205  -0.579   0.052  0.00  0.00     0.001 A 
ATOM     13  C   UNL d   1      -2.180   0.823   0.013  0.00  0.00     0.001 A 
ENDBRANCH   3   5
ENDBRANCH   2   3
ENDBRANCH   1   2
BRANCH   1  14
ATOM     14  O   UNL d   1       6.681  -0.071  -0.075  0.00  0.00    -0.392 OA
ATOM     15  H   UNL d   1       6.881   0.106  -1.016  0.00  0.00     0.210 HD
ENDBRANCH   1  14
BRANCH   1  16
ATOM     16  C   UNL d   1       6.801   2.346  -0.040  0.00  0.00     0.201 C 
BRANCH  16  17
ATOM     17  O   UNL d   1       6.877   2.360  -1.470  0.00  0.00    -0.384 OA
BRANCH  17  18
ATOM     18  C   UNL d   1       7.550   3.521  -1.952  0.00  0.00     0.206 C 
BRANCH  18  19
ATOM     19  C   UNL d   1       7.583   3.466  -3.457  0.00  0.00    -0.034 A 
ATOM     20  C   UNL d   1       6.393   3.482  -4.196  0.00  0.00     0.012 A 
ATOM     21  C   UNL d   1       6.424   3.424  -5.591  0.00  0.00     0.037 A 
ATOM     22  C   UNL d   1       7.641   3.368  -6.271  0.00  0.00     0.068 A 
ATOM     23  C   UNL d   1       8.831   3.343  -5.544  0.00  0.00     0.037 A 
ATOM     24  C   UNL d   1       8.801   3.392  -4.145  0.00  0.00     0.012 A 
BRANCH  22  25
ATOM     25  O   UNL d   1       7.545   3.294  -7.633  0.00  0.00    -0.356 OA
ATOM     26  C   UNL d   1       8.653   3.814  -8.359  0.00  0.00     0.210 C 
ENDBRANCH  22  25
ENDBRANCH  18  19
ENDBRANCH  17  18
ENDBRANCH  16  17
ENDBRANCH   1  16
TORSDOF 9
