REMARK  7 active torsions:
REMARK  status: ('A' for Active; 'I' for Inactive)
REMARK    1  A    between atoms: C_2  and  C_1 
REMARK       I    between atoms: N_5  and  C_1 
REMARK    2  A    between atoms: O_9  and  C_3 
REMARK    3  A    between atoms: C_6  and  C_4 
REMARK    4  A    between atoms: C_7  and  N_5 
REMARK       I    between atoms: N_8  and  C_6 
REMARK    5  A    between atoms: N_15  and  N_8 
REMARK    6  A    between atoms: C_21  and  O_9 
REMARK    7  A    between atoms: C_18  and  N_15 
ROOT
ATOM      1  C   UNL d   1      -2.046  -1.615  -0.665  0.00  0.00     0.060 A 
ATOM      2  C   UNL d   1      -1.195  -1.901   0.420  0.00  0.00     0.050 A 
ATOM      3  C   UNL d   1      -3.441  -1.555  -0.469  0.00  0.00     0.019 A 
ATOM      4  C   UNL d   1      -1.775  -2.167   1.669  0.00  0.00     0.030 A 
ATOM      5  C   UNL d   1      -3.993  -1.792   0.786  0.00  0.00     0.001 A 
ATOM      6  C   UNL d   1      -3.161  -2.108   1.852  0.00  0.00     0.002 A 
ENDROOT
BRANCH   2   7
ATOM      7  N   UNL d   1       0.216  -1.806   0.295  0.00  0.00    -0.322 N 
ATOM      8  C   UNL d   1       1.136  -2.431   1.122  0.00  0.00     0.260 C 
ATOM      9  O   UNL d   1       0.909  -3.364   1.881  0.00  0.00    -0.267 OA
ATOM     10  H   UNL d   1       0.574  -1.240  -0.471  0.00  0.00     0.169 HD
BRANCH   8  11
ATOM     11  C   UNL d   1       2.494  -1.871   1.063  0.00  0.00     0.083 A 
ATOM     12  C   UNL d   1       3.610  -2.644   0.769  0.00  0.00     0.163 A 
ATOM     13  N   UNL d   1       4.869  -2.131   0.769  0.00  0.00    -0.346 N 
ATOM     14  C   UNL d   1       5.022  -0.841   1.131  0.00  0.00     0.090 A 
ATOM     15  HN  UNL d   1       5.671  -2.703   0.504  1.00  0.00     0.167 HD
ATOM     16  C   UNL d   1       3.966  -0.007   1.463  0.00  0.00     0.018 A 
ATOM     17  C   UNL d   1       2.678  -0.529   1.419  0.00  0.00     0.023 A 
BRANCH  12  18
ATOM     18  O   UNL d   1       3.422  -3.966   0.375  0.00  0.00    -0.293 OA
BRANCH  18  19
ATOM     19  C   UNL d   1       4.529  -4.784   0.401  0.00  0.00     0.077 A 
ATOM     20  C   UNL d   1       5.225  -5.040   1.586  0.00  0.00     0.037 A 
ATOM     21  C   UNL d   1       6.335  -5.886   1.570  0.00  0.00     0.003 A 
ATOM     22  C   UNL d   1       6.731  -6.496   0.379  0.00  0.00     0.000 A 
ATOM     23  C   UNL d   1       6.013  -6.269  -0.796  0.00  0.00     0.003 A 
ATOM     24  C   UNL d   1       4.906  -5.419  -0.784  0.00  0.00     0.037 A 
ENDBRANCH  18  19
ENDBRANCH  12  18
ENDBRANCH   8  11
ENDBRANCH   2   7
BRANCH   1  25
ATOM     25  C   UNL d   1      -1.583  -1.422  -2.069  0.00  0.00     0.272 C 
ATOM     26  N   UNL d   1      -0.358  -2.009  -2.396  0.00  0.00    -0.265 N 
ATOM     27  H   UNL d   1      -0.034  -2.767  -1.797  0.00  0.00     0.190 HD
ATOM     28  O   UNL d   1      -2.291  -0.792  -2.849  0.00  0.00    -0.266 OA
BRANCH  26  29
ATOM     29  N   UNL d   1      -0.067  -2.176  -3.751  0.00  0.00    -0.298 N 
ATOM     30  H   UNL d   1       0.267  -3.088  -4.057  0.00  0.00     0.187 HD
BRANCH  29  31
ATOM     31  C   UNL d   1       0.340  -1.067  -4.516  0.00  0.00     0.050 A 
ATOM     32  C   UNL d   1       0.449  -1.236  -5.905  0.00  0.00     0.056 A 
ATOM     33  C   UNL d   1       0.672  -0.145  -6.755  0.00  0.00     0.058 A 
ATOM     34 CL   UNL d   1       0.752  -0.457  -8.454  0.00  0.00    -0.082 Cl
ATOM     35  C   UNL d   1       0.792   1.140  -6.223  0.00  0.00     0.055 A 
ATOM     36  C   UNL d   1       0.697   1.324  -4.844  0.00  0.00     0.028 A 
ATOM     37 CL   UNL d   1       1.034   2.537  -7.209  0.00  0.00    -0.083 Cl
ATOM     38  C   UNL d   1       0.466   0.231  -4.003  0.00  0.00     0.033 A 
ENDBRANCH  29  31
ENDBRANCH  26  29
ENDBRANCH   1  25
TORSDOF 7
