REMARK  6 active torsions:
REMARK  status: ('A' for Active; 'I' for Inactive)
REMARK       I    between atoms: N_2  and  C_1 
REMARK    1  A    between atoms: C_8  and  C_1 
REMARK    2  A    between atoms: C_5  and  N_2 
REMARK    3  A    between atoms: C_3  and  C_10 
REMARK    4  A    between atoms: O_12  and  C_3 
REMARK    5  A    between atoms: C_4  and  C_8 
REMARK    6  A    between atoms: C_10  and  C_4 
ROOT
ATOM      1  C   UNL d   1       0.628  -0.551   0.266  0.00  0.00     0.222 C 
ATOM      2  N   UNL d   1      -0.327  -0.164  -0.660  0.00  0.00    -0.327 N 
ATOM      3  O   UNL d   1       0.403  -1.212   1.272  0.00  0.00    -0.273 OA
ATOM      4  H   UNL d   1       0.004   0.219  -1.538  0.00  0.00     0.169 HD
ENDROOT
BRANCH   1   5
ATOM      5  C   UNL d   1       2.042  -0.084  -0.063  0.00  0.00     0.112 C 
BRANCH   5   6
ATOM      6  C   UNL d   1       3.175  -1.068   0.363  0.00  0.00    -0.030 C 
ATOM      7  C   UNL d   1       4.532  -0.445  -0.034  0.00  0.00     0.016 C 
ATOM      8  C   UNL d   1       3.225  -1.257   1.900  0.00  0.00     0.016 C 
BRANCH   6   9
ATOM      9  C   UNL d   1       3.010  -2.477  -0.268  0.00  0.00     0.119 C 
BRANCH   9  10
ATOM     10  C   UNL d   1       2.942  -2.547  -1.779  0.00  0.00     0.140 C 
ATOM     11  O   UNL d   1       3.094  -1.608  -2.546  0.00  0.00    -0.650 OA
BRANCH  10  12
ATOM     12  O   UNL d   1       2.681  -3.798  -2.219  0.00  0.00    -0.776 OA
ATOM     13  H   UNL d   1       2.565  -4.451  -1.501  0.00  0.00     0.167 HD
ENDBRANCH  10  12
ENDBRANCH   9  10
ENDBRANCH   6   9
ENDBRANCH   5   6
ENDBRANCH   1   5
BRANCH   2  14
ATOM     14  C   UNL d   1      -1.700  -0.502  -0.590  0.00  0.00     0.036 A 
ATOM     15  C   UNL d   1      -2.318  -0.953   0.582  0.00  0.00     0.053 A 
ATOM     16  C   UNL d   1      -3.641  -1.390   0.562  0.00  0.00     0.036 A 
ATOM     17 CL   UNL d   1      -4.359  -1.999   2.002  0.00  0.00    -0.084 Cl
ATOM     18  C   UNL d   1      -4.378  -1.358  -0.618  0.00  0.00     0.024 A 
ATOM     19  C   UNL d   1      -3.794  -0.848  -1.777  0.00  0.00     0.004 A 
ATOM     20  C   UNL d   1      -2.464  -0.410  -1.760  0.00  0.00     0.029 A 
ENDBRANCH   2  14
TORSDOF 6
