REMARK  2 active torsions:
REMARK  status: ('A' for Active; 'I' for Inactive)
REMARK    1  A    between atoms: C_2  and  N_1 
REMARK    2  A    between atoms: O_15  and  C_8 
ROOT
ATOM      1  C   UNL d   1       0.011   2.227  -0.012  0.00  0.00     0.080 A 
ATOM      2  C   UNL d   1      -0.808   2.998   0.831  0.00  0.00     0.057 A 
ATOM      3  C   UNL d   1       0.821   2.893  -0.950  0.00  0.00     0.095 A 
ATOM      4  C   UNL d   1       0.865   4.293  -0.983  0.00  0.00     0.041 A 
ATOM      5  C   UNL d   1      -0.759   4.393   0.788  0.00  0.00     0.036 A 
ATOM      6  C   UNL d   1       0.078   5.044  -0.112  0.00  0.00     0.026 A 
ATOM      7 CL   UNL d   1      -1.715   5.314   1.883  0.00  0.00    -0.084 Cl
ENDROOT
BRANCH   1   8
ATOM      8  N   UNL d   1       0.013   0.818   0.131  0.00  0.00    -0.242 N 
ATOM      9  C   UNL d   1       1.131   0.031   0.145  0.00  0.00     0.255 A 
ATOM     10  C   UNL d   1       0.675  -1.353   0.324  0.00  0.00     0.080 A 
ATOM     11  O   UNL d   1       2.314   0.316   0.105  0.00  0.00    -0.268 OA
ATOM     12  C   UNL d   1      -0.647  -1.337   0.473  0.00  0.00     0.080 A 
ATOM     13  C   UNL d   1      -1.091   0.059   0.386  0.00  0.00     0.255 A 
ATOM     14  O   UNL d   1      -2.263   0.377   0.485  0.00  0.00    -0.268 OA
ENDBRANCH   1   8
BRANCH   3  15
ATOM     15  O   UNL d   1       1.597   2.275  -1.895  0.00  0.00    -0.354 OA
ATOM     16  C   UNL d   1       0.863   1.437  -2.788  0.00  0.00     0.210 C 
ENDBRANCH   3  15
TORSDOF 2
