REMARK  8 active torsions:
REMARK  status: ('A' for Active; 'I' for Inactive)
REMARK       I    between atoms: N_2  and  C_1 
REMARK       I    between atoms: N_8  and  C_1 
REMARK    1  A    between atoms: C_3  and  N_2 
REMARK    2  A    between atoms: S_9  and  C_3 
REMARK    3  A    between atoms: N_6  and  N_4 
REMARK    4  A    between atoms: C_15  and  N_8 
REMARK    5  A    between atoms: C_12  and  S_9 
REMARK    6  A    between atoms: C_13  and  C_11 
REMARK    7  A    between atoms: C_16  and  C_12 
REMARK    8  A    between atoms: O_27  and  C_17 
ROOT
ATOM      1  C   UNL d   1       1.121   0.594  -2.456  0.00  0.00     0.163 C 
ATOM      2  N   UNL d   1       2.324   0.241  -2.781  0.00  0.00    -0.280 N 
ATOM      3  HN  UNL d   1       2.681   0.330  -3.733  1.00  0.00     0.189 HD
ENDROOT
BRANCH   1   4
ATOM      4  N   UNL d   1       0.447   0.580  -1.250  0.00  0.00    -0.288 N 
ATOM      5  C   UNL d   1       0.889   0.519   0.046  0.00  0.00     0.326 C 
ATOM      6  N   UNL d   1      -0.058   0.316   1.014  0.00  0.00    -0.309 N 
ATOM      7  O   UNL d   1       2.014   0.812   0.443  0.00  0.00    -0.247 OA
ATOM      8  H   UNL d   1       0.337   0.539   1.920  0.00  0.00     0.170 HD
ATOM      9  H   UNL d   1      -0.511   0.877  -1.339  0.00  0.00     0.172 HD
BRANCH   6  10
ATOM     10  C   UNL d   1      -1.411  -0.059   1.003  0.00  0.00     0.036 A 
ATOM     11  C   UNL d   1      -2.053  -0.709  -0.052  0.00  0.00     0.029 A 
ATOM     12  C   UNL d   1      -3.416  -1.020   0.040  0.00  0.00     0.002 A 
ATOM     13  C   UNL d   1      -4.139  -0.694   1.187  0.00  0.00     0.000 A 
ATOM     14  C   UNL d   1      -3.499  -0.078   2.256  0.00  0.00     0.002 A 
ATOM     15  C   UNL d   1      -2.139   0.226   2.167  0.00  0.00     0.029 A 
ENDBRANCH   6  10
ENDBRANCH   1   4
BRANCH   1  16
ATOM     16  S   UNL d   1       0.006   1.186  -3.676  0.00  0.00    -0.088 SA
BRANCH  16  17
ATOM     17  C   UNL d   1       0.903   0.773  -5.198  0.00  0.00     0.121 C 
BRANCH  17  18
ATOM     18  C   UNL d   1       0.107   1.183  -6.418  0.00  0.00    -0.048 A 
ATOM     19  C   UNL d   1       0.353   2.414  -7.049  0.00  0.00     0.011 A 
ATOM     20  C   UNL d   1      -0.398   2.802  -8.161  0.00  0.00     0.043 A 
ATOM     21  C   UNL d   1      -1.399   1.966  -8.636  0.00  0.00     0.116 A 
ATOM     22  C   UNL d   1      -1.665   0.748  -8.026  0.00  0.00     0.043 A 
ATOM     23  F   UNL d   1      -2.122   2.341  -9.703  0.00  0.00    -0.206 F 
ATOM     24  C   UNL d   1      -0.914   0.356  -6.915  0.00  0.00     0.011 A 
ENDBRANCH  17  18
ENDBRANCH  16  17
ENDBRANCH   1  16
BRANCH   2  25
ATOM     25  N   UNL d   1       3.090  -0.265  -1.748  0.00  0.00    -0.309 N 
ATOM     26  C   UNL d   1       4.229  -0.729  -2.150  0.00  0.00     0.118 C 
ATOM     27  HN  UNL d   1       2.789  -0.272  -0.773  1.00  0.00     0.186 HD
BRANCH  26  28
ATOM     28  C   UNL d   1       5.216  -1.282  -1.199  0.00  0.00    -0.019 A 
ATOM     29  C   UNL d   1       5.032  -1.147   0.181  0.00  0.00     0.015 A 
ATOM     30  C   UNL d   1       5.973  -1.674   1.072  0.00  0.00     0.037 A 
ATOM     31  C   UNL d   1       7.100  -2.337   0.586  0.00  0.00     0.068 A 
ATOM     32  C   UNL d   1       7.271  -2.485  -0.794  0.00  0.00     0.037 A 
ATOM     33  C   UNL d   1       6.340  -1.949  -1.690  0.00  0.00     0.015 A 
BRANCH  31  34
ATOM     34  O   UNL d   1       8.071  -2.915   1.359  0.00  0.00    -0.356 OA
ATOM     35  C   UNL d   1       8.271  -2.328   2.640  0.00  0.00     0.210 C 
ENDBRANCH  31  34
ENDBRANCH  26  28
ENDBRANCH   2  25
TORSDOF 8
