REMARK  4 active torsions:
REMARK  status: ('A' for Active; 'I' for Inactive)
REMARK    1  A    between atoms: C_4  and  C_2 
REMARK    2  A    between atoms: S_3  and  C_4 
REMARK    3  A    between atoms: C_5  and  S_3 
REMARK    4  A    between atoms: N_9  and  C_7 
ROOT
ATOM      1  S   UNL d   1      -0.828  -3.717  -0.125  0.00  0.00    -0.123 SA
ENDROOT
BRANCH   1   2
ATOM      2  C   UNL d   1      -2.132  -2.446   0.012  0.00  0.00     0.121 C 
BRANCH   2   3
ATOM      3  C   UNL d   1      -1.535  -1.063   0.092  0.00  0.00    -0.008 A 
ATOM      4  C   UNL d   1      -1.742  -0.136  -0.936  0.00  0.00     0.145 A 
ATOM      5  C   UNL d   1      -1.179   1.140  -0.876  0.00  0.00     0.073 A 
ATOM      6  F   UNL d   1      -2.498  -0.484  -1.990  0.00  0.00    -0.204 F 
ATOM      7 CL   UNL d   1      -1.441   2.276  -2.144  0.00  0.00    -0.081 Cl
ATOM      8  C   UNL d   1      -0.399   1.509   0.220  0.00  0.00     0.027 A 
ATOM      9  C   UNL d   1      -0.192   0.602   1.258  0.00  0.00     0.002 A 
ATOM     10  C   UNL d   1      -0.761  -0.673   1.198  0.00  0.00     0.011 A 
ENDBRANCH   2   3
ENDBRANCH   1   2
BRANCH   1  11
ATOM     11  C   UNL d   1      -1.719  -5.284  -0.062  0.00  0.00     0.021 A 
ATOM     12  C   UNL d   1      -0.950  -6.475  -0.024  0.00  0.00     0.022 A 
ATOM     13  C   UNL d   1      -1.598  -7.717  -0.037  0.00  0.00     0.024 A 
ATOM     14  C   UNL d   1      -2.989  -7.796  -0.002  0.00  0.00     0.002 A 
ATOM     15  C   UNL d   1      -3.746  -6.630   0.012  0.00  0.00     0.001 A 
ATOM     16  C   UNL d   1      -3.117  -5.381  -0.025  0.00  0.00     0.020 A 
BRANCH  12  17
ATOM     17  N   UNL d   1       0.452  -6.452  -0.188  0.00  0.00    -0.302 NA
ATOM     18  H   UNL d   1       0.837  -5.540   0.055  0.00  0.00     0.124 HD
ATOM     19  H   UNL d   1       0.932  -7.221   0.265  0.00  0.00     0.124 HD
ENDBRANCH  12  17
ENDBRANCH   1  11
TORSDOF 4
