REMARK  5 active torsions:
REMARK  status: ('A' for Active; 'I' for Inactive)
REMARK    1  A    between atoms: N_11  and  C_2 
REMARK    2  A    between atoms: N_13  and  C_5 
REMARK    3  A    between atoms: N_14  and  C_7 
REMARK       I    between atoms: C_8  and  N_12 
REMARK       I    between atoms: N_15  and  C_8 
REMARK    4  A    between atoms: N_12  and  N_14 
REMARK    5  A    between atoms: C_17  and  N_15 
ROOT
ATOM      1  C   UNL d   1       0.622   0.048  -0.152  0.00  0.00     0.115 A 
ATOM      2  C   UNL d   1      -0.157  -1.131  -0.059  0.00  0.00     0.127 A 
ATOM      3  N   UNL d   1      -1.512  -1.056  -0.065  0.00  0.00    -0.331 N 
ATOM      4  HN  UNL d   1      -2.072  -1.903   0.034  1.00  0.00     0.168 HD
ATOM      5  C   UNL d   1       0.016   1.329  -0.128  0.00  0.00     0.057 A 
ATOM      6  C   UNL d   1      -1.384   1.328  -0.198  0.00  0.00     0.075 A 
ATOM      7  C   UNL d   1      -2.114   0.140  -0.202  0.00  0.00     0.102 A 
ATOM      8  C   UNL d   1       2.018  -0.064  -0.454  0.00  0.00     0.105 C 
ATOM      9  N   UNL d   1       3.162  -0.161  -0.663  0.00  0.00    -0.191 NA
ENDROOT
BRANCH   2  10
ATOM     10  N   UNL d   1       0.400  -2.407  -0.035  0.00  0.00    -0.375 N 
ATOM     11  C   UNL d   1      -0.428  -3.538  -0.432  0.00  0.00     0.150 C 
ATOM     12  C   UNL d   1       1.560  -2.720   0.794  0.00  0.00     0.150 C 
ENDBRANCH   2  10
BRANCH   5  13
ATOM     13  N   UNL d   1       0.740   2.533  -0.135  0.00  0.00    -0.388 N 
ATOM     14  C   UNL d   1       1.912   2.694   0.741  0.00  0.00     0.149 C 
ATOM     15  C   UNL d   1       0.073   3.803  -0.434  0.00  0.00     0.149 C 
ENDBRANCH   5  13
BRANCH   7  16
ATOM     16  N   UNL d   1      -3.522   0.254  -0.402  0.00  0.00    -0.186 NA
ATOM     17  H   UNL d   1      -3.679   0.533  -1.379  0.00  0.00     0.154 HD
BRANCH  16  18
ATOM     18  N   UNL d   1      -4.229  -0.942  -0.127  0.00  0.00    -0.267 N 
ATOM     19  C   UNL d   1      -5.306  -1.224  -0.959  0.00  0.00     0.331 C 
ATOM     20  N   UNL d   1      -6.121  -2.182  -0.403  0.00  0.00    -0.338 N 
ATOM     21  O   UNL d   1      -5.494  -0.669  -2.033  0.00  0.00    -0.246 OA
ATOM     22  H   UNL d   1      -5.687  -2.759   0.300  0.00  0.00     0.164 HD
ATOM     23  H   UNL d   1      -4.364  -1.089   0.864  0.00  0.00     0.186 HD
BRANCH  20  24
ATOM     24  C   UNL d   1      -7.332  -2.712  -1.022  0.00  0.00     0.078 C 
ATOM     25  C   UNL d   1      -8.390  -1.641  -1.278  0.00  0.00     0.032 C 
ATOM     26  C   UNL d   1      -7.037  -3.518  -2.282  0.00  0.00     0.032 C 
ENDBRANCH  20  24
ENDBRANCH  16  18
ENDBRANCH   7  16
TORSDOF 5
