REMARK  4 active torsions:
REMARK  status: ('A' for Active; 'I' for Inactive)
REMARK    1  A    between atoms: C_7  and  N_1 
REMARK    2  A    between atoms: S_11  and  C_6 
REMARK    3  A    between atoms: C_10  and  C_7 
REMARK    4  A    between atoms: C_19  and  S_11 
ROOT
ATOM      1  N   UNL d   1      -2.393   0.037  -0.311  0.00  0.00    -0.275 N 
ATOM      2  C   UNL d   1      -1.677  -1.127  -0.212  0.00  0.00     0.264 A 
ATOM      3  C   UNL d   1      -0.283  -0.745   0.013  0.00  0.00     0.082 A 
ATOM      4  C   UNL d   1      -1.592   1.132  -0.168  0.00  0.00     0.262 A 
ATOM      5  C   UNL d   1      -0.238   0.633   0.037  0.00  0.00     0.053 A 
ATOM      6  C   UNL d   1       0.891  -1.446   0.085  0.00  0.00     0.091 A 
ATOM      7  N   UNL d   1       2.080  -0.781   0.148  0.00  0.00    -0.353 N 
ATOM      8  HN  UNL d   1       2.956  -1.302   0.204  1.00  0.00     0.166 HD
ATOM      9  O   UNL d   1      -2.084  -2.267  -0.334  0.00  0.00    -0.267 OA
ATOM     10  C   UNL d   1       0.938   1.346   0.105  0.00  0.00     0.042 A 
ATOM     11  O   UNL d   1      -1.859   2.314  -0.251  0.00  0.00    -0.267 OA
ATOM     12  C   UNL d   1       2.095   0.586   0.137  0.00  0.00     0.007 A 
ATOM     13  C   UNL d   1       3.442   1.242   0.055  0.00  0.00     0.068 C 
ENDROOT
BRANCH   1  14
ATOM     14  C   UNL d   1      -3.781   0.107  -0.727  0.00  0.00     0.176 C 
BRANCH  14  15
ATOM     15  C   UNL d   1      -4.750  -0.031   0.424  0.00  0.00    -0.018 A 
ATOM     16  C   UNL d   1      -5.330   1.069   1.078  0.00  0.00     0.043 A 
ATOM     17  C   UNL d   1      -6.198   0.882   2.157  0.00  0.00     0.048 A 
ATOM     18 CL   UNL d   1      -5.040   2.696   0.582  0.00  0.00    -0.084 Cl
ATOM     19  C   UNL d   1      -6.503  -0.405   2.587  0.00  0.00     0.035 A 
ATOM     20  C   UNL d   1      -5.954  -1.510   1.945  0.00  0.00     0.024 A 
ATOM     21 CL   UNL d   1      -7.564  -0.631   3.921  0.00  0.00    -0.084 Cl
ATOM     22  C   UNL d   1      -5.080  -1.324   0.873  0.00  0.00     0.012 A 
ENDBRANCH  14  15
ENDBRANCH   1  14
BRANCH   6  23
ATOM     23  S   UNL d   1       0.996  -3.213  -0.013  0.00  0.00    -0.072 SA
BRANCH  23  24
ATOM     24  C   UNL d   1       1.018  -3.653   1.713  0.00  0.00     0.007 A 
ATOM     25  C   UNL d   1      -0.034  -4.409   2.243  0.00  0.00     0.020 A 
ATOM     26  C   UNL d   1      -0.013  -4.807   3.583  0.00  0.00     0.025 A 
ATOM     27  C   UNL d   1       1.064  -4.451   4.394  0.00  0.00     0.034 A 
ATOM     28  C   UNL d   1       2.118  -3.701   3.876  0.00  0.00     0.025 A 
ATOM     29 CL   UNL d   1       1.097  -4.950   6.039  0.00  0.00    -0.084 Cl
ATOM     30  C   UNL d   1       2.096  -3.306   2.536  0.00  0.00     0.020 A 
ENDBRANCH  23  24
ENDBRANCH   6  23
TORSDOF 4
