REMARK  5 active torsions:
REMARK  status: ('A' for Active; 'I' for Inactive)
REMARK    1  A    between atoms: C_8  and  C_3 
REMARK    2  A    between atoms: C_12  and  C_4 
REMARK    3  A    between atoms: C_7  and  O_10 
REMARK    4  A    between atoms: C_9  and  C_7 
REMARK    5  A    between atoms: O_10  and  C_12 
ROOT
ATOM      1  N   UNL d   1       1.509  -0.533  -0.135  0.00  0.00    -0.351 N 
ATOM      2  HN  UNL d   1       2.408  -1.012  -0.193  1.00  0.00     0.166 HD
ATOM      3  C   UNL d   1       1.346   0.843  -0.049  0.00  0.00     0.049 A 
ATOM      4  C   UNL d   1       0.334  -1.131  -0.132  0.00  0.00     0.075 A 
ATOM      5  S   UNL d   1      -1.024  -0.077  -0.009  0.00  0.00    -0.084 SA
ATOM      6  C   UNL d   1       0.033   1.268   0.010  0.00  0.00     0.082 A 
ENDROOT
BRANCH   4   7
ATOM      7  C   UNL d   1       0.095  -2.609  -0.163  0.00  0.00     0.243 C 
BRANCH   7   8
ATOM      8  O   UNL d   1       1.173  -3.284  -0.844  0.00  0.00    -0.314 OA
BRANCH   8   9
ATOM      9  C   UNL d   1       1.087  -3.316  -2.200  0.00  0.00     0.266 C 
ATOM     10  O   UNL d   1       0.223  -2.737  -2.855  0.00  0.00    -0.264 OA
BRANCH   9  11
ATOM     11  C   UNL d   1       2.136  -4.254  -2.825  0.00  0.00     0.037 C 
ATOM     12  C   UNL d   1       3.091  -4.857  -1.783  0.00  0.00     0.025 C 
ATOM     13  C   UNL d   1       1.376  -5.388  -3.531  0.00  0.00     0.025 C 
ATOM     14  C   UNL d   1       2.967  -3.486  -3.862  0.00  0.00     0.025 C 
ENDBRANCH   9  11
ENDBRANCH   8   9
ENDBRANCH   7   8
ENDBRANCH   4   7
BRANCH   3  15
ATOM     15  C   UNL d   1       2.490   1.748  -0.050  0.00  0.00    -0.009 A 
ATOM     16  C   UNL d   1       3.670   1.371  -0.703  0.00  0.00     0.014 A 
ATOM     17  C   UNL d   1       4.770   2.233  -0.741  0.00  0.00     0.007 A 
ATOM     18  C   UNL d   1       4.713   3.484  -0.115  0.00  0.00    -0.062 A 
ATOM     19  C   UNL d   1       3.543   3.856   0.553  0.00  0.00     0.007 A 
ATOM     20  C   UNL d   1       5.893   4.408  -0.172  0.00  0.00     0.048 C 
ATOM     21  C   UNL d   1       2.443   2.994   0.588  0.00  0.00     0.014 A 
ENDBRANCH   3  15
TORSDOF 5
