REMARK  7 active torsions:
REMARK  status: ('A' for Active; 'I' for Inactive)
REMARK    1  A    between atoms: C_7  and  N_1 
REMARK    2  A    between atoms: N_18  and  C_4 
REMARK    3  A    between atoms: C_16  and  C_6 
REMARK    4  A    between atoms: C_8  and  C_10 
REMARK    5  A    between atoms: C_9  and  C_11 
REMARK    6  A    between atoms: C_12  and  O_17 
REMARK    7  A    between atoms: O_17  and  C_30 
ROOT
ATOM      1  N   UNL d   1       0.832  -0.746   0.046  0.00  0.00    -0.240 N 
ATOM      2  N   UNL d   1       0.882   0.595   0.264  0.00  0.00    -0.291 N 
ATOM      3  HN  UNL d   1       1.700   1.147   0.523  1.00  0.00     0.187 HD
ATOM      4  C   UNL d   1      -0.487  -1.182  -0.103  0.00  0.00     0.123 C 
ATOM      5  C   UNL d   1      -1.253  -0.044  -0.149  0.00  0.00     0.081 C 
ATOM      6  C   UNL d   1      -0.368   1.042   0.067  0.00  0.00     0.062 C 
ENDROOT
BRANCH   1   7
ATOM      7  C   UNL d   1       2.036  -1.512   0.026  0.00  0.00     0.060 A 
ATOM      8  C   UNL d   1       3.182  -1.013   0.664  0.00  0.00     0.047 A 
ATOM      9  C   UNL d   1       4.354  -1.784   0.732  0.00  0.00     0.051 A 
ATOM     10  C   UNL d   1       4.377  -3.047   0.112  0.00  0.00     0.032 A 
ATOM     11  C   UNL d   1       3.252  -3.542  -0.565  0.00  0.00     0.051 A 
ATOM     12  C   UNL d   1       2.090  -2.758  -0.614  0.00  0.00     0.047 A 
BRANCH   9  13
ATOM     13  C   UNL d   1       5.571  -1.294   1.485  0.00  0.00     0.417 C 
ATOM     14  F   UNL d   1       5.386  -0.102   2.115  0.00  0.00    -0.166 F 
ATOM     15  F   UNL d   1       5.961  -2.171   2.452  0.00  0.00    -0.166 F 
ATOM     16  F   UNL d   1       6.651  -1.129   0.674  0.00  0.00    -0.166 F 
ENDBRANCH   9  13
BRANCH  11  17
ATOM     17  C   UNL d   1       3.290  -4.909  -1.211  0.00  0.00     0.417 C 
ATOM     18  F   UNL d   1       2.096  -5.291  -1.743  0.00  0.00    -0.166 F 
ATOM     19  F   UNL d   1       4.197  -4.988  -2.221  0.00  0.00    -0.166 F 
ATOM     20  F   UNL d   1       3.627  -5.886  -0.323  0.00  0.00    -0.166 F 
ENDBRANCH  11  17
ENDBRANCH   1   7
BRANCH   4  21
ATOM     21  N   UNL d   1      -0.902  -2.477  -0.133  0.00  0.00    -0.384 N 
ATOM     22  H   UNL d   1      -0.355  -3.192   0.344  0.00  0.00     0.157 HD
ATOM     23  H   UNL d   1      -1.901  -2.670  -0.050  0.00  0.00     0.157 HD
ENDBRANCH   4  21
BRANCH   6  24
ATOM     24  C   UNL d   1      -0.697   2.474   0.106  0.00  0.00    -0.008 A 
ATOM     25  C   UNL d   1       0.298   3.439   0.327  0.00  0.00     0.016 A 
ATOM     26  C   UNL d   1      -0.003   4.810   0.320  0.00  0.00     0.038 A 
ATOM     27  C   UNL d   1      -1.301   5.239   0.062  0.00  0.00     0.078 A 
ATOM     28  C   UNL d   1      -2.306   4.286  -0.111  0.00  0.00     0.038 A 
ATOM     29  C   UNL d   1      -2.009   2.920  -0.096  0.00  0.00     0.016 A 
BRANCH  27  30
ATOM     30  O   UNL d   1      -1.734   6.526  -0.021  0.00  0.00    -0.255 OA
BRANCH  30  31
ATOM     31  C   UNL d   1      -0.818   7.547  -0.387  0.00  0.00     0.530 C 
ATOM     32  F   UNL d   1       0.273   7.092  -1.038  0.00  0.00    -0.144 F 
ATOM     33  F   UNL d   1      -1.456   8.410  -1.211  0.00  0.00    -0.144 F 
ATOM     34  F   UNL d   1      -0.430   8.225   0.713  0.00  0.00    -0.144 F 
ENDBRANCH  30  31
ENDBRANCH  27  30
ENDBRANCH   6  24
TORSDOF 7
