REMARK  3 active torsions:
REMARK  status: ('A' for Active; 'I' for Inactive)
REMARK    1  A    between atoms: C_4  and  C_1 
REMARK    2  A    between atoms: O_13  and  C_1 
REMARK    3  A    between atoms: O_15  and  C_7 
ROOT
ATOM      1  C   UNL d   1      -1.824  -0.003  -0.173  0.00  0.00     0.218 A 
ATOM      2  C   UNL d   1      -0.791  -1.137  -0.112  0.00  0.00     0.207 A 
ATOM      3  C   UNL d   1      -0.921   1.253  -0.171  0.00  0.00     0.207 A 
ATOM      4  C   UNL d   1       0.548  -0.564  -0.066  0.00  0.00     0.028 A 
ATOM      5  C   UNL d   1       0.475   0.820  -0.078  0.00  0.00     0.028 A 
ATOM      6  O   UNL d   1      -1.240   2.428  -0.141  0.00  0.00    -0.288 OA
ATOM      7  O   UNL d   1      -1.003  -2.340  -0.052  0.00  0.00    -0.288 OA
ATOM      8  C   UNL d   1       1.608   1.604   0.055  0.00  0.00     0.016 A 
ATOM      9  C   UNL d   1       1.754  -1.230   0.049  0.00  0.00     0.016 A 
ATOM     10  C   UNL d   1       2.911  -0.456   0.174  0.00  0.00     0.001 A 
ATOM     11  C   UNL d   1       2.838   0.950   0.185  0.00  0.00     0.001 A 
ENDROOT
BRANCH   1  12
ATOM     12  C   UNL d   1      -2.804  -0.035  -1.342  0.00  0.00     0.026 A 
ATOM     13  C   UNL d   1      -2.843  -1.011  -2.354  0.00  0.00     0.081 A 
ATOM     14  C   UNL d   1      -3.812  -0.989  -3.372  0.00  0.00    -0.028 A 
ATOM     15  C   UNL d   1      -3.892  -2.049  -4.436  0.00  0.00     0.051 C 
ATOM     16  C   UNL d   1      -4.744   0.055  -3.405  0.00  0.00     0.016 A 
ATOM     17  C   UNL d   1      -4.726   1.059  -2.437  0.00  0.00    -0.061 A 
ATOM     18  C   UNL d   1      -3.772   0.995  -1.412  0.00  0.00     0.020 A 
ATOM     19  C   UNL d   1      -5.701   2.198  -2.491  0.00  0.00     0.048 C 
BRANCH  13  20
ATOM     20  O   UNL d   1      -1.923  -2.020  -2.424  0.00  0.00    -0.359 OA
ATOM     21  H   UNL d   1      -1.950  -2.521  -1.580  0.00  0.00     0.217 HD
ENDBRANCH  13  20
ENDBRANCH   1  12
BRANCH   1  22
ATOM     22  O   UNL d   1      -2.596  -0.054   1.033  0.00  0.00    -0.370 OA
ATOM     23  H   UNL d   1      -1.991  -0.017   1.792  0.00  0.00     0.212 HD
ENDBRANCH   1  22
TORSDOF 3
