REMARK  4 active torsions:
REMARK  status: ('A' for Active; 'I' for Inactive)
REMARK    1  A    between atoms: C_2  and  S_1 
REMARK    2  A    between atoms: N_4  and  S_1 
REMARK    3  A    between atoms: C_8  and  C_5 
REMARK    4  A    between atoms: O_15  and  C_8 
ROOT
ATOM      1  C   UNL d   1       1.119   0.966  -1.970  0.00  0.00     0.185 A 
ATOM      2  O   UNL d   1       0.008   0.716  -2.752  0.00  0.00    -0.291 OA
ATOM      3  C   UNL d   1       0.115   1.466  -3.897  0.00  0.00     0.152 A 
ATOM      4  C   UNL d   1       1.909   1.900  -2.636  0.00  0.00     0.054 A 
ATOM      5  C   UNL d   1       1.277   2.209  -3.855  0.00  0.00     0.047 A 
ENDROOT
BRANCH   1   6
ATOM      6  S   UNL d   1       1.424   0.172  -0.385  0.00  0.00     0.266 S 
ATOM      7  O   UNL d   1       1.214   1.222   0.587  0.00  0.00    -0.204 OA
ATOM      8  O   UNL d   1       2.728  -0.428  -0.559  0.00  0.00    -0.204 OA
BRANCH   6   9
ATOM      9  N   UNL d   1       0.301  -1.070  -0.113  0.00  0.00    -0.201 NA
ATOM     10  C   UNL d   1      -1.082  -0.645   0.272  0.00  0.00     0.134 C 
ATOM     11  C   UNL d   1      -1.189  -0.318   1.773  0.00  0.00     0.183 C 
ATOM     12  O   UNL d   1      -0.691  -1.383   2.598  0.00  0.00    -0.389 OA
ATOM     13  C   UNL d   1       0.674  -1.685   2.273  0.00  0.00     0.183 C 
ATOM     14  C   UNL d   1       0.777  -2.143   0.817  0.00  0.00     0.134 C 
ENDBRANCH   6   9
ENDBRANCH   1   6
BRANCH   3  15
ATOM     15  C   UNL d   1      -0.893   1.411  -4.932  0.00  0.00     0.317 C 
ATOM     16  O   UNL d   1      -0.841   2.031  -5.989  0.00  0.00    -0.257 OA
BRANCH  15  17
ATOM     17  O   UNL d   1      -1.912   0.577  -4.579  0.00  0.00    -0.321 OA
ATOM     18  C   UNL d   1      -2.941   0.486  -5.568  0.00  0.00     0.213 C 
ENDBRANCH  15  17
ENDBRANCH   3  15
TORSDOF 4
