REMARK  5 active torsions:
REMARK  status: ('A' for Active; 'I' for Inactive)
REMARK    1  A    between atoms: C_2  and  N_1 
REMARK       I    between atoms: C_4  and  N_1 
REMARK    2  A    between atoms: C_15  and  C_4 
REMARK    3  A    between atoms: S_10  and  C_15 
REMARK    4  A    between atoms: C_16  and  S_10 
REMARK    5  A    between atoms: C_11  and  C_16 
ROOT
ATOM      1  N   UNL d   1       1.035   0.212  -0.091  0.00  0.00    -0.324 N 
ATOM      2  C   UNL d   1       2.393  -0.025   0.052  0.00  0.00     0.231 C 
ATOM      3  O   UNL d   1       2.923  -0.737   0.903  0.00  0.00    -0.272 OA
ATOM      4  H   UNL d   1       0.738   0.620  -0.969  0.00  0.00     0.169 HD
ENDROOT
BRANCH   1   5
ATOM      5  C   UNL d   1       0.009  -0.223   0.780  0.00  0.00     0.073 A 
ATOM      6  C   UNL d   1       0.191  -0.564   2.130  0.00  0.00     0.145 A 
ATOM      7  C   UNL d   1      -0.872  -1.016   2.910  0.00  0.00     0.086 A 
ATOM      8  F   UNL d   1       1.363  -0.380   2.751  0.00  0.00    -0.204 F 
ATOM      9  C   UNL d   1      -2.135  -1.110   2.347  0.00  0.00     0.119 A 
ATOM     10  C   UNL d   1      -2.356  -0.739   1.027  0.00  0.00     0.044 A 
ATOM     11  F   UNL d   1      -3.160  -1.546   3.090  0.00  0.00    -0.206 F 
ATOM     12  C   UNL d   1      -1.288  -0.286   0.246  0.00  0.00     0.036 A 
ENDBRANCH   1   5
BRANCH   2  13
ATOM     13  C   UNL d   1       3.247   0.682  -0.988  0.00  0.00     0.177 C 
BRANCH  13  14
ATOM     14  S   UNL d   1       3.712   2.349  -0.415  0.00  0.00    -0.152 SA
BRANCH  14  15
ATOM     15  C   UNL d   1       4.638   1.924   1.101  0.00  0.00     0.152 C 
BRANCH  15  16
ATOM     16  C   UNL d   1       5.807   0.985   0.856  0.00  0.00     0.132 C 
ATOM     17  O   UNL d   1       6.453   0.966  -0.194  0.00  0.00    -0.298 OA
ATOM     18  C   UNL d   1       6.202   0.103   2.013  0.00  0.00     0.091 C 
ENDBRANCH  15  16
ENDBRANCH  14  15
ENDBRANCH  13  14
ENDBRANCH   2  13
TORSDOF 5
