REMARK  2 active torsions:
REMARK  status: ('A' for Active; 'I' for Inactive)
REMARK    1  A    between atoms: C_6  and  N_1 
REMARK    2  A    between atoms: N_7  and  C_6 
ROOT
ATOM      1  N   UNL d   1      -0.595  -1.774  -0.011  0.00  0.00    -0.285 N 
ATOM      2  C   UNL d   1       0.579   0.202  -0.688  0.00  0.00     0.280 A 
ATOM      3  C   UNL d   1       0.231  -1.295  -1.038  0.00  0.00     0.294 A 
ATOM      4  C   UNL d   1      -0.170   0.398   0.602  0.00  0.00     0.040 A 
ATOM      5  C   UNL d   1      -0.804  -0.793   0.968  0.00  0.00     0.051 A 
ATOM      6  O   UNL d   1       0.127   1.115  -1.689  0.00  0.00    -0.342 OA
ATOM      7  O   UNL d   1       1.983   0.372  -0.462  0.00  0.00    -0.342 OA
ATOM      8  O   UNL d   1       0.618  -1.921  -2.015  0.00  0.00    -0.266 OA
ATOM      9  C   UNL d   1      -0.274   1.530   1.396  0.00  0.00     0.015 A 
ATOM     10  C   UNL d   1      -1.525  -0.893   2.145  0.00  0.00     0.030 A 
ATOM     11  C   UNL d   1       1.284   1.868  -2.050  0.00  0.00     0.198 C 
ATOM     12  C   UNL d   1       2.440   0.987  -1.663  0.00  0.00     0.198 C 
ATOM     13  C   UNL d   1      -1.018   1.448   2.575  0.00  0.00     0.001 A 
ATOM     14  C   UNL d   1      -1.630   0.241   2.951  0.00  0.00     0.002 A 
ENDROOT
BRANCH   1  15
ATOM     15  C   UNL d   1      -1.069  -3.128   0.044  0.00  0.00     0.405 C 
BRANCH  15  16
ATOM     16  N   UNL d   1      -2.544  -3.205   0.106  0.00  0.00     0.106 N 
ATOM     17  C   UNL d   1      -3.149  -2.710  -1.133  0.00  0.00     0.274 C 
ATOM     18  C   UNL d   1      -4.639  -2.369  -1.028  0.00  0.00     0.030 C 
ATOM     19  C   UNL d   1      -5.571  -3.565  -1.126  0.00  0.00     0.002 C 
ATOM     20  C   UNL d   1      -5.448  -4.509   0.058  0.00  0.00     0.002 C 
ATOM     21  C   UNL d   1      -4.145  -5.287   0.019  0.00  0.00     0.030 C 
ATOM     22  C   UNL d   1      -2.911  -4.558   0.549  0.00  0.00     0.274 C 
ENDBRANCH  15  16
ENDBRANCH   1  15
TORSDOF 2
