REMARK  5 active torsions:
REMARK  status: ('A' for Active; 'I' for Inactive)
REMARK    1  A    between atoms: C_2  and  S_1 
REMARK    2  A    between atoms: N_5  and  S_1 
REMARK    3  A    between atoms: N_4  and  C_3 
REMARK    4  A    between atoms: C_9  and  C_13 
REMARK    5  A    between atoms: O_19  and  C_14 
ROOT
ATOM      1  N   UNL d   1      -0.043   1.071  -1.310  0.00  0.00    -0.206 NA
ATOM      2  C   UNL d   1       0.193   2.479  -0.864  0.00  0.00     0.108 C 
ATOM      3  C   UNL d   1       0.641   0.700  -2.613  0.00  0.00     0.108 C 
ATOM      4  C   UNL d   1       1.113   3.109  -3.230  0.00  0.00     0.024 C 
ATOM      5  C   UNL d   1       0.315   3.516  -1.985  0.00  0.00     0.025 C 
ATOM      6  C   UNL d   1       0.578   1.758  -3.697  0.00  0.00     0.025 C 
ENDROOT
BRANCH   1   7
ATOM      7  S   UNL d   1       0.411  -0.168  -0.152  0.00  0.00     0.246 S 
ATOM      8  O   UNL d   1       0.098  -1.427  -0.802  0.00  0.00    -0.206 OA
ATOM      9  O   UNL d   1       1.750   0.147   0.286  0.00  0.00    -0.206 OA
BRANCH   7  10
ATOM     10  C   UNL d   1      -0.596  -0.128   1.300  0.00  0.00     0.107 A 
ATOM     11  C   UNL d   1      -0.326  -1.035   2.339  0.00  0.00     0.125 A 
ATOM     12  C   UNL d   1      -1.089  -1.065   3.513  0.00  0.00     0.038 A 
ATOM     13  C   UNL d   1      -2.124  -0.153   3.669  0.00  0.00     0.003 A 
ATOM     14  C   UNL d   1      -2.395   0.766   2.655  0.00  0.00     0.002 A 
ATOM     15  C   UNL d   1      -1.655   0.767   1.461  0.00  0.00     0.027 A 
BRANCH  11  16
ATOM     16  N   UNL d   1       0.779  -1.980   2.280  0.00  0.00    -0.114 N 
ATOM     17  O   UNL d   1       0.678  -2.931   1.499  0.00  0.00    -0.532 OA
ATOM     18  O   UNL d   1       1.689  -1.819   3.104  0.00  0.00    -0.532 OA
ENDBRANCH  11  16
ENDBRANCH   7  10
ENDBRANCH   1   7
BRANCH   4  19
ATOM     19  C   UNL d   1       2.639   3.181  -3.130  0.00  0.00    -0.021 A 
ATOM     20  C   UNL d   1       3.427   3.683  -4.195  0.00  0.00     0.074 A 
ATOM     21  C   UNL d   1       4.829   3.708  -4.089  0.00  0.00     0.037 A 
ATOM     22  C   UNL d   1       5.465   3.291  -2.923  0.00  0.00     0.003 A 
ATOM     23  C   UNL d   1       4.708   2.820  -1.865  0.00  0.00     0.001 A 
ATOM     24  C   UNL d   1       3.319   2.749  -1.976  0.00  0.00     0.010 A 
BRANCH  20  25
ATOM     25  O   UNL d   1       2.768   4.118  -5.320  0.00  0.00    -0.355 OA
ATOM     26  C   UNL d   1       3.488   5.025  -6.154  0.00  0.00     0.210 C 
ENDBRANCH  20  25
ENDBRANCH   4  19
TORSDOF 5
