REMARK  0 active torsions:
REMARK  status: ('A' for Active; 'I' for Inactive)
ROOT
ATOM      1  C   UNL d   1      -2.316  -0.031  -0.003  0.00  0.00     0.220 A 
ATOM      2  N   UNL d   1      -1.557   1.110  -0.002  0.00  0.00    -0.325 N 
ATOM      3  O   UNL d   1      -1.549  -1.192  -0.004  0.00  0.00    -0.282 OA
ATOM      4  C   UNL d   1      -0.249   0.714  -0.001  0.00  0.00     0.069 A 
ATOM      5  C   UNL d   1      -0.264  -0.667  -0.002  0.00  0.00     0.105 A 
ATOM      6  S   UNL d   1      -3.965  -0.124  -0.002  0.00  0.00    -0.033 SA
ATOM      7  C   UNL d   1       0.910   1.453   0.002  0.00  0.00     0.039 A 
ATOM      8  C   UNL d   1       0.904  -1.395  -0.001  0.00  0.00     0.040 A 
ATOM      9  C   UNL d   1       2.119   0.740   0.004  0.00  0.00    -0.060 A 
ATOM     10  C   UNL d   1       2.106  -0.677   0.003  0.00  0.00     0.009 A 
ATOM     11  C   UNL d   1       3.434   1.466   0.010  0.00  0.00     0.048 C 
ATOM     12  H   UNL d   1      -1.914   2.053  -0.001  0.00  0.00     0.169 HD
ENDROOT
TORSDOF 0
