REMARK  5 active torsions:
REMARK  status: ('A' for Active; 'I' for Inactive)
REMARK    1  A    between atoms: C_12  and  C_3 
REMARK    2  A    between atoms: C_11  and  C_4 
REMARK    3  A    between atoms: C_5  and  C_7 
REMARK    4  A    between atoms: C_13  and  O_17 
REMARK    5  A    between atoms: O_17  and  C_23 
ROOT
ATOM      1  C   UNL d   1      -0.064  -2.566  -0.098  0.00  0.00    -0.002 A 
ATOM      2  C   UNL d   1       0.481  -3.318   0.952  0.00  0.00     0.017 A 
ATOM      3  C   UNL d   1      -0.794  -3.241  -1.090  0.00  0.00     0.017 A 
ATOM      4  C   UNL d   1      -0.390  -5.369   0.001  0.00  0.00     0.077 A 
ATOM      5  C   UNL d   1      -0.958  -4.631  -1.038  0.00  0.00     0.038 A 
ATOM      6  C   UNL d   1       0.299  -4.702   1.017  0.00  0.00     0.038 A 
ENDROOT
BRANCH   1   7
ATOM      7  C   UNL d   1       0.169  -1.114  -0.122  0.00  0.00     0.084 A 
ATOM      8  N   UNL d   1       1.260  -0.532   0.339  0.00  0.00    -0.349 N 
ATOM      9  C   UNL d   1       1.166   0.845   0.228  0.00  0.00     0.050 A 
ATOM     10  HN  UNL d   1       2.063  -1.029   0.725  1.00  0.00     0.166 HD
ATOM     11  C   UNL d   1      -0.016   1.298  -0.323  0.00  0.00     0.082 A 
ATOM     12  S   UNL d   1      -1.034  -0.026  -0.706  0.00  0.00    -0.081 SA
BRANCH   9  13
ATOM     13  C   UNL d   1       2.260   1.712   0.642  0.00  0.00    -0.006 A 
ATOM     14  C   UNL d   1       3.580   1.252   0.541  0.00  0.00     0.056 A 
ATOM     15  C   UNL d   1       4.634   2.079   0.915  0.00  0.00     0.117 A 
ATOM     16  F   UNL d   1       5.893   1.637   0.799  0.00  0.00    -0.206 F 
ATOM     17  C   UNL d   1       4.406   3.360   1.403  0.00  0.00     0.042 A 
ATOM     18  C   UNL d   1       3.098   3.823   1.526  0.00  0.00     0.004 A 
ATOM     19  C   UNL d   1       2.030   3.002   1.147  0.00  0.00     0.014 A 
ENDBRANCH   9  13
ENDBRANCH   1   7
BRANCH   4  20
ATOM     20  O   UNL d   1      -0.609  -6.729  -0.019  0.00  0.00    -0.294 OA
BRANCH  20  21
ATOM     21  C   UNL d   1       0.374  -7.551   0.514  0.00  0.00     0.147 A 
ATOM     22  N   UNL d   1       1.675  -7.204   0.391  0.00  0.00    -0.346 N 
ATOM     23  C   UNL d   1       2.585  -7.989   1.007  0.00  0.00     0.106 A 
ATOM     24  HN  UNL d   1       1.957  -6.383  -0.145  1.00  0.00     0.167 HD
ATOM     25  C   UNL d   1       2.259  -9.129   1.726  0.00  0.00     0.063 A 
ATOM     26  C   UNL d   1       0.910  -9.501   1.774  0.00  0.00     0.022 A 
ATOM     27  C   UNL d   1      -0.051  -8.703   1.155  0.00  0.00     0.057 A 
BRANCH  25  28
ATOM     28  C   UNL d   1       3.320  -9.910   2.439  0.00  0.00     0.418 C 
ATOM     29  F   UNL d   1       4.562  -9.362   2.339  0.00  0.00    -0.166 F 
ATOM     30  F   UNL d   1       3.070 -10.021   3.772  0.00  0.00    -0.166 F 
ATOM     31  F   UNL d   1       3.434 -11.183   1.972  0.00  0.00    -0.166 F 
ENDBRANCH  25  28
ENDBRANCH  20  21
ENDBRANCH   4  20
TORSDOF 5
