REMARK  3 active torsions:
REMARK  status: ('A' for Active; 'I' for Inactive)
REMARK       I    between atoms: N_3  and  C_1 
REMARK       I    between atoms: N_11  and  C_1 
REMARK    1  A    between atoms: C_2  and  N_3 
REMARK    2  A    between atoms: C_6  and  C_10 
REMARK    3  A    between atoms: C_8  and  N_11 
ROOT
ATOM      1  C   UNL d   1       1.051   0.178   0.054  0.00  0.00     0.324 C 
ATOM      2  N   UNL d   1       0.533  -0.449  -1.046  0.00  0.00    -0.306 N 
ATOM      3  N   UNL d   1       0.157   0.774   0.904  0.00  0.00    -0.319 N 
ATOM      4  O   UNL d   1       2.245   0.270   0.330  0.00  0.00    -0.247 OA
ATOM      5  H   UNL d   1      -0.410  -0.199  -1.311  0.00  0.00     0.171 HD
ATOM      6  H   UNL d   1       0.640   1.278   1.641  0.00  0.00     0.170 HD
ENDROOT
BRANCH   2   7
ATOM      7  C   UNL d   1       1.252  -1.175  -2.023  0.00  0.00     0.076 A 
ATOM      8  C   UNL d   1       2.574  -1.600  -1.864  0.00  0.00     0.056 A 
ATOM      9  C   UNL d   1       3.213  -2.293  -2.897  0.00  0.00     0.036 A 
ATOM     10 CL   UNL d   1       4.845  -2.805  -2.697  0.00  0.00    -0.084 Cl
ATOM     11  C   UNL d   1       2.547  -2.577  -4.089  0.00  0.00     0.027 A 
ATOM     12  C   UNL d   1       1.222  -2.176  -4.248  0.00  0.00     0.046 A 
ATOM     13  C   UNL d   1       0.588  -1.487  -3.217  0.00  0.00     0.143 A 
ATOM     14  F   UNL d   1      -0.688  -1.103  -3.383  0.00  0.00    -0.204 F 
ENDBRANCH   2   7
BRANCH   3  15
ATOM     15  C   UNL d   1      -1.213   0.735   0.941  0.00  0.00     0.093 C 
ATOM     16  C   UNL d   1      -1.908   1.439   1.849  0.00  0.00     0.029 C 
BRANCH  16  17
ATOM     17  C   UNL d   1      -3.334   1.459   1.970  0.00  0.00    -0.028 A 
ATOM     18  C   UNL d   1      -4.001   2.518   2.553  0.00  0.00     0.061 A 
ATOM     19  S   UNL d   1      -5.699   2.295   2.560  0.00  0.00    -0.113 SA
ATOM     20  C   UNL d   1      -5.554   0.767   1.807  0.00  0.00     0.050 A 
ATOM     21  C   UNL d   1      -4.241   0.438   1.549  0.00  0.00     0.019 A 
ENDBRANCH  16  17
ENDBRANCH   3  15
TORSDOF 3
