REMARK  3 active torsions:
REMARK  status: ('A' for Active; 'I' for Inactive)
REMARK    1  A    between atoms: C_7  and  N_1 
REMARK    2  A    between atoms: S_16  and  C_3 
REMARK    3  A    between atoms: C_24  and  S_16 
ROOT
ATOM      1  C   UNL d   1       4.292   4.359   0.374  0.00  0.00    -0.107 C 
ATOM      2  C   UNL d   1       5.032   5.303   0.314  0.00  0.00     0.013 C 
ATOM      3  C   UNL d   1       3.289   3.281   0.479  0.00  0.00     0.175 C 
ENDROOT
BRANCH   3   4
ATOM      4  S   UNL d   1       3.839   1.694  -0.220  0.00  0.00    -0.081 SA
BRANCH   4   5
ATOM      5  C   UNL d   1       2.361   0.735  -0.057  0.00  0.00     0.155 C 
ATOM      6  N   UNL d   1       2.438  -0.660  -0.082  0.00  0.00    -0.256 N 
ATOM      7  C   UNL d   1       1.278  -1.430   0.094  0.00  0.00     0.267 C 
ATOM      8  C   UNL d   1      -0.003  -0.716   0.069  0.00  0.00     0.060 A 
ATOM      9  O   UNL d   1       1.258  -2.640   0.323  0.00  0.00    -0.267 OA
ATOM     10  C   UNL d   1      -1.218  -1.417   0.083  0.00  0.00     0.026 A 
ATOM     11  C   UNL d   1       0.038   0.671   0.028  0.00  0.00     0.050 A 
ATOM     12  C   UNL d   1      -2.428  -0.720   0.040  0.00  0.00    -0.061 A 
ATOM     13  C   UNL d   1      -3.740  -1.449   0.027  0.00  0.00     0.048 C 
ATOM     14  C   UNL d   1      -2.394   0.679  -0.019  0.00  0.00     0.009 A 
ATOM     15  C   UNL d   1      -1.172   1.365  -0.019  0.00  0.00     0.031 A 
ATOM     16  N   UNL d   1       1.242   1.386   0.013  0.00  0.00    -0.335 N 
ATOM     17  HN  UNL d   1       1.239   2.405   0.055  1.00  0.00     0.168 HD
BRANCH   6  18
ATOM     18  C   UNL d   1       3.657  -1.415  -0.112  0.00  0.00     0.066 A 
ATOM     19  C   UNL d   1       3.855  -2.430  -1.075  0.00  0.00     0.062 A 
ATOM     20  C   UNL d   1       4.896  -3.352  -0.942  0.00  0.00     0.045 A 
ATOM     21 CL   UNL d   1       2.860  -2.554  -2.491  0.00  0.00    -0.082 Cl
ATOM     22  C   UNL d   1       5.758  -3.256   0.144  0.00  0.00     0.012 A 
ATOM     23  C   UNL d   1       5.617  -2.226   1.074  0.00  0.00     0.021 A 
ATOM     24 BR   UNL d   1       7.112  -4.554   0.380  0.00  0.00    -0.051 Br
ATOM     25  C   UNL d   1       4.567  -1.310   0.951  0.00  0.00     0.033 A 
ENDBRANCH   6  18
ENDBRANCH   4   5
ENDBRANCH   3   4
TORSDOF 3
