REMARK  11 active torsions:
REMARK  status: ('A' for Active; 'I' for Inactive)
REMARK    1  A    between atoms: O_24  and  C_1 
REMARK    2  A    between atoms: C_3  and  C_2 
REMARK    3  A    between atoms: O_13  and  C_3 
REMARK    4  A    between atoms: O_25  and  C_4 
REMARK    5  A    between atoms: O_26  and  C_5 
REMARK    6  A    between atoms: N_6  and  O_13 
REMARK    7  A    between atoms: C_20  and  C_8 
REMARK    8  A    between atoms: C_11  and  C_14 
REMARK    9  A    between atoms: C_15  and  S_19 
REMARK   10  A    between atoms: O_27  and  C_16 
REMARK   11  A    between atoms: S_19  and  C_20 
ROOT
ATOM      1  N   UNL d   1      -2.423   2.861  -0.259  0.00  0.00    -0.261 N 
ATOM      2  HN  UNL d   1      -3.085   2.089  -0.337  1.00  0.00     0.194 HD
ATOM      3  C   UNL d   1      -2.811   4.099  -0.240  0.00  0.00     0.039 C 
ATOM      4  C   UNL d   1      -1.865   5.267  -0.120  0.00  0.00     0.071 C 
ENDROOT
BRANCH   3   5
ATOM      5  C   UNL d   1      -4.287   4.346  -0.327  0.00  0.00    -0.011 A 
ATOM      6  C   UNL d   1      -5.162   3.380   0.207  0.00  0.00     0.024 A 
ATOM      7  C   UNL d   1      -6.575   3.486   0.132  0.00  0.00    -0.014 A 
ATOM      8  C   UNL d   1      -7.089   4.584  -0.583  0.00  0.00     0.075 A 
ATOM      9  C   UNL d   1      -6.210   5.544  -1.125  0.00  0.00     0.038 A 
ATOM     10  C   UNL d   1      -4.822   5.441  -0.989  0.00  0.00     0.016 A 
BRANCH   7  11
ATOM     11  C   UNL d   1      -7.430   2.350   0.678  0.00  0.00     0.122 C 
BRANCH  11  12
ATOM     12  S   UNL d   1      -6.732   1.463   2.121  0.00  0.00    -0.108 SA
BRANCH  12  13
ATOM     13  C   UNL d   1      -8.053   0.330   2.505  0.00  0.00     0.069 A 
ATOM     14  N   UNL d   1      -9.169   0.334   1.743  0.00  0.00    -0.361 N 
ATOM     15  C   UNL d   1     -10.147  -0.538   2.081  0.00  0.00     0.089 A 
ATOM     16  HN  UNL d   1      -9.269   0.966   0.949  1.00  0.00     0.165 HD
ATOM     17  C   UNL d   1     -10.070  -1.412   3.153  0.00  0.00     0.017 A 
ATOM     18  C   UNL d   1      -8.917  -1.399   3.925  0.00  0.00     0.004 A 
ATOM     19  C   UNL d   1      -7.891  -0.519   3.597  0.00  0.00     0.037 A 
ENDBRANCH  12  13
ENDBRANCH  11  12
ENDBRANCH   7  11
BRANCH   8  20
ATOM     20  O   UNL d   1      -8.382   4.809  -0.980  0.00  0.00    -0.355 OA
ATOM     21  C   UNL d   1      -9.441   4.572  -0.068  0.00  0.00     0.210 C 
ENDBRANCH   8  20
ENDBRANCH   3   5
BRANCH   1  22
ATOM     22  O   UNL d   1      -1.031   2.644  -0.164  0.00  0.00    -0.195 OA
BRANCH  22  23
ATOM     23  C   UNL d   1      -0.858   1.291  -0.040  0.00  0.00     0.315 C 
ATOM     24  O   UNL d   1      -1.756   0.455   0.071  0.00  0.00    -0.257 OA
BRANCH  23  25
ATOM     25  C   UNL d   1       0.559   0.838  -0.067  0.00  0.00     0.046 A 
ATOM     26  C   UNL d   1       1.673   1.677  -0.073  0.00  0.00     0.057 A 
ATOM     27  C   UNL d   1       2.976   1.136  -0.110  0.00  0.00     0.105 A 
ATOM     28  C   UNL d   1       3.157  -0.264  -0.144  0.00  0.00     0.135 A 
ATOM     29  C   UNL d   1       2.033  -1.111  -0.059  0.00  0.00     0.105 A 
ATOM     30  C   UNL d   1       0.756  -0.551  -0.063  0.00  0.00     0.057 A 
BRANCH  27  31
ATOM     31  O   UNL d   1       3.940   2.115  -0.112  0.00  0.00    -0.353 OA
ATOM     32  C   UNL d   1       5.311   1.737  -0.103  0.00  0.00     0.210 C 
ENDBRANCH  27  31
BRANCH  28  33
ATOM     33  O   UNL d   1       4.427  -0.783  -0.157  0.00  0.00    -0.351 OA
ATOM     34  C   UNL d   1       4.673  -1.740  -1.192  0.00  0.00     0.210 C 
ENDBRANCH  28  33
BRANCH  29  35
ATOM     35  O   UNL d   1       2.255  -2.464   0.026  0.00  0.00    -0.353 OA
ATOM     36  C   UNL d   1       1.163  -3.269   0.462  0.00  0.00     0.210 C 
ENDBRANCH  29  35
ENDBRANCH  23  25
ENDBRANCH  22  23
ENDBRANCH   1  22
TORSDOF 11
