REMARK  2 active torsions:
REMARK  status: ('A' for Active; 'I' for Inactive)
REMARK    1  A    between atoms: C_5  and  C_3 
REMARK    2  A    between atoms: O_11  and  C_9 
ROOT
ATOM      1  C   UNL d   1      -2.023   0.296   0.391  0.00  0.00    -0.006 C 
ATOM      2  C   UNL d   1      -1.046  -0.830   0.408  0.00  0.00     0.189 C 
ATOM      3  C   UNL d   1      -3.183   0.072  -0.249  0.00  0.00     0.025 C 
ATOM      4  C   UNL d   1       0.390  -0.441   0.308  0.00  0.00     0.021 A 
ATOM      5  C   UNL d   1       0.777   0.910   0.293  0.00  0.00    -0.044 A 
ATOM      6  C   UNL d   1      -1.546   1.572   1.014  0.00  0.00     0.047 C 
ATOM      7  O   UNL d   1      -1.397  -2.003   0.440  0.00  0.00    -0.287 OA
ATOM      8  C   UNL d   1      -0.234   2.025   0.387  0.00  0.00     0.044 C 
ATOM      9  C   UNL d   1       1.350  -1.451   0.170  0.00  0.00     0.016 A 
ATOM     10  C   UNL d   1       2.131   1.229   0.113  0.00  0.00     0.008 A 
ATOM     11  C   UNL d   1       2.694  -1.119  -0.002  0.00  0.00     0.001 A 
ATOM     12  C   UNL d   1       3.083   0.218  -0.033  0.00  0.00     0.001 A 
ENDROOT
BRANCH   3  13
ATOM     13  C   UNL d   1      -4.144   1.129  -0.579  0.00  0.00    -0.002 A 
ATOM     14  C   UNL d   1      -4.068   1.902  -1.751  0.00  0.00     0.078 A 
ATOM     15  C   UNL d   1      -4.959   2.969  -1.928  0.00  0.00     0.037 A 
ATOM     16  C   UNL d   1      -5.936   3.253  -0.975  0.00  0.00     0.003 A 
ATOM     17  C   UNL d   1      -6.028   2.474   0.174  0.00  0.00     0.001 A 
ATOM     18  C   UNL d   1      -5.136   1.419   0.372  0.00  0.00     0.014 A 
BRANCH  14  19
ATOM     19  O   UNL d   1      -3.146   1.798  -2.763  0.00  0.00    -0.355 OA
ATOM     20  C   UNL d   1      -2.717   0.492  -3.128  0.00  0.00     0.210 C 
ENDBRANCH  14  19
ENDBRANCH   3  13
TORSDOF 2
