REMARK  8 active torsions:
REMARK  status: ('A' for Active; 'I' for Inactive)
REMARK    1  A    between atoms: C_7  and  C_3 
REMARK    2  A    between atoms: C_9  and  C_4 
REMARK    3  A    between atoms: C_14  and  C_5 
REMARK    4  A    between atoms: N_19  and  C_6 
REMARK       I    between atoms: N_10  and  C_7 
REMARK    5  A    between atoms: C_8  and  N_10 
REMARK    6  A    between atoms: O_25  and  C_14 
REMARK    7  A    between atoms: O_26  and  C_17 
REMARK    8  A    between atoms: O_27  and  C_18 
ROOT
ATOM      1  C   UNL d   1      -1.092  -4.851   0.216  0.00  0.00     0.259 C 
ATOM      2  N   UNL d   1      -1.337  -3.522  -0.088  0.00  0.00    -0.322 N 
ATOM      3  O   UNL d   1      -1.924  -5.747   0.216  0.00  0.00    -0.267 OA
ATOM      4  H   UNL d   1      -0.569  -2.978  -0.493  0.00  0.00     0.169 HD
ENDROOT
BRANCH   1   5
ATOM      5  C   UNL d   1       0.304  -5.182   0.563  0.00  0.00     0.080 A 
ATOM      6  C   UNL d   1       1.019  -6.256   0.079  0.00  0.00     0.149 A 
ATOM      7  N   UNL d   1       2.310  -6.490   0.479  0.00  0.00    -0.185 N 
ATOM      8  C   UNL d   1       2.898  -5.667   1.359  0.00  0.00     0.679 A 
ATOM      9  HN  UNL d   1       2.822  -7.289   0.107  1.00  0.00     0.184 HD
ATOM     10  N   UNL d   1       2.223  -4.652   1.920  0.00  0.00    -0.201 N 
ATOM     11  C   UNL d   1       0.950  -4.437   1.523  0.00  0.00     0.125 A 
ATOM     12  HN  UNL d   1       2.659  -4.059   2.626  1.00  0.00     0.183 HD
BRANCH   6  13
ATOM     13  C   UNL d   1       0.437  -7.196  -0.958  0.00  0.00     0.434 C 
ATOM     14  F   UNL d   1       1.357  -8.085  -1.446  0.00  0.00    -0.165 F 
ATOM     15  F   UNL d   1      -0.582  -7.970  -0.493  0.00  0.00    -0.165 F 
ATOM     16  F   UNL d   1      -0.036  -6.541  -2.057  0.00  0.00    -0.165 F 
ENDBRANCH   6  13
BRANCH   8  17
ATOM     17  N   UNL d   1       4.252  -5.800   1.600  0.00  0.00    -0.226 N 
ATOM     18  C   UNL d   1       4.867  -7.099   1.387  0.00  0.00     0.168 C 
ATOM     19  C   UNL d   1       4.856  -4.945   2.604  0.00  0.00     0.168 C 
ENDBRANCH   8  17
ENDBRANCH   1   5
BRANCH   2  20
ATOM     20  C   UNL d   1      -2.623  -2.913  -0.169  0.00  0.00     0.054 A 
ATOM     21  C   UNL d   1      -2.845  -1.838  -1.054  0.00  0.00     0.069 A 
ATOM     22  C   UNL d   1      -4.071  -1.157  -1.033  0.00  0.00     0.059 A 
ATOM     23  C   UNL d   1      -5.076  -1.516  -0.135  0.00  0.00     0.102 A 
ATOM     24  C   UNL d   1      -4.895  -2.620   0.712  0.00  0.00     0.103 A 
ATOM     25  C   UNL d   1      -3.666  -3.312   0.685  0.00  0.00     0.070 A 
BRANCH  21  26
ATOM     26  C   UNL d   1      -1.819  -1.458  -2.048  0.00  0.00     0.295 C 
ATOM     27  O   UNL d   1      -0.616  -1.612  -1.866  0.00  0.00    -0.259 OA
BRANCH  26  28
ATOM     28  O   UNL d   1      -2.419  -1.005  -3.173  0.00  0.00    -0.322 OA
ATOM     29  C   UNL d   1      -1.549  -0.687  -4.261  0.00  0.00     0.213 C 
ENDBRANCH  26  28
ENDBRANCH  21  26
BRANCH  23  30
ATOM     30  O   UNL d   1      -6.204  -0.743  -0.237  0.00  0.00    -0.353 OA
ATOM     31  C   UNL d   1      -6.836  -0.402   0.995  0.00  0.00     0.210 C 
ENDBRANCH  23  30
BRANCH  24  32
ATOM     32  O   UNL d   1      -5.954  -2.961   1.510  0.00  0.00    -0.353 OA
ATOM     33  C   UNL d   1      -5.798  -4.040   2.420  0.00  0.00     0.210 C 
ENDBRANCH  24  32
ENDBRANCH   2  20
TORSDOF 8
