REMARK  4 active torsions:
REMARK  status: ('A' for Active; 'I' for Inactive)
REMARK    1  A    between atoms: C_13  and  C_1 
REMARK    2  A    between atoms: O_8  and  C_3 
REMARK    3  A    between atoms: S_5  and  O_8 
REMARK    4  A    between atoms: C_9  and  S_5 
ROOT
ATOM      1  C   UNL d   1      -1.357   2.384  -0.069  0.00  0.00     0.078 A 
ATOM      2  C   UNL d   1       0.142   2.369  -0.083  0.00  0.00     0.262 A 
ATOM      3  C   UNL d   1      -2.084   1.248  -0.038  0.00  0.00     0.118 A 
ATOM      4  N   UNL d   1       0.779   1.147  -0.038  0.00  0.00    -0.312 N 
ATOM      5  C   UNL d   1      -1.351  -0.070  -0.068  0.00  0.00     0.027 A 
ATOM      6  C   UNL d   1       0.069  -0.075  -0.013  0.00  0.00     0.057 A 
ATOM      7  O   UNL d   1       0.768   3.433  -0.103  0.00  0.00    -0.267 OA
ATOM      8  C   UNL d   1       0.799  -1.290   0.036  0.00  0.00    -0.030 A 
ATOM      9  C   UNL d   1       2.228   1.188   0.097  0.00  0.00     0.133 C 
ATOM     10  C   UNL d   1      -1.953  -1.336  -0.160  0.00  0.00     0.017 A 
ATOM     11  C   UNL d   1       3.001  -0.077  -0.214  0.00  0.00     0.025 C 
ATOM     12  C   UNL d   1      -1.244  -2.537  -0.104  0.00  0.00     0.002 A 
ATOM     13  C   UNL d   1       2.289  -1.350   0.174  0.00  0.00     0.042 C 
ATOM     14  C   UNL d   1       0.126  -2.514   0.011  0.00  0.00     0.009 A 
ENDROOT
BRANCH   3  15
ATOM     15  O   UNL d   1      -3.494   1.397   0.033  0.00  0.00    -0.227 OA
BRANCH  15  16
ATOM     16  S   UNL d   1      -4.619   0.281   0.386  0.00  0.00     0.303 S 
ATOM     17  O   UNL d   1      -4.876  -0.500  -0.810  0.00  0.00    -0.193 OA
ATOM     18  O   UNL d   1      -4.262  -0.370   1.636  0.00  0.00    -0.193 OA
BRANCH  16  19
ATOM     19  C   UNL d   1      -6.169   1.124   0.693  0.00  0.00     0.086 A 
ATOM     20  C   UNL d   1      -7.027   1.353  -0.392  0.00  0.00     0.027 A 
ATOM     21  C   UNL d   1      -8.370   1.666  -0.165  0.00  0.00     0.020 A 
ATOM     22  C   UNL d   1      -8.850   1.746   1.142  0.00  0.00     0.011 A 
ATOM     23  C   UNL d   1      -7.996   1.542   2.226  0.00  0.00     0.020 A 
ATOM     24 BR   UNL d   1     -10.690   2.065   1.443  0.00  0.00    -0.051 Br
ATOM     25  C   UNL d   1      -6.651   1.226   2.005  0.00  0.00     0.027 A 
ENDBRANCH  16  19
ENDBRANCH  15  16
ENDBRANCH   3  15
BRANCH   1  26
ATOM     26  C   UNL d   1      -1.984   3.733  -0.065  0.00  0.00    -0.018 A 
ATOM     27  C   UNL d   1      -1.953   4.518   1.098  0.00  0.00     0.012 A 
ATOM     28  C   UNL d   1      -2.370   5.851   1.064  0.00  0.00     0.001 A 
ATOM     29  C   UNL d   1      -2.827   6.408  -0.128  0.00  0.00     0.000 A 
ATOM     30  C   UNL d   1      -2.879   5.630  -1.285  0.00  0.00     0.001 A 
ATOM     31  C   UNL d   1      -2.461   4.296  -1.255  0.00  0.00     0.012 A 
ENDBRANCH   1  26
TORSDOF 4
