REMARK  3 active torsions:
REMARK  status: ('A' for Active; 'I' for Inactive)
REMARK    1  A    between atoms: C_3  and  C_9 
REMARK       I    between atoms: N_10  and  C_3 
REMARK    2  A    between atoms: O_5  and  C_4 
REMARK    3  A    between atoms: C_9  and  O_5 
ROOT
ATOM      1  C   UNL d   1      -1.157  -0.027  -0.033  0.00  0.00     0.069 A 
ATOM      2  C   UNL d   1       0.058   0.664   0.002  0.00  0.00     0.050 A 
ATOM      3  C   UNL d   1      -1.185  -1.431  -0.063  0.00  0.00     0.091 A 
ATOM      4  C   UNL d   1       0.026  -2.131   0.004  0.00  0.00     0.040 A 
ATOM      5  C   UNL d   1       1.252  -0.050   0.021  0.00  0.00     0.035 A 
ATOM      6 CL   UNL d   1      -2.618   0.899  -0.061  0.00  0.00    -0.081 Cl
ATOM      7  C   UNL d   1       1.241  -1.443   0.034  0.00  0.00     0.026 A 
ATOM      8 CL   UNL d   1       2.754   0.787   0.026  0.00  0.00    -0.084 Cl
ENDROOT
BRANCH   3   9
ATOM      9  O   UNL d   1      -2.411  -2.042  -0.152  0.00  0.00    -0.340 OA
BRANCH   9  10
ATOM     10  C   UNL d   1      -2.403  -3.374  -0.663  0.00  0.00     0.278 C 
BRANCH  10  11
ATOM     11  C   UNL d   1      -3.774  -3.831  -1.156  0.00  0.00     0.239 C 
ATOM     12  O   UNL d   1      -3.956  -4.917  -1.695  0.00  0.00    -0.271 OA
ATOM     13  N   UNL d   1      -4.806  -2.961  -0.959  0.00  0.00    -0.368 N 
ATOM     14  H   UNL d   1      -4.644  -2.038  -0.578  0.00  0.00     0.159 HD
ATOM     15  H   UNL d   1      -5.722  -3.210  -1.306  0.00  0.00     0.159 HD
ENDBRANCH  10  11
ENDBRANCH   9  10
ENDBRANCH   3   9
TORSDOF 3
