REMARK  9 active torsions:
REMARK  status: ('A' for Active; 'I' for Inactive)
REMARK    1  A    between atoms: N_5  and  C_1 
REMARK    2  A    between atoms: N_6  and  C_1 
REMARK    3  A    between atoms: N_2  and  N_5 
REMARK    4  A    between atoms: C_17  and  N_6 
REMARK    5  A    between atoms: C_8  and  C_7 
REMARK    6  A    between atoms: O_15  and  C_9 
REMARK    7  A    between atoms: C_14  and  C_17 
REMARK    8  A    between atoms: C_18  and  C_14 
REMARK    9  A    between atoms: O_16  and  C_18 
ROOT
ATOM      1  N   UNL d   1      -1.104   0.351  -1.011  0.00  0.00    -0.309 N 
ATOM      2  HN  UNL d   1      -1.650   0.170  -0.168  1.00  0.00     0.186 HD
ATOM      3  C   UNL d   1      -1.662   0.711  -2.121  0.00  0.00     0.118 C 
ENDROOT
BRANCH   1   4
ATOM      4  N   UNL d   1       0.256   0.228  -1.030  0.00  0.00    -0.277 N 
ATOM      5  H   UNL d   1       0.785   0.414  -1.875  0.00  0.00     0.189 HD
BRANCH   4   6
ATOM      6  C   UNL d   1       0.955   0.042   0.150  0.00  0.00     0.186 C 
ATOM      7  S   UNL d   1       2.618   0.072   0.148  0.00  0.00    -0.040 SA
BRANCH   6   8
ATOM      8  N   UNL d   1       0.131  -0.135   1.232  0.00  0.00    -0.366 N 
ATOM      9  H   UNL d   1      -0.841  -0.143   0.938  0.00  0.00     0.161 HD
BRANCH   8  10
ATOM     10  C   UNL d   1       0.434   0.112   2.632  0.00  0.00     0.124 C 
BRANCH  10  11
ATOM     11  C   UNL d   1       0.145   1.560   3.029  0.00  0.00     0.046 C 
BRANCH  11  12
ATOM     12  C   UNL d   1      -1.338   1.905   2.923  0.00  0.00     0.168 C 
BRANCH  12  13
ATOM     13  O   UNL d   1      -1.540   3.241   3.384  0.00  0.00    -0.396 OA
ATOM     14  C   UNL d   1      -2.907   3.624   3.284  0.00  0.00     0.201 C 
ENDBRANCH  12  13
ENDBRANCH  11  12
ENDBRANCH  10  11
ENDBRANCH   8  10
ENDBRANCH   6   8
ENDBRANCH   4   6
ENDBRANCH   1   4
BRANCH   3  15
ATOM     15  C   UNL d   1      -3.129   0.875  -2.197  0.00  0.00    -0.019 A 
ATOM     16  C   UNL d   1      -3.905   0.684  -1.050  0.00  0.00     0.015 A 
ATOM     17  C   UNL d   1      -5.294   0.795  -1.112  0.00  0.00     0.037 A 
ATOM     18  C   UNL d   1      -5.914   1.097  -2.324  0.00  0.00     0.068 A 
ATOM     19  C   UNL d   1      -5.131   1.324  -3.462  0.00  0.00     0.037 A 
ATOM     20  C   UNL d   1      -3.738   1.208  -3.406  0.00  0.00     0.015 A 
BRANCH  18  21
ATOM     21  O   UNL d   1      -7.264   1.227  -2.500  0.00  0.00    -0.356 OA
ATOM     22  C   UNL d   1      -8.075   0.469  -1.606  0.00  0.00     0.210 C 
ENDBRANCH  18  21
ENDBRANCH   3  15
TORSDOF 9
