REMARK  8 active torsions:
REMARK  status: ('A' for Active; 'I' for Inactive)
REMARK    1  A    between atoms: N_4  and  C_1 
REMARK       I    between atoms: C_8  and  N_4 
REMARK    2  A    between atoms: C_7  and  C_5 
REMARK    3  A    between atoms: C_10  and  C_7 
REMARK    4  A    between atoms: C_14  and  C_8 
REMARK    5  A    between atoms: O_17  and  C_10 
REMARK    6  A    between atoms: S_12  and  C_14 
REMARK    7  A    between atoms: C_15  and  S_12 
REMARK    8  A    between atoms: C_23  and  O_17 
ROOT
ATOM      1  N   UNL d   1       0.235  -2.642   0.105  0.00  0.00    -0.306 N 
ATOM      2  C   UNL d   1       1.264  -3.544  -0.052  0.00  0.00     0.233 C 
ATOM      3  O   UNL d   1       2.466  -3.278  -0.076  0.00  0.00    -0.272 OA
ATOM      4  H   UNL d   1      -0.719  -2.964   0.180  0.00  0.00     0.171 HD
ENDROOT
BRANCH   1   5
ATOM      5  C   UNL d   1       0.439  -1.292   0.055  0.00  0.00     0.151 A 
ATOM      6  N   UNL d   1       1.540  -0.641  -0.204  0.00  0.00    -0.339 N 
ATOM      7  C   UNL d   1       1.298   0.724  -0.193  0.00  0.00     0.027 A 
ATOM      8  HN  UNL d   1       2.446  -1.073  -0.387  1.00  0.00     0.168 HD
ATOM      9  C   UNL d   1       0.001   1.069   0.143  0.00  0.00     0.078 A 
ATOM     10  S   UNL d   1      -0.948  -0.347   0.350  0.00  0.00    -0.064 SA
BRANCH   7  11
ATOM     11  C   UNL d   1       2.436   1.635  -0.509  0.00  0.00     0.168 C 
BRANCH  11  12
ATOM     12  C   UNL d   1       2.197   2.460  -1.753  0.00  0.00     0.264 C 
ATOM     13  O   UNL d   1       1.142   2.583  -2.355  0.00  0.00    -0.265 OA
BRANCH  12  14
ATOM     14  O   UNL d   1       3.377   3.050  -2.115  0.00  0.00    -0.322 OA
BRANCH  14  15
ATOM     15  C   UNL d   1       3.414   3.605  -3.438  0.00  0.00     0.174 C 
ATOM     16  C   UNL d   1       3.881   2.519  -4.390  0.00  0.00     0.034 C 
ENDBRANCH  14  15
ENDBRANCH  12  14
ENDBRANCH  11  12
ENDBRANCH   7  11
ENDBRANCH   1   5
BRANCH   2  17
ATOM     17  C   UNL d   1       0.825  -5.002  -0.084  0.00  0.00     0.182 C 
BRANCH  17  18
ATOM     18  S   UNL d   1      -0.718  -5.222  -1.035  0.00  0.00    -0.121 SA
BRANCH  18  19
ATOM     19  C   UNL d   1      -1.012  -6.979  -0.902  0.00  0.00     0.001 A 
ATOM     20  C   UNL d   1      -2.349  -7.400  -0.886  0.00  0.00     0.020 A 
ATOM     21  C   UNL d   1      -2.671  -8.760  -0.855  0.00  0.00     0.025 A 
ATOM     22  C   UNL d   1      -1.655  -9.709  -0.845  0.00  0.00     0.034 A 
ATOM     23  C   UNL d   1      -0.321  -9.308  -0.858  0.00  0.00     0.025 A 
ATOM     24 CL   UNL d   1      -2.047 -11.383  -0.836  0.00  0.00    -0.084 Cl
ATOM     25  C   UNL d   1      -0.001  -7.945  -0.891  0.00  0.00     0.020 A 
ENDBRANCH  18  19
ENDBRANCH  17  18
ENDBRANCH   2  17
TORSDOF 8
