REMARK  3 active torsions:
REMARK  status: ('A' for Active; 'I' for Inactive)
REMARK    1  A    between atoms: N_3  and  C_1 
REMARK       I    between atoms: C_2  and  N_3 
REMARK       I    between atoms: N_5  and  C_2 
REMARK    2  A    between atoms: C_8  and  C_4 
REMARK    3  A    between atoms: C_9  and  N_5 
ROOT
ATOM      1  C   UNL d   1       0.937   2.642   2.615  0.00  0.00     0.325 C 
ATOM      2  N   UNL d   1       1.292   2.322   1.328  0.00  0.00    -0.308 N 
ATOM      3  N   UNL d   1       1.895   2.999   3.509  0.00  0.00    -0.309 N 
ATOM      4  O   UNL d   1      -0.188   2.551   3.104  0.00  0.00    -0.247 OA
ATOM      5  H   UNL d   1       2.254   2.033   1.251  0.00  0.00     0.170 HD
ATOM      6  H   UNL d   1       1.460   3.023   4.422  0.00  0.00     0.170 HD
ENDROOT
BRANCH   2   7
ATOM      7  C   UNL d   1       0.398   1.664   0.419  0.00  0.00     0.049 C 
ATOM      8  C   UNL d   1       0.915   0.702  -0.476  0.00  0.00    -0.027 C 
ATOM      9  C   UNL d   1       0.067  -0.352  -0.882  0.00  0.00     0.010 C 
ATOM     10  C   UNL d   1      -1.283  -0.357  -0.558  0.00  0.00     0.001 C 
ATOM     11  C   UNL d   1      -1.828   0.761   0.055  0.00  0.00     0.009 C 
ATOM     12  C   UNL d   1      -1.003   1.810   0.489  0.00  0.00    -0.035 C 
ATOM     13  C   UNL d   1      -1.684   3.090   0.900  0.00  0.00     0.050 C 
BRANCH   8  14
ATOM     14  C   UNL d   1       2.269   0.770  -1.172  0.00  0.00     0.013 C 
ATOM     15  C   UNL d   1       2.760   2.190  -1.477  0.00  0.00     0.015 C 
ATOM     16  C   UNL d   1       3.344  -0.070  -0.495  0.00  0.00     0.015 C 
ENDBRANCH   8  14
ENDBRANCH   2   7
BRANCH   3  17
ATOM     17  C   UNL d   1       3.266   3.279   3.496  0.00  0.00     0.036 A 
ATOM     18  C   UNL d   1       4.023   3.565   2.366  0.00  0.00     0.029 A 
ATOM     19  C   UNL d   1       5.393   3.830   2.490  0.00  0.00     0.002 A 
ATOM     20  C   UNL d   1       6.007   3.829   3.743  0.00  0.00     0.000 A 
ATOM     21  C   UNL d   1       5.251   3.574   4.880  0.00  0.00     0.002 A 
ATOM     22  C   UNL d   1       3.888   3.308   4.755  0.00  0.00     0.029 A 
ENDBRANCH   3  17
TORSDOF 3
