REMARK  2 active torsions:
REMARK  status: ('A' for Active; 'I' for Inactive)
REMARK    1  A    between atoms: C_8  and  C_3 
REMARK    2  A    between atoms: O_13  and  C_8 
ROOT
ATOM      1  N   UNL d   1      -2.045  -1.443  -0.002  0.00  0.00    -0.342 N 
ATOM      2  HN  UNL d   1      -2.047  -2.463  -0.019  1.00  0.00     0.167 HD
ATOM      3  C   UNL d   1      -3.095  -0.646   0.022  0.00  0.00     0.111 A 
ATOM      4  N   UNL d   1      -2.706   0.673   0.011  0.00  0.00    -0.342 N 
ATOM      5  C   UNL d   1      -0.950  -0.617  -0.001  0.00  0.00     0.062 A 
ATOM      6  C   UNL d   1      -1.335   0.718   0.008  0.00  0.00     0.060 A 
ATOM      7  C   UNL d   1       0.411  -0.948  -0.005  0.00  0.00     0.055 A 
ATOM      8  C   UNL d   1      -0.426   1.778   0.010  0.00  0.00     0.033 A 
ATOM      9  C   UNL d   1       1.339   0.096   0.003  0.00  0.00     0.036 A 
ATOM     10  C   UNL d   1       0.932   1.433   0.010  0.00  0.00     0.026 A 
ATOM     11 CL   UNL d   1       3.022  -0.276   0.005  0.00  0.00    -0.084 Cl
ATOM     12  H   UNL d   1      -3.335   1.463  -0.006  0.00  0.00     0.167 HD
ENDROOT
BRANCH   3  13
ATOM     13  C   UNL d   1      -4.535  -1.040   0.045  0.00  0.00     0.181 C 
ATOM     14  C   UNL d   1      -4.732  -2.549   0.055  0.00  0.00     0.047 C 
BRANCH  13  15
ATOM     15  O   UNL d   1      -5.132  -0.482  -1.124  0.00  0.00    -0.388 OA
ATOM     16  H   UNL d   1      -4.739  -0.952  -1.882  0.00  0.00     0.210 HD
ENDBRANCH  13  15
ENDBRANCH   3  13
TORSDOF 2
