REMARK  1 active torsions:
REMARK  status: ('A' for Active; 'I' for Inactive)
REMARK    1  A    between atoms: C_4  and  N_1 
ROOT
ATOM      1  N   UNL d   1       0.690   1.143  -0.413  0.00  0.00    -0.252 N 
ATOM      2  C   UNL d   1       1.397   0.001  -0.044  0.00  0.00     0.232 C 
ATOM      3  C   UNL d   1      -0.618   1.296   0.035  0.00  0.00     0.232 C 
ATOM      4  C   UNL d   1       0.642  -1.291  -0.208  0.00  0.00     0.113 C 
ATOM      5  C   UNL d   1      -1.463   0.053  -0.154  0.00  0.00     0.113 C 
ATOM      6  C   UNL d   1      -0.783  -1.227   0.332  0.00  0.00    -0.031 C 
ATOM      7  O   UNL d   1      -1.131   2.325   0.473  0.00  0.00    -0.273 OA
ATOM      8  O   UNL d   1       2.576  -0.012   0.319  0.00  0.00    -0.273 OA
ATOM      9  C   UNL d   1      -1.552  -2.443  -0.212  0.00  0.00     0.016 C 
ATOM     10  C   UNL d   1      -0.778  -1.278   1.868  0.00  0.00     0.016 C 
ENDROOT
BRANCH   1  11
ATOM     11  C   UNL d   1       1.421   2.211  -1.036  0.00  0.00     0.048 A 
ATOM     12  C   UNL d   1       1.071   3.563  -0.944  0.00  0.00     0.054 A 
ATOM     13  C   UNL d   1       1.775   4.523  -1.682  0.00  0.00     0.037 A 
ATOM     14 CL   UNL d   1       1.357   6.187  -1.532  0.00  0.00    -0.084 Cl
ATOM     15  C   UNL d   1       2.801   4.157  -2.548  0.00  0.00     0.048 A 
ATOM     16  C   UNL d   1       3.137   2.818  -2.663  0.00  0.00     0.037 A 
ATOM     17  C   UNL d   1       2.468   1.858  -1.909  0.00  0.00     0.054 A 
ATOM     18 CL   UNL d   1       4.352   2.320  -3.775  0.00  0.00    -0.084 Cl
ENDBRANCH   1  11
TORSDOF 1
