REMARK  6 active torsions:
REMARK  status: ('A' for Active; 'I' for Inactive)
REMARK       I    between atoms: N_10  and  C1_1 
REMARK    1  A    between atoms: C4_2  and  C1_1 
REMARK    2  A    between atoms: CA_11  and  N_10 
REMARK    3  A    between atoms: C_12  and  CA_11 
REMARK    4  A    between atoms: CB_13  and  CA_11 
REMARK    5  A    between atoms: OXT_15  and  C_12 
REMARK    6  A    between atoms: CG_16  and  CB_13 
ROOT
ATOM      1  CA  PHE d   1       0.906  -2.139  -1.151  0.00  0.00     0.186 C 
ENDROOT
BRANCH   1   2
ATOM      2  N   PHE d   1       0.212  -1.005  -0.520  0.00  0.00    -0.342 N 
ATOM      3  C1  <1> d   1       0.847   0.194  -0.319  0.00  0.00     0.252 C 
ATOM      4  O1  <1> d   1       2.037   0.335  -0.594  0.00  0.00    -0.268 OA
ATOM      5  H   PHE d   1      -0.763  -1.121  -0.268  0.00  0.00     0.163 HD
BRANCH   3   6
ATOM      6  C4  <1> d   1       0.087   1.290   0.326  0.00  0.00     0.032 A 
ATOM      7  C6  <1> d   1      -0.844   1.036   1.342  0.00  0.00     0.018 A 
ATOM      8  C11 <1> d   1      -1.459   2.105   2.001  0.00  0.00     0.025 A 
ATOM      9  C8  <1> d   1      -1.147   3.418   1.644  0.00  0.00     0.034 A 
ATOM     10  C10 <1> d   1      -0.228   3.675   0.628  0.00  0.00     0.025 A 
ATOM     11 Cl1  <1> d   1      -1.883   4.727   2.482  0.00  0.00    -0.084 Cl
ATOM     12  C7  <1> d   1       0.394   2.610  -0.028  0.00  0.00     0.018 A 
ENDBRANCH   3   6
ENDBRANCH   1   2
BRANCH   1  13
ATOM     13  C   PHE d   1       1.738  -2.889  -0.097  0.00  0.00     0.163 C 
ATOM     14  O   PHE d   1       1.672  -4.095   0.114  0.00  0.00    -0.648 OA
BRANCH  13  15
ATOM     15  OXT PHE d   1       2.624  -2.099   0.557  0.00  0.00    -0.775 OA
ATOM     16  HXT PHE d   1       2.630  -1.173   0.210  0.00  0.00     0.167 HD
ENDBRANCH  13  15
ENDBRANCH   1  13
BRANCH   1  17
ATOM     17  CB  PHE d   1      -0.060  -3.103  -1.855  0.00  0.00     0.074 C 
BRANCH  17  18
ATOM     18  CG  PHE d   1      -0.865  -2.472  -2.971  0.00  0.00    -0.056 A 
ATOM     19  CD1 PHE d   1      -0.234  -1.874  -4.072  0.00  0.00     0.007 A 
ATOM     20  CE1 PHE d   1      -0.989  -1.335  -5.116  0.00  0.00     0.001 A 
ATOM     21  CZ  PHE d   1      -2.380  -1.395  -5.075  0.00  0.00     0.000 A 
ATOM     22  CE2 PHE d   1      -3.018  -1.987  -3.987  0.00  0.00     0.001 A 
ATOM     23  CD2 PHE d   1      -2.265  -2.524  -2.941  0.00  0.00     0.007 A 
ENDBRANCH  17  18
ENDBRANCH   1  17
TORSDOF 6
