REMARK  3 active torsions:
REMARK  status: ('A' for Active; 'I' for Inactive)
REMARK    1  A    between atoms: C_4  and  N_1 
REMARK    2  A    between atoms: N_5  and  C_4 
REMARK    3  A    between atoms: C_10  and  N_5 
ROOT
ATOM      1  N   UNL d   1      -1.419   2.842  -0.366  0.00  0.00    -0.276 NA
ATOM      2  H   UNL d   1      -2.127   2.179  -0.034  0.00  0.00     0.129 HD
ENDROOT
BRANCH   1   3
ATOM      3  C   UNL d   1      -0.092   2.278  -0.172  0.00  0.00     0.229 C 
BRANCH   3   4
ATOM      4  N   UNL d   1      -0.131   0.840  -0.274  0.00  0.00    -0.275 N 
ATOM      5  C   UNL d   1      -1.081   0.051   0.299  0.00  0.00     0.227 C 
ATOM      6  C   UNL d   1      -0.675  -1.385   0.185  0.00  0.00     0.112 C 
ATOM      7  O   UNL d   1      -2.115   0.426   0.840  0.00  0.00    -0.273 OA
ATOM      8  C   UNL d   1       0.748  -1.325  -0.331  0.00  0.00     0.112 C 
ATOM      9  C   UNL d   1       1.014   0.139  -0.514  0.00  0.00     0.227 C 
ATOM     10  O   UNL d   1       2.113   0.606  -0.772  0.00  0.00    -0.273 OA
ENDBRANCH   3   4
ENDBRANCH   1   3
BRANCH   1  11
ATOM     11  C   UNL d   1      -1.647   4.095   0.235  0.00  0.00     0.009 A 
ATOM     12  C   UNL d   1      -0.676   5.103   0.293  0.00  0.00     0.025 A 
ATOM     13  C   UNL d   1      -0.957   6.336   0.893  0.00  0.00     0.025 A 
ATOM     14  C   UNL d   1      -2.227   6.585   1.405  0.00  0.00     0.034 A 
ATOM     15  C   UNL d   1      -3.224   5.622   1.299  0.00  0.00     0.025 A 
ATOM     16 CL   UNL d   1      -2.567   8.093   2.159  0.00  0.00    -0.084 Cl
ATOM     17  C   UNL d   1      -2.937   4.392   0.701  0.00  0.00     0.025 A 
ENDBRANCH   1  11
TORSDOF 3
