REMARK  8 active torsions:
REMARK  status: ('A' for Active; 'I' for Inactive)
REMARK    1  A    between atoms: C_9  and  C_1 
REMARK    2  A    between atoms: C_10  and  C_1 
REMARK    3  A    between atoms: C_2  and  N_11 
REMARK    4  A    between atoms: N_11  and  C_6 
REMARK    5  A    between atoms: O_18  and  C_9 
REMARK    6  A    between atoms: O_17  and  C_10 
REMARK    7  A    between atoms: C_22  and  O_17 
REMARK    8  A    between atoms: C_21  and  O_18 
ROOT
ATOM      1  N   UNL d   1       0.801  -1.393   2.050  0.00  0.00    -0.345 N 
ATOM      2  H   UNL d   1       1.781  -1.178   2.253  0.00  0.00     0.167 HD
ENDROOT
BRANCH   1   3
ATOM      3  C   UNL d   1       0.103  -2.083   2.978  0.00  0.00     0.149 A 
ATOM      4  N   UNL d   1      -1.057  -2.664   2.781  0.00  0.00    -0.335 N 
ATOM      5  C   UNL d   1      -1.467  -3.319   3.929  0.00  0.00     0.051 A 
ATOM      6  HN  UNL d   1      -1.581  -2.637   1.907  1.00  0.00     0.168 HD
ATOM      7  C   UNL d   1      -2.626  -4.110   4.056  0.00  0.00     0.034 A 
ATOM      8  C   UNL d   1      -0.637  -3.154   5.039  0.00  0.00     0.038 A 
ATOM      9  C   UNL d   1      -2.937  -4.688   5.291  0.00  0.00     0.044 A 
ATOM     10  C   UNL d   1      -2.115  -4.467   6.386  0.00  0.00     0.117 A 
ATOM     11  C   UNL d   1      -0.954  -3.703   6.292  0.00  0.00     0.063 A 
ATOM     12  F   UNL d   1      -2.440  -5.011   7.566  0.00  0.00    -0.206 F 
ATOM     13  S   UNL d   1       0.740  -2.240   4.570  0.00  0.00    -0.052 SA
ENDBRANCH   1   3
BRANCH   1  14
ATOM     14  C   UNL d   1       0.314  -0.810   0.897  0.00  0.00     0.114 C 
ATOM     15  C   UNL d   1       0.988  -0.091  -0.025  0.00  0.00     0.129 C 
BRANCH  15  16
ATOM     16  C   UNL d   1       0.243   0.607  -1.101  0.00  0.00     0.300 C 
ATOM     17  O   UNL d   1       0.667   0.829  -2.222  0.00  0.00    -0.259 OA
BRANCH  16  18
ATOM     18  O   UNL d   1      -0.924   1.086  -0.588  0.00  0.00    -0.318 OA
BRANCH  18  19
ATOM     19  C   UNL d   1      -1.543   2.166  -1.300  0.00  0.00     0.174 C 
ATOM     20  C   UNL d   1      -1.148   3.458  -0.603  0.00  0.00     0.034 C 
ENDBRANCH  18  19
ENDBRANCH  16  18
ENDBRANCH  15  16
BRANCH  15  21
ATOM     21  C   UNL d   1       2.450   0.066   0.139  0.00  0.00     0.300 C 
ATOM     22  O   UNL d   1       3.084  -0.413   1.073  0.00  0.00    -0.259 OA
BRANCH  21  23
ATOM     23  O   UNL d   1       2.968   0.887  -0.806  0.00  0.00    -0.318 OA
BRANCH  23  24
ATOM     24  C   UNL d   1       4.299   1.359  -0.568  0.00  0.00     0.174 C 
ATOM     25  C   UNL d   1       4.204   2.642   0.235  0.00  0.00     0.034 C 
ENDBRANCH  23  24
ENDBRANCH  21  23
ENDBRANCH  15  21
ENDBRANCH   1  14
TORSDOF 8
