REMARK  7 active torsions:
REMARK  status: ('A' for Active; 'I' for Inactive)
REMARK    1  A    between atoms: C_3  and  C_1 
REMARK    2  A    between atoms: N_8  and  C_3 
REMARK    3  A    between atoms: O_13  and  N_6 
REMARK    4  A    between atoms: C_16  and  N_8 
REMARK    5  A    between atoms: N_12  and  C_17 
REMARK    6  A    between atoms: C_15  and  C_16 
REMARK    7  A    between atoms: C_17  and  C_15 
ROOT
ATOM      1  C   UNL d   1      -1.785  -0.770  -1.005  0.00  0.00     0.133 C 
ATOM      2  N   UNL d   1      -1.470  -0.683  -2.269  0.00  0.00    -0.253 N 
ATOM      3  HN  UNL d   1      -1.820   0.054  -2.882  1.00  0.00     0.196 HD
ENDROOT
BRANCH   1   4
ATOM      4  C   UNL d   1      -2.768   0.291  -0.533  0.00  0.00     0.031 A 
ATOM      5  C   UNL d   1      -3.657   0.148   0.546  0.00  0.00     0.049 A 
ATOM      6  C   UNL d   1      -4.525   1.195   0.894  0.00  0.00     0.048 A 
ATOM      7 CL   UNL d   1      -3.787  -1.287   1.505  0.00  0.00    -0.083 Cl
ATOM      8  C   UNL d   1      -4.515   2.386   0.174  0.00  0.00     0.035 A 
ATOM      9  C   UNL d   1      -3.640   2.551  -0.892  0.00  0.00     0.025 A 
ATOM     10 CL   UNL d   1      -5.591   3.656   0.603  0.00  0.00    -0.084 Cl
ATOM     11  C   UNL d   1      -2.774   1.512  -1.240  0.00  0.00     0.018 A 
ENDBRANCH   1   4
BRANCH   1  12
ATOM     12  N   UNL d   1      -1.311  -1.682  -0.077  0.00  0.00    -0.374 N 
ATOM     13  H   UNL d   1      -1.735  -1.638   0.844  0.00  0.00     0.161 HD
BRANCH  12  14
ATOM     14  C   UNL d   1       0.026  -2.258  -0.046  0.00  0.00     0.123 C 
BRANCH  14  15
ATOM     15  C   UNL d   1       1.120  -1.188  -0.006  0.00  0.00     0.050 C 
BRANCH  15  16
ATOM     16  C   UNL d   1       1.016  -0.308   1.247  0.00  0.00     0.273 C 
BRANCH  16  17
ATOM     17  N   UNL d   1       2.071   0.718   1.357  0.00  0.00     0.080 N 
ATOM     18  C   UNL d   1       2.026   1.675   0.248  0.00  0.00     0.309 C 
ATOM     19  C   UNL d   1       1.919   1.438   2.626  0.00  0.00     0.309 C 
ENDBRANCH  16  17
ENDBRANCH  15  16
ENDBRANCH  14  15
ENDBRANCH  12  14
ENDBRANCH   1  12
BRANCH   2  20
ATOM     20  O   UNL d   1      -0.612  -1.693  -2.704  0.00  0.00    -0.288 OA
ATOM     21  H   UNL d   1      -0.525  -1.495  -3.654  0.00  0.00     0.244 HD
ENDBRANCH   2  20
TORSDOF 7
