REMARK  7 active torsions:
REMARK  status: ('A' for Active; 'I' for Inactive)
REMARK    1  A    between atoms: N_10  and  C_1 
REMARK    2  A    between atoms: C_2  and  C_7 
REMARK    3  A    between atoms: C_17  and  N_3 
REMARK       I    between atoms: C_7  and  N_10 
REMARK    4  A    between atoms: C_16  and  C_9 
REMARK    5  A    between atoms: C_15  and  C_12 
REMARK    6  A    between atoms: C_14  and  O_19 
REMARK    7  A    between atoms: O_19  and  C_27 
ROOT
ATOM      1  C   UNL d   1      -0.347  -1.124   0.140  0.00  0.00     0.132 C 
ATOM      2  N   UNL d   1       0.951  -0.685  -0.091  0.00  0.00    -0.240 N 
ATOM      3  N   UNL d   1       0.999   0.665  -0.229  0.00  0.00    -0.291 N 
ATOM      4  HN  UNL d   1       1.783   1.227  -0.562  1.00  0.00     0.187 HD
ATOM      5  C   UNL d   1      -1.066   0.004   0.458  0.00  0.00     0.082 C 
ATOM      6  C   UNL d   1      -0.208   1.099   0.168  0.00  0.00     0.062 C 
ENDROOT
BRANCH   1   7
ATOM      7  N   UNL d   1      -0.752  -2.446   0.008  0.00  0.00    -0.307 N 
ATOM      8  C   UNL d   1      -1.704  -3.008   0.838  0.00  0.00     0.259 C 
ATOM      9  O   UNL d   1      -2.223  -2.432   1.787  0.00  0.00    -0.267 OA
ATOM     10  H   UNL d   1      -0.170  -3.067  -0.541  0.00  0.00     0.170 HD
BRANCH   8  11
ATOM     11  C   UNL d   1      -1.993  -4.404   0.521  0.00  0.00     0.064 A 
ATOM     12  C   UNL d   1      -1.771  -5.125  -0.696  0.00  0.00     0.057 A 
ATOM     13  C   UNL d   1      -2.336  -6.375  -0.545  0.00  0.00     0.087 A 
ATOM     14  O   UNL d   1      -2.806  -6.499   0.729  0.00  0.00    -0.314 OA
ATOM     15  C   UNL d   1      -2.597  -5.316   1.371  0.00  0.00     0.065 A 
ATOM     16  C   UNL d   1      -3.060  -5.277   2.776  0.00  0.00     0.077 C 
BRANCH  13  17
ATOM     17  C   UNL d   1      -2.553  -7.514  -1.434  0.00  0.00    -0.002 A 
ATOM     18  C   UNL d   1      -2.037  -7.510  -2.741  0.00  0.00     0.016 A 
ATOM     19  C   UNL d   1      -2.274  -8.579  -3.611  0.00  0.00     0.024 A 
ATOM     20  C   UNL d   1      -3.031  -9.666  -3.184  0.00  0.00     0.034 A 
ATOM     21  C   UNL d   1      -3.553  -9.693  -1.895  0.00  0.00     0.024 A 
ATOM     22 CL   UNL d   1      -3.326 -10.979  -4.256  0.00  0.00    -0.084 Cl
ATOM     23  C   UNL d   1      -3.313  -8.623  -1.026  0.00  0.00     0.016 A 
ENDBRANCH  13  17
ENDBRANCH   8  11
ENDBRANCH   1   7
BRANCH   2  24
ATOM     24  C   UNL d   1       2.141  -1.472  -0.116  0.00  0.00     0.058 A 
ATOM     25  C   UNL d   1       3.288  -0.981  -0.737  0.00  0.00     0.031 A 
ATOM     26  C   UNL d   1       4.449  -1.759  -0.770  0.00  0.00     0.002 A 
ATOM     27  C   UNL d   1       4.474  -3.019  -0.168  0.00  0.00     0.000 A 
ATOM     28  C   UNL d   1       3.346  -3.500   0.487  0.00  0.00     0.002 A 
ATOM     29  C   UNL d   1       2.183  -2.725   0.525  0.00  0.00     0.031 A 
ENDBRANCH   2  24
BRANCH   6  30
ATOM     30  C   UNL d   1      -0.535   2.527   0.230  0.00  0.00    -0.008 A 
ATOM     31  C   UNL d   1       0.450   3.481   0.521  0.00  0.00     0.016 A 
ATOM     32  C   UNL d   1       0.131   4.845   0.612  0.00  0.00     0.038 A 
ATOM     33  C   UNL d   1      -1.184   5.269   0.435  0.00  0.00     0.078 A 
ATOM     34  C   UNL d   1      -2.159   4.329   0.094  0.00  0.00     0.038 A 
ATOM     35  C   UNL d   1      -1.843   2.970  -0.000  0.00  0.00     0.016 A 
BRANCH  33  36
ATOM     36  O   UNL d   1      -1.634   6.551   0.505  0.00  0.00    -0.255 OA
BRANCH  36  37
ATOM     37  C   UNL d   1      -1.016   7.457   1.406  0.00  0.00     0.530 C 
ATOM     38  F   UNL d   1      -0.186   6.876   2.296  0.00  0.00    -0.144 F 
ATOM     39  F   UNL d   1      -0.329   8.386   0.707  0.00  0.00    -0.144 F 
ATOM     40  F   UNL d   1      -1.987   8.092   2.104  0.00  0.00    -0.144 F 
ENDBRANCH  36  37
ENDBRANCH  33  36
ENDBRANCH   6  30
TORSDOF 7
