REMARK  4 active torsions:
REMARK  status: ('A' for Active; 'I' for Inactive)
REMARK    1  A    between atoms: C_10  and  N_1 
REMARK    2  A    between atoms: N_9  and  C_16 
REMARK    3  A    between atoms: C_13  and  C_10 
REMARK    4  A    between atoms: C_16  and  C_13 
ROOT
ATOM      1  N   UNL d   1       2.265  -0.284   0.204  0.00  0.00    -0.280 N 
ATOM      2  C   UNL d   1       1.477  -0.770   1.248  0.00  0.00     0.261 C 
ATOM      3  C   UNL d   1       1.754   0.384  -0.910  0.00  0.00     0.261 C 
ATOM      4  C   UNL d   1       0.015  -0.811   1.025  0.00  0.00     0.044 A 
ATOM      5  C   UNL d   1       0.285   0.329  -1.113  0.00  0.00     0.044 A 
ATOM      6  C   UNL d   1      -0.524  -0.275  -0.146  0.00  0.00     0.005 A 
ATOM      7  O   UNL d   1       2.439   1.017  -1.710  0.00  0.00    -0.267 OA
ATOM      8  O   UNL d   1       1.929  -1.150   2.325  0.00  0.00    -0.267 OA
ATOM      9  C   UNL d   1      -1.924  -0.338  -0.356  0.00  0.00    -0.024 A 
ATOM     10  C   UNL d   1      -0.811  -1.399   1.992  0.00  0.00     0.018 A 
ATOM     11  C   UNL d   1      -0.277   0.874  -2.275  0.00  0.00     0.018 A 
ATOM     12  C   UNL d   1      -2.186  -1.461   1.787  0.00  0.00     0.002 A 
ATOM     13  C   UNL d   1      -1.651   0.805  -2.485  0.00  0.00     0.002 A 
ATOM     14  C   UNL d   1      -2.471   0.197  -1.530  0.00  0.00     0.012 A 
ATOM     15  C   UNL d   1      -2.739  -0.938   0.619  0.00  0.00     0.012 A 
ENDROOT
BRANCH   1  16
ATOM     16  C   UNL d   1       3.715  -0.290   0.407  0.00  0.00     0.137 C 
BRANCH  16  17
ATOM     17  C   UNL d   1       4.317  -1.709   0.425  0.00  0.00     0.040 C 
BRANCH  17  18
ATOM     18  C   UNL d   1       5.839  -1.627   0.570  0.00  0.00     0.118 C 
BRANCH  18  19
ATOM     19  N   UNL d   1       6.581  -2.879   0.608  0.00  0.00    -0.408 N 
ATOM     20  C   UNL d   1       6.417  -3.791  -0.525  0.00  0.00     0.143 C 
ATOM     21  C   UNL d   1       5.510  -4.998  -0.246  0.00  0.00     0.187 C 
ATOM     22  O   UNL d   1       5.941  -5.700   0.924  0.00  0.00    -0.388 OA
ATOM     23  C   UNL d   1       5.843  -4.841   2.064  0.00  0.00     0.187 C 
ATOM     24  C   UNL d   1       6.682  -3.561   1.902  0.00  0.00     0.143 C 
ENDBRANCH  18  19
ENDBRANCH  17  18
ENDBRANCH  16  17
ENDBRANCH   1  16
TORSDOF 4
