REMARK  4 active torsions:
REMARK  status: ('A' for Active; 'I' for Inactive)
REMARK    1  A    between atoms: C_4  and  C_1 
REMARK    2  A    between atoms: O_6  and  C_5 
REMARK    3  A    between atoms: C_9  and  O_6 
REMARK    4  A    between atoms: C_11  and  C_9 
ROOT
ATOM      1  N   UNL d   1      -0.222  -8.429  -1.220  0.00  0.00    -0.191 NA
ATOM      2  C   UNL d   1       0.650  -7.673  -1.101  0.00  0.00     0.099 C 
ATOM      3  C   UNL d   1       1.738  -6.747  -0.955  0.00  0.00     0.045 A 
ATOM      4  C   UNL d   1       1.482  -5.384  -0.754  0.00  0.00     0.032 A 
ATOM      5  C   UNL d   1       2.540  -4.475  -0.603  0.00  0.00    -0.033 A 
ATOM      6  C   UNL d   1       4.114  -6.320  -0.846  0.00  0.00     0.002 A 
ATOM      7  C   UNL d   1       3.059  -7.213  -0.996  0.00  0.00     0.022 A 
ATOM      8  C   UNL d   1       3.857  -4.964  -0.648  0.00  0.00     0.009 A 
ENDROOT
BRANCH   5   9
ATOM      9  C   UNL d   1       2.337  -2.999  -0.310  0.00  0.00     0.214 C 
BRANCH   9  10
ATOM     10  O   UNL d   1       0.997  -2.580  -0.525  0.00  0.00    -0.346 OA
BRANCH  10  11
ATOM     11  C   UNL d   1       0.634  -1.285  -0.259  0.00  0.00     0.083 A 
ATOM     12  C   UNL d   1       1.405  -0.132  -0.030  0.00  0.00     0.043 A 
ATOM     13  C   UNL d   1       0.764   1.114   0.151  0.00  0.00     0.018 A 
ATOM     14  C   UNL d   1      -0.624   1.226   0.106  0.00  0.00     0.001 A 
ATOM     15  C   UNL d   1      -1.392   0.092  -0.110  0.00  0.00     0.003 A 
ATOM     16  C   UNL d   1      -0.767  -1.144  -0.292  0.00  0.00     0.038 A 
BRANCH  12  17
ATOM     17  C   UNL d   1       2.886  -0.073   0.073  0.00  0.00     0.158 C 
ATOM     18  O   UNL d   1       3.486  -0.760   0.894  0.00  0.00    -0.293 OA
ATOM     19  C   UNL d   1       3.615   0.934  -0.780  0.00  0.00     0.097 C 
ENDBRANCH  12  17
ENDBRANCH  10  11
ENDBRANCH   9  10
ENDBRANCH   5   9
TORSDOF 4
