REMARK  2 active torsions:
REMARK  status: ('A' for Active; 'I' for Inactive)
REMARK    1  A    between atoms: S_6  and  C_5 
REMARK    2  A    between atoms: C_9  and  S_6 
ROOT
ATOM      1  N   UNL d   1       3.030   0.078   0.859  0.00  0.00    -0.191 NA
ATOM      2  N   UNL d   1      -1.768   0.200   1.287  0.00  0.00    -0.359 N 
ATOM      3  HN  UNL d   1      -2.399   0.220   2.089  1.00  0.00     0.166 HD
ATOM      4  C   UNL d   1       1.889   0.116   0.653  0.00  0.00     0.101 C 
ATOM      5  C   UNL d   1      -2.242   0.193   0.019  0.00  0.00     0.074 A 
ATOM      6  C   UNL d   1       0.484   0.157   0.401  0.00  0.00     0.060 A 
ATOM      7  C   UNL d   1      -0.422   0.181   1.450  0.00  0.00     0.111 A 
ATOM      8  C   UNL d   1      -1.406   0.178  -1.093  0.00  0.00     0.039 A 
ATOM      9  C   UNL d   1      -0.023   0.162  -0.897  0.00  0.00     0.027 A 
ENDROOT
BRANCH   5  10
ATOM     10  S   UNL d   1      -4.005   0.076  -0.186  0.00  0.00    -0.073 SA
BRANCH  10  11
ATOM     11  C   UNL d   1      -4.502   1.786  -0.231  0.00  0.00     0.007 A 
ATOM     12  C   UNL d   1      -5.254   2.242  -1.321  0.00  0.00     0.020 A 
ATOM     13  C   UNL d   1      -5.721   3.559  -1.361  0.00  0.00     0.025 A 
ATOM     14  C   UNL d   1      -5.443   4.423  -0.305  0.00  0.00     0.034 A 
ATOM     15  C   UNL d   1      -4.701   3.982   0.789  0.00  0.00     0.025 A 
ATOM     16 CL   UNL d   1      -6.032   6.039  -0.346  0.00  0.00    -0.084 Cl
ATOM     17  C   UNL d   1      -4.233   2.663   0.827  0.00  0.00     0.020 A 
ENDBRANCH  10  11
ENDBRANCH   5  10
TORSDOF 2
