REMARK  6 active torsions:
REMARK  status: ('A' for Active; 'I' for Inactive)
REMARK    1  A    between atoms: C_7  and  N_1 
REMARK    2  A    between atoms: C_8  and  C_6 
REMARK    3  A    between atoms: C_15  and  C_7 
REMARK    4  A    between atoms: O_19  and  C_10 
REMARK    5  A    between atoms: O_25  and  C_14 
REMARK    6  A    between atoms: C_17  and  C_15 
ROOT
ATOM      1  N   UNL d   1       0.182  -1.121  -0.400  0.00  0.00    -0.298 N 
ATOM      2  C   UNL d   1       0.977   0.003  -0.326  0.00  0.00     0.148 C 
ATOM      3  C   UNL d   1      -1.466   0.558  -0.511  0.00  0.00     0.076 C 
ATOM      4  C   UNL d   1      -1.175  -0.899  -0.576  0.00  0.00     0.266 C 
ATOM      5  S   UNL d   1       0.004   1.444  -0.624  0.00  0.00    -0.055 SA
ATOM      6  C   UNL d   1      -2.650   1.132  -0.242  0.00  0.00     0.038 C 
ATOM      7  S   UNL d   1       2.603   0.104   0.024  0.00  0.00    -0.052 SA
ATOM      8  O   UNL d   1      -2.018  -1.770  -0.736  0.00  0.00    -0.266 OA
ENDROOT
BRANCH   6   9
ATOM      9  C   UNL d   1      -3.879   0.379   0.038  0.00  0.00    -0.001 A 
ATOM     10  C   UNL d   1      -4.275  -0.105   1.297  0.00  0.00     0.081 A 
ATOM     11  C   UNL d   1      -5.446  -0.880   1.392  0.00  0.00     0.074 A 
ATOM     12  C   UNL d   1      -6.222  -1.178   0.272  0.00  0.00     0.070 A 
ATOM     13  C   UNL d   1      -5.837  -0.675  -0.965  0.00  0.00     0.038 A 
ATOM     14  C   UNL d   1      -4.680   0.097  -1.083  0.00  0.00     0.017 A 
BRANCH  10  15
ATOM     15  O   UNL d   1      -3.692   0.046   2.526  0.00  0.00    -0.355 OA
ATOM     16  C   UNL d   1      -2.512   0.801   2.704  0.00  0.00     0.210 C 
ENDBRANCH  10  15
BRANCH  12  17
ATOM     17  O   UNL d   1      -7.357  -1.941   0.259  0.00  0.00    -0.356 OA
ATOM     18  C   UNL d   1      -7.767  -2.499   1.502  0.00  0.00     0.210 C 
ENDBRANCH  12  17
ENDBRANCH   6   9
BRANCH   1  19
ATOM     19  C   UNL d   1       0.622  -2.503  -0.150  0.00  0.00     0.138 C 
BRANCH  19  20
ATOM     20  C   UNL d   1       0.517  -3.418  -1.380  0.00  0.00     0.059 C 
BRANCH  20  21
ATOM     21  C   UNL d   1       0.839  -4.862  -1.050  0.00  0.00    -0.057 A 
ATOM     22  C   UNL d   1      -0.173  -5.719  -0.588  0.00  0.00     0.009 A 
ATOM     23  C   UNL d   1       0.109  -7.058  -0.296  0.00  0.00     0.024 A 
ATOM     24  C   UNL d   1       1.404  -7.545  -0.465  0.00  0.00     0.034 A 
ATOM     25  C   UNL d   1       2.419  -6.702  -0.913  0.00  0.00     0.024 A 
ATOM     26 CL   UNL d   1       1.749  -9.194  -0.116  0.00  0.00    -0.084 Cl
ATOM     27  C   UNL d   1       2.137  -5.363  -1.201  0.00  0.00     0.009 A 
ENDBRANCH  20  21
ENDBRANCH  19  20
ENDBRANCH   1  19
TORSDOF 6
