REMARK  4 active torsions:
REMARK  status: ('A' for Active; 'I' for Inactive)
REMARK    1  A    between atoms: C_7  and  C_4 
REMARK    2  A    between atoms: C_17  and  C_10 
REMARK    3  A    between atoms: C_21  and  C_11 
REMARK    4  A    between atoms: C_12  and  C_18 
ROOT
ATOM      1  N   UNL d   1       0.324   0.632   0.046  0.00  0.00    -0.239 N 
ATOM      2  N   UNL d   1       1.626   1.003   0.135  0.00  0.00    -0.289 N 
ATOM      3  HN  UNL d   1       1.996   1.945   0.267  1.00  0.00     0.188 HD
ATOM      4  C   UNL d   1       2.320  -0.135   0.013  0.00  0.00     0.086 A 
ATOM      5  C   UNL d   1       0.194  -0.759  -0.047  0.00  0.00     0.129 A 
ATOM      6  C   UNL d   1       1.475  -1.256  -0.120  0.00  0.00     0.084 A 
ATOM      7  C   UNL d   1      -0.814   1.455   0.027  0.00  0.00     0.070 A 
ATOM      8  N   UNL d   1      -1.025  -1.377  -0.080  0.00  0.00    -0.351 N 
ATOM      9  HN  UNL d   1      -1.117  -2.392  -0.116  1.00  0.00     0.166 HD
ATOM     10  C   UNL d   1      -2.034   0.894  -0.029  0.00  0.00     0.049 A 
ATOM     11  C   UNL d   1      -2.058  -0.592  -0.061  0.00  0.00     0.092 A 
ENDROOT
BRANCH   4  12
ATOM     12  C   UNL d   1       3.825  -0.179   0.013  0.00  0.00     0.102 A 
ATOM     13  N   UNL d   1       4.493  -1.282  -0.269  0.00  0.00    -0.351 N 
ATOM     14  C   UNL d   1       5.861  -1.037  -0.272  0.00  0.00     0.024 A 
ATOM     15  HN  UNL d   1       4.064  -2.188  -0.459  1.00  0.00     0.166 HD
ATOM     16  C   UNL d   1       6.202   0.254   0.097  0.00  0.00     0.077 A 
ATOM     17  S   UNL d   1       4.798   1.194   0.359  0.00  0.00    -0.080 SA
BRANCH  14  18
ATOM     18  C   UNL d   1       6.820  -2.136  -0.708  0.00  0.00    -0.008 C 
ATOM     19  C   UNL d   1       6.067  -3.439  -1.046  0.00  0.00     0.021 C 
ATOM     20  C   UNL d   1       7.580  -1.679  -1.971  0.00  0.00     0.021 C 
ATOM     21  C   UNL d   1       7.839  -2.447   0.404  0.00  0.00     0.021 C 
ENDBRANCH  14  18
ENDBRANCH   4  12
BRANCH   7  22
ATOM     22  C   UNL d   1      -0.703   2.920   0.017  0.00  0.00    -0.006 A 
ATOM     23  C   UNL d   1      -0.574   3.600  -1.203  0.00  0.00     0.030 A 
ATOM     24  C   UNL d   1      -0.498   5.002  -1.240  0.00  0.00     0.048 A 
ATOM     25  C   UNL d   1      -0.545   5.715  -0.033  0.00  0.00     0.016 A 
ATOM     26  C   UNL d   1      -0.665   5.042   1.184  0.00  0.00     0.002 A 
ATOM     27  C   UNL d   1      -0.746   3.649   1.210  0.00  0.00     0.014 A 
BRANCH  24  28
ATOM     28  C   UNL d   1      -0.379   5.742  -2.550  0.00  0.00     0.417 C 
ATOM     29  F   UNL d   1      -0.341   4.924  -3.639  0.00  0.00    -0.166 F 
ATOM     30  F   UNL d   1      -1.427   6.587  -2.760  0.00  0.00    -0.166 F 
ATOM     31  F   UNL d   1       0.741   6.512  -2.620  0.00  0.00    -0.166 F 
ENDBRANCH  24  28
ENDBRANCH   7  22
TORSDOF 4
