REMARK  3 active torsions:
REMARK  status: ('A' for Active; 'I' for Inactive)
REMARK    1  A    between atoms: C_4  and  N_1 
REMARK    2  A    between atoms: C_2  and  O_3 
REMARK    3  A    between atoms: O_3  and  C_6 
ROOT
ATOM      1  C   UNL d   1       0.462   0.355   1.185  0.00  0.00     0.104 C 
ATOM      2  C   UNL d   1       0.964   1.600   1.579  0.00  0.00     0.062 C 
ATOM      3  C   UNL d   1      -0.773   1.728   3.274  0.00  0.00     0.098 C 
ATOM      4  C   UNL d   1       0.345   2.281   2.630  0.00  0.00     0.070 C 
ATOM      5  C   UNL d   1      -0.591  -0.248   1.887  0.00  0.00     0.039 C 
ATOM      6  C   UNL d   1      -1.185   0.428   2.953  0.00  0.00     0.041 C 
ATOM      7 CL   UNL d   1       0.967   3.826   3.083  0.00  0.00    -0.081 Cl
ENDROOT
BRANCH   3   8
ATOM      8  O   UNL d   1      -1.443   2.519   4.184  0.00  0.00    -0.306 OA
BRANCH   8   9
ATOM      9  C   UNL d   1      -2.814   2.400   4.300  0.00  0.00     0.119 A 
ATOM     10  C   UNL d   1      -3.333   2.353   5.603  0.00  0.00     0.069 A 
ATOM     11 CL   UNL d   1      -2.302   2.459   6.987  0.00  0.00    -0.081 Cl
ATOM     12  C   UNL d   1      -4.707   2.216   5.823  0.00  0.00     0.027 A 
ATOM     13  C   UNL d   1      -5.581   2.118   4.743  0.00  0.00     0.003 A 
ATOM     14  C   UNL d   1      -5.085   2.208   3.444  0.00  0.00     0.027 A 
ATOM     15  C   UNL d   1      -3.715   2.388   3.219  0.00  0.00     0.069 A 
ATOM     16 CL   UNL d   1      -3.239   2.644   1.573  0.00  0.00    -0.081 Cl
ENDBRANCH   8   9
ENDBRANCH   3   8
BRANCH   1  17
ATOM     17  N   UNL d   1       1.020  -0.318   0.004  0.00  0.00    -0.116 N 
ATOM     18  O   UNL d   1       1.998   0.210  -0.546  0.00  0.00    -0.532 OA
ATOM     19  O   UNL d   1       0.473  -1.359  -0.375  0.00  0.00    -0.532 OA
ENDBRANCH   1  17
TORSDOF 3
