REMARK  7 active torsions:
REMARK  status: ('A' for Active; 'I' for Inactive)
REMARK    1  A    between atoms: C_7  and  C_1 
REMARK    2  A    between atoms: O_11  and  C_2 
REMARK    3  A    between atoms: C_3  and  N_6 
REMARK       I    between atoms: C_4  and  N_12 
REMARK       I    between atoms: N_6  and  C_4 
REMARK    4  A    between atoms: C_5  and  C_14 
REMARK    5  A    between atoms: O_31  and  C_7 
REMARK    6  A    between atoms: N_12  and  C_8 
REMARK    7  A    between atoms: C_15  and  O_11 
ROOT
ATOM      1  C   UNL d   1       2.050   3.377   0.779  0.00  0.00     0.071 C 
ATOM      2  C   UNL d   1       2.327   5.694   0.038  0.00  0.00     0.050 C 
ATOM      3  C   UNL d   1       2.196   2.956  -0.549  0.00  0.00     0.102 C 
ATOM      4  C   UNL d   1       2.059   4.753   1.048  0.00  0.00     0.048 C 
ATOM      5  C   UNL d   1       2.608   5.238  -1.255  0.00  0.00     0.019 C 
ATOM      6  C   UNL d   1       2.544   3.878  -1.546  0.00  0.00     0.040 C 
ENDROOT
BRANCH   1   7
ATOM      7  N   UNL d   1       1.858   2.537   1.893  0.00  0.00    -0.306 N 
ATOM      8  C   UNL d   1       2.526   1.401   2.292  0.00  0.00     0.325 C 
ATOM      9  N   UNL d   1       3.526   0.959   1.481  0.00  0.00    -0.305 N 
ATOM     10  O   UNL d   1       2.261   0.977   3.410  0.00  0.00    -0.247 OA
ATOM     11  H   UNL d   1       3.852   1.656   0.826  0.00  0.00     0.171 HD
ATOM     12  H   UNL d   1       1.389   2.934   2.699  0.00  0.00     0.171 HD
BRANCH   9  13
ATOM     13  C   UNL d   1       4.400  -0.158   1.609  0.00  0.00     0.080 A 
ATOM     14  C   UNL d   1       4.168  -1.361   2.306  0.00  0.00     0.064 A 
ATOM     15  C   UNL d   1       5.111  -2.406   2.255  0.00  0.00     0.050 A 
ATOM     16 CL   UNL d   1       2.713  -1.773   3.137  0.00  0.00    -0.082 Cl
ATOM     17  C   UNL d   1       6.272  -2.283   1.502  0.00  0.00     0.037 A 
ATOM     18  C   UNL d   1       6.536  -1.108   0.819  0.00  0.00     0.050 A 
ATOM     19 CL   UNL d   1       7.359  -3.609   1.375  0.00  0.00    -0.084 Cl
ATOM     20  C   UNL d   1       5.612  -0.061   0.879  0.00  0.00     0.064 A 
ATOM     21 CL   UNL d   1       6.005   1.382  -0.008  0.00  0.00    -0.082 Cl
ENDBRANCH   9  13
ENDBRANCH   1   7
BRANCH   3  22
ATOM     22  O   UNL d   1       1.929   1.651  -0.906  0.00  0.00    -0.307 OA
BRANCH  22  23
ATOM     23  C   UNL d   1       1.040   1.395  -1.912  0.00  0.00     0.099 A 
ATOM     24  C   UNL d   1       1.074   0.205  -2.620  0.00  0.00     0.114 A 
ATOM     25  S   UNL d   1      -0.168   0.140  -3.806  0.00  0.00    -0.093 SA
ATOM     26  C   UNL d   1      -0.728   1.701  -3.412  0.00  0.00     0.053 A 
ATOM     27  C   UNL d   1      -0.028   2.243  -2.359  0.00  0.00     0.046 A 
BRANCH  24  28
ATOM     28  C   UNL d   1       1.982  -0.917  -2.531  0.00  0.00     0.302 C 
ATOM     29  O   UNL d   1       1.732  -2.075  -2.849  0.00  0.00    -0.259 OA
BRANCH  28  30
ATOM     30  O   UNL d   1       3.204  -0.492  -2.099  0.00  0.00    -0.322 OA
ATOM     31  C   UNL d   1       4.216  -1.497  -2.098  0.00  0.00     0.213 C 
ENDBRANCH  28  30
ENDBRANCH  24  28
ENDBRANCH  22  23
ENDBRANCH   3  22
BRANCH   2  32
ATOM     32  C   UNL d   1       2.339   7.174   0.335  0.00  0.00     0.417 C 
ATOM     33  F   UNL d   1       1.886   7.480   1.582  0.00  0.00    -0.166 F 
ATOM     34  F   UNL d   1       3.585   7.710   0.243  0.00  0.00    -0.166 F 
ATOM     35  F   UNL d   1       1.559   7.881  -0.530  0.00  0.00    -0.166 F 
ENDBRANCH   2  32
TORSDOF 7
