REMARK  4 active torsions:
REMARK  status: ('A' for Active; 'I' for Inactive)
REMARK       I    between atoms: C_6  and  N_1 
REMARK    1  A    between atoms: C_9  and  C_6 
REMARK    2  A    between atoms: C_18  and  C_8 
REMARK    3  A    between atoms: O_10  and  C_9 
REMARK    4  A    between atoms: C_11  and  O_10 
ROOT
ATOM      1  N   UNL d   1       0.468   1.452   0.145  0.00  0.00    -0.184 N 
ATOM      2  C   UNL d   1       0.135  -0.787   0.012  0.00  0.00     0.058 A 
ATOM      3  C   UNL d   1       1.204   0.243   0.111  0.00  0.00     0.281 A 
ATOM      4  N   UNL d   1      -0.907   1.260   0.054  0.00  0.00    -0.292 N 
ATOM      5  HN  UNL d   1      -1.621   1.989   0.053  1.00  0.00     0.187 HD
ATOM      6  C   UNL d   1       1.035   2.706   0.347  0.00  0.00     0.275 C 
ATOM      7  C   UNL d   1      -1.116  -0.023  -0.028  0.00  0.00     0.038 A 
ATOM      8  C   UNL d   1       0.235  -2.123  -0.002  0.00  0.00     0.030 C 
ATOM      9  O   UNL d   1       2.399   0.039   0.142  0.00  0.00    -0.265 OA
ATOM     10  O   UNL d   1       2.253   2.851   0.505  0.00  0.00    -0.268 OA
ATOM     11  C   UNL d   1      -2.481  -0.622  -0.115  0.00  0.00     0.071 C 
ENDROOT
BRANCH   6  12
ATOM     12  C   UNL d   1       0.127   3.958   0.489  0.00  0.00     0.219 C 
ATOM     13  C   UNL d   1      -1.349   3.921   0.124  0.00  0.00     0.050 C 
BRANCH  12  14
ATOM     14  O   UNL d   1       0.677   5.013  -0.326  0.00  0.00    -0.335 OA
BRANCH  14  15
ATOM     15  C   UNL d   1       1.475   5.955   0.267  0.00  0.00     0.091 A 
ATOM     16  C   UNL d   1       2.485   6.543  -0.512  0.00  0.00     0.069 A 
ATOM     17  C   UNL d   1       3.357   7.485   0.039  0.00  0.00     0.050 A 
ATOM     18 CL   UNL d   1       2.679   6.143  -2.184  0.00  0.00    -0.081 Cl
ATOM     19  C   UNL d   1       3.203   7.865   1.368  0.00  0.00     0.035 A 
ATOM     20  C   UNL d   1       2.166   7.340   2.136  0.00  0.00     0.026 A 
ATOM     21 CL   UNL d   1       4.281   9.007   2.069  0.00  0.00    -0.084 Cl
ATOM     22  C   UNL d   1       1.296   6.400   1.582  0.00  0.00     0.040 A 
ENDBRANCH  14  15
ENDBRANCH  12  14
ENDBRANCH   6  12
BRANCH   8  23
ATOM     23  C   UNL d   1       1.520  -2.817   0.100  0.00  0.00    -0.035 A 
ATOM     24  C   UNL d   1       2.033  -3.149   1.359  0.00  0.00     0.011 A 
ATOM     25  C   UNL d   1       3.298  -3.729   1.467  0.00  0.00     0.001 A 
ATOM     26  C   UNL d   1       4.049  -3.982   0.321  0.00  0.00     0.000 A 
ATOM     27  C   UNL d   1       3.534  -3.665  -0.936  0.00  0.00     0.001 A 
ATOM     28  C   UNL d   1       2.270  -3.085  -1.048  0.00  0.00     0.011 A 
ENDBRANCH   8  23
TORSDOF 4
