REMARK  2 active torsions:
REMARK  status: ('A' for Active; 'I' for Inactive)
REMARK    1  A    between atoms: C_6  and  N_1 
REMARK    2  A    between atoms: S_15  and  C_14 
ROOT
ATOM      1  N   UNL d   1      -2.272  -0.045  -0.265  0.00  0.00    -0.252 N 
ATOM      2  C   UNL d   1      -1.543  -1.158   0.087  0.00  0.00     0.236 C 
ATOM      3  C   UNL d   1      -1.479   1.085  -0.258  0.00  0.00     0.236 C 
ATOM      4  C   UNL d   1      -0.239  -0.727   0.718  0.00  0.00     0.096 C 
ATOM      5  C   UNL d   1      -0.268   0.788   0.598  0.00  0.00     0.095 C 
ATOM      6  C   UNL d   1       0.991   1.516   0.150  0.00  0.00     0.042 C 
ATOM      7  C   UNL d   1       0.963  -1.495   0.165  0.00  0.00     0.048 C 
ATOM      8  O   UNL d   1      -1.850  -2.336  -0.055  0.00  0.00    -0.272 OA
ATOM      9  O   UNL d   1      -1.709   2.187  -0.723  0.00  0.00    -0.272 OA
ATOM     10  C   UNL d   1       2.048   0.665  -0.467  0.00  0.00    -0.023 C 
ATOM     11  C   UNL d   1       2.056  -0.674  -0.456  0.00  0.00    -0.087 C 
ATOM     12  C   UNL d   1       3.225  -1.429  -1.026  0.00  0.00     0.043 C 
ENDROOT
BRANCH   1  13
ATOM     13  C   UNL d   1      -3.680  -0.043  -0.509  0.00  0.00     0.046 A 
ATOM     14  C   UNL d   1      -4.487  -1.060   0.043  0.00  0.00     0.048 A 
ATOM     15  C   UNL d   1      -5.888  -0.993   0.026  0.00  0.00     0.002 A 
ATOM     16  C   UNL d   1      -6.495   0.091  -0.612  0.00  0.00     0.018 A 
ATOM     17  C   UNL d   1      -5.722   1.083  -1.212  0.00  0.00     0.004 A 
ATOM     18  C   UNL d   1      -4.328   1.020  -1.152  0.00  0.00     0.030 A 
BRANCH  15  19
ATOM     19  S   UNL d   1      -6.975  -2.172   0.825  0.00  0.00    -0.134 SA
ATOM     20  C   UNL d   1      -5.836  -3.338   1.622  0.00  0.00     0.095 C 
ENDBRANCH  15  19
ENDBRANCH   1  13
TORSDOF 2
