REMARK  3 active torsions:
REMARK  status: ('A' for Active; 'I' for Inactive)
REMARK    1  A    between atoms: C_2  and  C_1 
REMARK       I    between atoms: N_5  and  C_1 
REMARK    2  A    between atoms: C_11  and  N_5 
REMARK    3  A    between atoms: C_12  and  N_5 
ROOT
ATOM      1  N   UNL d   1       0.480   1.745   4.088  0.00  0.00    -0.196 NA
ATOM      2  C   UNL d   1       0.727   0.845   3.397  0.00  0.00     0.079 C 
ATOM      3  C   UNL d   1       0.979  -0.301   2.506  0.00  0.00     0.251 C 
ENDROOT
BRANCH   3   4
ATOM      4  N   UNL d   1       0.167  -0.250   1.273  0.00  0.00    -0.323 N 
ATOM      5  C   UNL d   1       0.848   0.023   0.082  0.00  0.00     0.255 C 
ATOM      6  O   UNL d   1       2.075   0.070   0.032  0.00  0.00    -0.267 OA
BRANCH   5   7
ATOM      7  C   UNL d   1       0.121   0.216  -1.200  0.00  0.00     0.033 A 
ATOM      8  C   UNL d   1       0.634  -0.424  -2.337  0.00  0.00     0.041 A 
ATOM      9  C   UNL d   1      -0.008  -0.280  -3.565  0.00  0.00     0.035 A 
ATOM     10 CL   UNL d   1       0.629  -1.057  -4.961  0.00  0.00    -0.084 Cl
ATOM     11  C   UNL d   1      -1.162   0.494  -3.673  0.00  0.00     0.024 A 
ATOM     12  C   UNL d   1      -1.652   1.168  -2.554  0.00  0.00     0.003 A 
ATOM     13  C   UNL d   1      -0.994   1.054  -1.326  0.00  0.00     0.017 A 
ENDBRANCH   5   7
BRANCH   4  14
ATOM     14  C   UNL d   1      -1.302  -0.332   1.398  0.00  0.00     0.251 C 
ATOM     15  C   UNL d   1      -1.803  -1.156   2.510  0.00  0.00     0.079 C 
ATOM     16  N   UNL d   1      -2.180  -1.796   3.403  0.00  0.00    -0.196 NA
ENDBRANCH   4  14
ENDBRANCH   3   4
TORSDOF 3
