REMARK  5 active torsions:
REMARK  status: ('A' for Active; 'I' for Inactive)
REMARK    1  A    between atoms: C_14  and  C_3 
REMARK    2  A    between atoms: C_9  and  C_4 
REMARK    3  A    between atoms: C_5  and  C_7 
REMARK    4  A    between atoms: C_15  and  O_22 
REMARK    5  A    between atoms: O_22  and  C_29 
ROOT
ATOM      1  C   UNL d   1      -0.024  -2.577  -0.086  0.00  0.00    -0.002 A 
ATOM      2  C   UNL d   1       0.879  -3.409   0.591  0.00  0.00     0.017 A 
ATOM      3  C   UNL d   1      -1.121  -3.171  -0.732  0.00  0.00     0.017 A 
ATOM      4  C   UNL d   1      -0.394  -5.374  -0.040  0.00  0.00     0.077 A 
ATOM      5  C   UNL d   1      -1.307  -4.559  -0.705  0.00  0.00     0.038 A 
ATOM      6  C   UNL d   1       0.680  -4.789   0.640  0.00  0.00     0.038 A 
ENDROOT
BRANCH   1   7
ATOM      7  C   UNL d   1       0.221  -1.128  -0.094  0.00  0.00     0.084 A 
ATOM      8  N   UNL d   1       1.419  -0.576  -0.059  0.00  0.00    -0.349 N 
ATOM      9  C   UNL d   1       1.317   0.805  -0.004  0.00  0.00     0.050 A 
ATOM     10  HN  UNL d   1       2.298  -1.094  -0.070  1.00  0.00     0.166 HD
ATOM     11  C   UNL d   1       0.024   1.288  -0.006  0.00  0.00     0.082 A 
ATOM     12  S   UNL d   1      -1.090  -0.009  -0.064  0.00  0.00    -0.081 SA
BRANCH   9  13
ATOM     13  C   UNL d   1       2.500   1.655   0.025  0.00  0.00    -0.006 A 
ATOM     14  C   UNL d   1       2.492   2.893   0.682  0.00  0.00     0.053 A 
ATOM     15  C   UNL d   1       3.617   3.723   0.662  0.00  0.00     0.102 A 
ATOM     16  O   UNL d   1       3.450   4.928   1.299  0.00  0.00    -0.348 OA
ATOM     17  C   UNL d   1       4.792   3.292   0.032  0.00  0.00     0.102 A 
ATOM     18  C   UNL d   1       4.109   6.007   0.635  0.00  0.00     0.178 C 
ATOM     19  C   UNL d   1       5.556   6.120   1.080  0.00  0.00     0.053 C 
ATOM     20  C   UNL d   1       6.233   4.762   1.155  0.00  0.00     0.178 C 
ATOM     21  O   UNL d   1       5.973   3.988  -0.017  0.00  0.00    -0.348 OA
ATOM     22  C   UNL d   1       4.805   2.062  -0.629  0.00  0.00     0.040 A 
ATOM     23  C   UNL d   1       3.670   1.244  -0.626  0.00  0.00     0.017 A 
ENDBRANCH   9  13
ENDBRANCH   1   7
BRANCH   4  24
ATOM     24  O   UNL d   1      -0.651  -6.729  -0.060  0.00  0.00    -0.294 OA
BRANCH  24  25
ATOM     25  C   UNL d   1       0.440  -7.588  -0.044  0.00  0.00     0.147 A 
ATOM     26  N   UNL d   1       1.596  -7.197  -0.624  0.00  0.00    -0.346 N 
ATOM     27  C   UNL d   1       2.674  -7.991  -0.454  0.00  0.00     0.106 A 
ATOM     28  HN  UNL d   1       1.653  -6.336  -1.167  1.00  0.00     0.167 HD
ATOM     29  C   UNL d   1       2.642  -9.188   0.240  0.00  0.00     0.063 A 
ATOM     30  C   UNL d   1       1.408  -9.613   0.750  0.00  0.00     0.022 A 
ATOM     31  C   UNL d   1       0.283  -8.801   0.605  0.00  0.00     0.057 A 
BRANCH  29  32
ATOM     32  C   UNL d   1       3.903  -9.965   0.453  0.00  0.00     0.418 C 
ATOM     33  F   UNL d   1       5.007  -9.365  -0.074  0.00  0.00    -0.166 F 
ATOM     34  F   UNL d   1       4.179 -10.151   1.773  0.00  0.00    -0.166 F 
ATOM     35  F   UNL d   1       3.854 -11.208  -0.099  0.00  0.00    -0.166 F 
ENDBRANCH  29  32
ENDBRANCH  24  25
ENDBRANCH   4  24
TORSDOF 5
