REMARK  3 active torsions:
REMARK  status: ('A' for Active; 'I' for Inactive)
REMARK    1  A    between atoms: C_4  and  C_1 
REMARK    2  A    between atoms: C_14  and  C_5 
REMARK    3  A    between atoms: C_7  and  C_10 
ROOT
ATOM      1  C   UNL d   1       0.208  -1.145  -0.042  0.00  0.00     0.088 A 
ATOM      2  N   UNL d   1       1.379  -0.567  -0.234  0.00  0.00    -0.349 N 
ATOM      3  HN  UNL d   1       2.237  -1.066  -0.469  1.00  0.00     0.166 HD
ATOM      4  C   UNL d   1       1.290   0.807  -0.072  0.00  0.00     0.050 A 
ATOM      5  S   UNL d   1      -1.054  -0.043   0.383  0.00  0.00    -0.081 SA
ATOM      6  C   UNL d   1       0.017   1.275   0.179  0.00  0.00     0.082 A 
ENDROOT
BRANCH   1   7
ATOM      7  C   UNL d   1      -0.017  -2.606  -0.068  0.00  0.00     0.041 A 
ATOM      8  C   UNL d   1       0.898  -3.478   0.568  0.00  0.00     0.049 A 
ATOM      9  C   UNL d   1       0.728  -4.874   0.542  0.00  0.00     0.041 A 
ATOM     10 CL   UNL d   1       2.281  -2.920   1.457  0.00  0.00    -0.083 Cl
ATOM     11  C   UNL d   1      -0.374  -5.455  -0.092  0.00  0.00     0.051 A 
ATOM     12  C   UNL d   1      -1.289  -4.607  -0.725  0.00  0.00     0.041 A 
ATOM     13  C   UNL d   1      -1.106  -3.211  -0.735  0.00  0.00     0.049 A 
ATOM     14 CL   UNL d   1      -2.276  -2.334  -1.668  0.00  0.00    -0.083 Cl
BRANCH  11  15
ATOM     15  C   UNL d   1      -0.578  -6.947  -0.120  0.00  0.00     0.417 C 
ATOM     16  F   UNL d   1       0.431  -7.643   0.471  0.00  0.00    -0.166 F 
ATOM     17  F   UNL d   1      -1.717  -7.317   0.522  0.00  0.00    -0.166 F 
ATOM     18  F   UNL d   1      -0.681  -7.434  -1.385  0.00  0.00    -0.166 F 
ENDBRANCH  11  15
ENDBRANCH   1   7
BRANCH   4  19
ATOM     19  C   UNL d   1       2.475   1.657  -0.094  0.00  0.00    -0.009 A 
ATOM     20  C   UNL d   1       2.440   2.962  -0.606  0.00  0.00     0.015 A 
ATOM     21  C   UNL d   1       3.579   3.773  -0.561  0.00  0.00     0.024 A 
ATOM     22  C   UNL d   1       4.758   3.283  -0.004  0.00  0.00     0.034 A 
ATOM     23  C   UNL d   1       4.813   1.985   0.500  0.00  0.00     0.024 A 
ATOM     24 CL   UNL d   1       6.153   4.289   0.066  0.00  0.00    -0.084 Cl
ATOM     25  C   UNL d   1       3.676   1.174   0.448  0.00  0.00     0.015 A 
ENDBRANCH   4  19
TORSDOF 3
