REMARK  6 active torsions:
REMARK  status: ('A' for Active; 'I' for Inactive)
REMARK    1  A    between atoms: N_9  and  S_1 
REMARK    2  A    between atoms: C_16  and  S_1 
REMARK    3  A    between atoms: C_15  and  C_2 
REMARK    4  A    between atoms: C_11  and  C_4 
REMARK    5  A    between atoms: C_8  and  N_14 
REMARK    6  A    between atoms: O_29  and  C_15 
ROOT
ATOM      1  C   UNL d   1       2.877  -7.929   0.750  0.00  0.00     0.074 A 
ATOM      2  C   UNL d   1       2.672  -6.801   1.626  0.00  0.00     0.068 A 
ATOM      3  C   UNL d   1       2.743  -6.147   3.969  0.00  0.00     0.070 A 
ATOM      4  C   UNL d   1       2.867  -7.131   2.975  0.00  0.00     0.047 A 
ATOM      5  N   UNL d   1       2.315  -5.545   1.238  0.00  0.00    -0.341 N 
ATOM      6  HN  UNL d   1       2.131  -5.336   0.257  1.00  0.00     0.167 HD
ATOM      7  C   UNL d   1       2.211  -4.593   2.171  0.00  0.00     0.104 A 
ATOM      8  S   UNL d   1       3.229  -8.803   3.149  0.00  0.00    -0.098 SA
ATOM      9  C   UNL d   1       3.171  -9.070   1.476  0.00  0.00     0.070 A 
ATOM     10  C   UNL d   1       2.444  -4.856   3.511  0.00  0.00     0.066 A 
ENDROOT
BRANCH   7  11
ATOM     11  N   UNL d   1       1.703  -3.345   1.852  0.00  0.00    -0.365 N 
ATOM     12  C   UNL d   1       0.802  -3.241   0.700  0.00  0.00     0.140 C 
ATOM     13  C   UNL d   1      -0.170  -2.084   1.008  0.00  0.00     0.127 C 
ATOM     14  N   UNL d   1       0.568  -0.786   1.203  0.00  0.00    -0.203 NA
ATOM     15  C   UNL d   1       1.605  -0.920   2.290  0.00  0.00     0.127 C 
ATOM     16  C   UNL d   1       2.533  -2.149   2.076  0.00  0.00     0.140 C 
BRANCH  14  17
ATOM     17  S   UNL d   1       1.093  -0.052  -0.242  0.00  0.00     0.243 S 
ATOM     18  O   UNL d   1       0.172  -0.414  -1.302  0.00  0.00    -0.206 OA
ATOM     19  O   UNL d   1       2.513  -0.280  -0.376  0.00  0.00    -0.206 OA
BRANCH  17  20
ATOM     20  C   UNL d   1       0.837   1.680   0.068  0.00  0.00     0.074 A 
ATOM     21  C   UNL d   1       1.923   2.557   0.067  0.00  0.00     0.025 A 
ATOM     22  C   UNL d   1       1.694   3.934   0.107  0.00  0.00     0.008 A 
ATOM     23  C   UNL d   1       0.385   4.439   0.147  0.00  0.00    -0.062 A 
ATOM     24  C   UNL d   1      -0.694   3.546   0.182  0.00  0.00     0.008 A 
ATOM     25  C   UNL d   1       0.158   5.922   0.106  0.00  0.00     0.048 C 
ATOM     26  C   UNL d   1      -0.471   2.168   0.140  0.00  0.00     0.025 A 
ENDBRANCH  17  20
ENDBRANCH  14  17
ENDBRANCH   7  11
BRANCH   3  27
ATOM     27  C   UNL d   1       2.846  -6.360   5.453  0.00  0.00     0.418 C 
ATOM     28  F   UNL d   1       3.087  -7.637   5.846  0.00  0.00    -0.166 F 
ATOM     29  F   UNL d   1       3.836  -5.606   6.008  0.00  0.00    -0.166 F 
ATOM     30  F   UNL d   1       1.702  -5.987   6.096  0.00  0.00    -0.166 F 
ENDBRANCH   3  27
BRANCH   1  31
ATOM     31  C   UNL d   1       2.806  -7.978  -0.706  0.00  0.00     0.295 C 
ATOM     32  O   UNL d   1       2.982  -9.015  -1.337  0.00  0.00    -0.259 OA
BRANCH  31  33
ATOM     33  O   UNL d   1       2.547  -6.776  -1.291  0.00  0.00    -0.322 OA
ATOM     34  C   UNL d   1       2.518  -6.811  -2.717  0.00  0.00     0.213 C 
ENDBRANCH  31  33
ENDBRANCH   1  31
TORSDOF 6
