REMARK  6 active torsions:
REMARK  status: ('A' for Active; 'I' for Inactive)
REMARK    1  A    between atoms: C_2  and  C_1 
REMARK    2  A    between atoms: C_3  and  C_1 
REMARK    3  A    between atoms: C_4  and  C_2 
REMARK    4  A    between atoms: O_10  and  C_2 
REMARK    5  A    between atoms: O_17  and  C_11 
REMARK    6  A    between atoms: O_18  and  C_12 
ROOT
ATOM      1  C   UNL d   1       0.161   0.744  -0.926  0.00  0.00     0.225 C 
ENDROOT
BRANCH   1   2
ATOM      2  C   UNL d   1       1.062  -0.188  -0.114  0.00  0.00     0.192 C 
ATOM      3  O   UNL d   1       2.281   0.013  -0.049  0.00  0.00    -0.289 OA
BRANCH   2   4
ATOM      4  C   UNL d   1       0.486  -1.380   0.568  0.00  0.00     0.013 A 
ATOM      5  C   UNL d   1       1.347  -2.451   0.843  0.00  0.00     0.018 A 
ATOM      6  C   UNL d   1       0.881  -3.593   1.503  0.00  0.00     0.037 A 
ATOM      7  C   UNL d   1      -0.450  -3.668   1.909  0.00  0.00     0.068 A 
ATOM      8  C   UNL d   1      -1.312  -2.605   1.624  0.00  0.00     0.037 A 
ATOM      9  C   UNL d   1      -0.854  -1.463   0.955  0.00  0.00     0.018 A 
BRANCH   7  10
ATOM     10  O   UNL d   1      -1.023  -4.712   2.581  0.00  0.00    -0.356 OA
ATOM     11  C   UNL d   1      -0.149  -5.743   3.027  0.00  0.00     0.210 C 
ENDBRANCH   7  10
ENDBRANCH   2   4
ENDBRANCH   1   2
BRANCH   1  12
ATOM     12  C   UNL d   1      -0.569   1.804  -0.129  0.00  0.00    -0.022 A 
ATOM     13  C   UNL d   1      -0.055   2.344   1.059  0.00  0.00     0.013 A 
ATOM     14  C   UNL d   1      -0.741   3.353   1.746  0.00  0.00     0.037 A 
ATOM     15  C   UNL d   1      -1.944   3.852   1.246  0.00  0.00     0.068 A 
ATOM     16  C   UNL d   1      -2.444   3.344   0.048  0.00  0.00     0.037 A 
ATOM     17  C   UNL d   1      -1.768   2.330  -0.633  0.00  0.00     0.013 A 
BRANCH  15  18
ATOM     18  O   UNL d   1      -2.689   4.852   1.805  0.00  0.00    -0.356 OA
ATOM     19  C   UNL d   1      -2.465   5.106   3.188  0.00  0.00     0.210 C 
ENDBRANCH  15  18
ENDBRANCH   1  12
BRANCH   1  20
ATOM     20  O   UNL d   1       0.961   1.436  -1.889  0.00  0.00    -0.383 OA
ATOM     21  H   UNL d   1       1.844   1.525  -1.479  0.00  0.00     0.211 HD
ENDBRANCH   1  20
TORSDOF 6
