REMARK  3 active torsions:
REMARK  status: ('A' for Active; 'I' for Inactive)
REMARK    1  A    between atoms: C_9  and  C_2 
REMARK    2  A    between atoms: C_10  and  C_3 
REMARK    3  A    between atoms: O_12  and  N_7 
ROOT
ATOM      1  N   UNL d   1       0.082  -0.034  -2.110  0.00  0.00     0.103 N 
ATOM      2  C   UNL d   1      -1.342  -0.020  -1.663  0.00  0.00     0.261 C 
ATOM      3  C   UNL d   1       0.846  -1.171  -1.519  0.00  0.00     0.265 C 
ATOM      4  C   UNL d   1      -0.722  -1.180   0.430  0.00  0.00     0.018 C 
ATOM      5  C   UNL d   1      -1.414   0.046  -0.131  0.00  0.00     0.095 C 
ATOM      6  C   UNL d   1       0.756  -1.310   0.038  0.00  0.00     0.067 C 
ATOM      7  N   UNL d   1      -1.466  -1.942   1.176  0.00  0.00    -0.277 N 
ATOM      8  HN  UNL d   1      -2.439  -1.723   1.388  1.00  0.00     0.193 HD
ATOM      9  C   UNL d   1       0.706   1.278  -1.921  0.00  0.00     0.311 C 
ATOM     10  C   UNL d   1       1.488  -2.565   0.523  0.00  0.00     0.018 C 
ENDROOT
BRANCH   2  11
ATOM     11  C   UNL d   1      -2.195  -1.126  -2.315  0.00  0.00    -0.025 A 
ATOM     12  C   UNL d   1      -3.284  -1.726  -1.654  0.00  0.00     0.009 A 
ATOM     13  C   UNL d   1      -4.072  -2.699  -2.275  0.00  0.00     0.001 A 
ATOM     14  C   UNL d   1      -3.799  -3.085  -3.584  0.00  0.00     0.000 A 
ATOM     15  C   UNL d   1      -2.747  -2.489  -4.269  0.00  0.00     0.001 A 
ATOM     16  C   UNL d   1      -1.958  -1.513  -3.647  0.00  0.00     0.009 A 
ENDBRANCH   2  11
BRANCH   3  17
ATOM     17  C   UNL d   1       2.292  -1.259  -2.037  0.00  0.00    -0.024 A 
ATOM     18  C   UNL d   1       3.352  -0.554  -1.433  0.00  0.00     0.009 A 
ATOM     19  C   UNL d   1       4.676  -0.778  -1.819  0.00  0.00     0.001 A 
ATOM     20  C   UNL d   1       4.963  -1.694  -2.826  0.00  0.00     0.000 A 
ATOM     21  C   UNL d   1       3.925  -2.365  -3.468  0.00  0.00     0.001 A 
ATOM     22  C   UNL d   1       2.599  -2.142  -3.085  0.00  0.00     0.009 A 
ENDBRANCH   3  17
BRANCH   7  23
ATOM     23  O   UNL d   1      -0.833  -3.073   1.660  0.00  0.00    -0.290 OA
ATOM     24  H   UNL d   1      -1.557  -3.559   2.095  0.00  0.00     0.244 HD
ENDBRANCH   7  23
TORSDOF 3
