REMARK  3 active torsions:
REMARK  status: ('A' for Active; 'I' for Inactive)
REMARK    1  A    between atoms: C_3  and  N_1 
REMARK    2  A    between atoms: C_11  and  N_4 
REMARK    3  A    between atoms: O_12  and  C_8 
ROOT
ATOM      1  N   UNL d   1       3.197   2.024  -2.844  0.00  0.00    -0.195 NA
ATOM      2  C   UNL d   1       2.501   1.173  -2.473  0.00  0.00     0.089 C 
ATOM      3  C   UNL d   1       1.583   0.094  -2.029  0.00  0.00     0.395 C 
ENDROOT
BRANCH   3   4
ATOM      4  N   UNL d   1       1.473  -0.036  -0.565  0.00  0.00     0.104 N 
ATOM      5  C   UNL d   1       0.852   1.150   0.084  0.00  0.00     0.293 C 
ATOM      6  C   UNL d   1      -0.690   1.258  -0.035  0.00  0.00     0.153 C 
ATOM      7  N   UNL d   1      -1.294   0.008   0.452  0.00  0.00    -0.375 N 
ATOM      8  C   UNL d   1      -0.827  -1.176  -0.277  0.00  0.00     0.153 C 
ATOM      9  C   UNL d   1       0.720  -1.257  -0.178  0.00  0.00     0.293 C 
BRANCH   7  10
ATOM     10  C   UNL d   1      -2.578   0.072   0.996  0.00  0.00     0.064 A 
ATOM     11  C   UNL d   1      -2.874   0.887   2.125  0.00  0.00     0.094 A 
ATOM     12  C   UNL d   1      -4.174   0.933   2.654  0.00  0.00     0.039 A 
ATOM     13  C   UNL d   1      -5.187   0.145   2.115  0.00  0.00     0.003 A 
ATOM     14  C   UNL d   1      -4.911  -0.687   1.039  0.00  0.00     0.002 A 
ATOM     15  C   UNL d   1      -3.626  -0.717   0.487  0.00  0.00     0.032 A 
BRANCH  11  16
ATOM     16  O   UNL d   1      -1.832   1.603   2.675  0.00  0.00    -0.354 OA
ATOM     17  C   UNL d   1      -1.958   1.952   4.048  0.00  0.00     0.210 C 
ENDBRANCH  11  16
ENDBRANCH   7  10
ENDBRANCH   3   4
TORSDOF 3
