REMARK  4 active torsions:
REMARK  status: ('A' for Active; 'I' for Inactive)
REMARK    1  A    between atoms: N_2  and  C_1 
REMARK    2  A    between atoms: N_3  and  C_1 
REMARK    3  A    between atoms: C_5  and  N_2 
REMARK    4  A    between atoms: C_6  and  N_3 
ROOT
ATOM      1  C   UNL d   1       0.988  -0.106  -0.029  0.00  0.00     0.168 C 
ATOM      2  S   UNL d   1       0.396  -0.187   1.525  0.00  0.00    -0.041 SA
ENDROOT
BRANCH   1   3
ATOM      3  N   UNL d   1       2.289  -0.362  -0.424  0.00  0.00    -0.359 N 
ATOM      4  H   UNL d   1       2.380  -0.542  -1.414  0.00  0.00     0.162 HD
BRANCH   3   5
ATOM      5  C   UNL d   1       3.575  -0.338   0.319  0.00  0.00     0.021 C 
ATOM      6  C   UNL d   1       3.608  -1.237   1.565  0.00  0.00     0.037 C 
ATOM      7  C   UNL d   1       4.670  -0.858  -0.638  0.00  0.00     0.037 C 
ATOM      8  C   UNL d   1       3.914   1.112   0.695  0.00  0.00     0.037 C 
ENDBRANCH   3   5
ENDBRANCH   1   3
BRANCH   1   9
ATOM      9  N   UNL d   1       0.231   0.197  -1.150  0.00  0.00    -0.363 N 
ATOM     10  H   UNL d   1       0.756   0.574  -1.923  0.00  0.00     0.162 HD
BRANCH   9  11
ATOM     11  C   UNL d   1      -1.232   0.341  -1.246  0.00  0.00     0.083 C 
ATOM     12  C   UNL d   1      -1.669   0.211  -2.716  0.00  0.00     0.025 C 
ATOM     13  C   UNL d   1      -1.345   1.454  -3.550  0.00  0.00     0.002 C 
ATOM     14  C   UNL d   1      -1.911   2.721  -2.919  0.00  0.00     0.000 C 
ATOM     15  C   UNL d   1      -1.442   2.882  -1.479  0.00  0.00     0.002 C 
ATOM     16  C   UNL d   1      -1.772   1.649  -0.642  0.00  0.00     0.025 C 
ENDBRANCH   9  11
ENDBRANCH   1   9
TORSDOF 4
