REMARK  4 active torsions:
REMARK  status: ('A' for Active; 'I' for Inactive)
REMARK    1  A    between atoms: C_8  and  C_3 
REMARK    2  A    between atoms: C_9  and  C_6 
REMARK    3  A    between atoms: C_19  and  C_16 
REMARK    4  A    between atoms: C_20  and  C_19 
ROOT
ATOM      1  N   UNL d   1       0.753   0.074   0.740  0.00  0.00    -0.317 N 
ATOM      2  HN  UNL d   1       1.366   0.124   1.553  1.00  0.00     0.169 HD
ATOM      3  C   UNL d   1      -0.038   1.069   0.193  0.00  0.00     0.154 A 
ATOM      4  N   UNL d   1      -0.725   0.674  -0.894  0.00  0.00    -0.241 N 
ATOM      5  HN  UNL d   1      -1.366   1.223  -1.467  1.00  0.00     0.196 HD
ATOM      6  C   UNL d   1       0.520  -0.950  -0.050  0.00  0.00     0.182 A 
ATOM      7  O   UNL d   1      -0.356  -0.660  -1.055  0.00  0.00    -0.217 OA
ENDROOT
BRANCH   6   8
ATOM      8  C   UNL d   1       1.050  -2.305   0.015  0.00  0.00     0.017 A 
ATOM      9  C   UNL d   1       1.913  -2.653   1.065  0.00  0.00     0.016 A 
ATOM     10  C   UNL d   1       2.450  -3.939   1.159  0.00  0.00     0.008 A 
ATOM     11  C   UNL d   1       2.137  -4.910   0.201  0.00  0.00    -0.058 A 
ATOM     12  C   UNL d   1       1.264  -4.573  -0.841  0.00  0.00     0.008 A 
ATOM     13  C   UNL d   1       0.730  -3.283  -0.936  0.00  0.00     0.016 A 
BRANCH  11  14
ATOM     14  C   UNL d   1       2.735  -6.293   0.297  0.00  0.00     0.038 C 
BRANCH  14  15
ATOM     15  C   UNL d   1       3.607  -6.683  -0.902  0.00  0.00     0.000 C 
ATOM     16  C   UNL d   1       4.828  -5.791  -1.072  0.00  0.00     0.005 C 
ENDBRANCH  14  15
ENDBRANCH  11  14
ENDBRANCH   6   8
BRANCH   3  17
ATOM     17  C   UNL d   1      -0.100   2.413   0.777  0.00  0.00     0.078 A 
ATOM     18  N   UNL d   1      -0.967   3.304   0.227  0.00  0.00    -0.363 N 
ATOM     19  C   UNL d   1      -1.026   4.535   0.780  0.00  0.00     0.088 A 
ATOM     20  HN  UNL d   1      -1.550   3.053  -0.571  1.00  0.00     0.165 HD
ATOM     21  C   UNL d   1      -0.259   4.933   1.862  0.00  0.00     0.017 A 
ATOM     22  C   UNL d   1       0.626   4.015   2.414  0.00  0.00     0.004 A 
ATOM     23  C   UNL d   1       0.708   2.736   1.866  0.00  0.00     0.033 A 
ENDBRANCH   3  17
TORSDOF 4
