REMARK  4 active torsions:
REMARK  status: ('A' for Active; 'I' for Inactive)
REMARK    1  A    between atoms: C_7  and  C_2 
REMARK    2  A    between atoms: C_9  and  C_3 
REMARK    3  A    between atoms: C_6  and  C_9 
REMARK       I    between atoms: N_10  and  C_6 
REMARK    4  A    between atoms: O_13  and  C_11 
ROOT
ATOM      1  N   UNL d   1      -0.302   0.946  -0.126  0.00  0.00    -0.248 NA
ATOM      2  C   UNL d   1      -1.039  -0.274  -0.333  0.00  0.00     0.267 C 
ATOM      3  C   UNL d   1       1.005   0.581   0.048  0.00  0.00     0.088 C 
ATOM      4  N   UNL d   1       1.205  -0.707   0.115  0.00  0.00    -0.257 N 
ATOM      5  HN  UNL d   1       2.097  -1.183   0.253  1.00  0.00     0.195 HD
ATOM      6  O   UNL d   1      -0.086  -1.321  -0.044  0.00  0.00    -0.254 OA
ATOM      7  H   UNL d   1      -0.491   1.714  -0.755  0.00  0.00     0.131 HD
ENDROOT
BRANCH   2   8
ATOM      8  C   UNL d   1      -1.560  -0.336  -1.750  0.00  0.00     0.021 A 
ATOM      9  C   UNL d   1      -0.889  -0.958  -2.812  0.00  0.00     0.075 A 
ATOM     10  C   UNL d   1      -1.382  -0.882  -4.115  0.00  0.00     0.037 A 
ATOM     11  C   UNL d   1      -2.558  -0.183  -4.384  0.00  0.00     0.003 A 
ATOM     12  C   UNL d   1      -3.252   0.426  -3.344  0.00  0.00     0.001 A 
ATOM     13  C   UNL d   1      -2.759   0.350  -2.040  0.00  0.00     0.014 A 
BRANCH   9  14
ATOM     14  O   UNL d   1       0.279  -1.653  -2.665  0.00  0.00    -0.360 OA
ATOM     15  H   UNL d   1       0.547  -1.668  -1.722  0.00  0.00     0.217 HD
ENDBRANCH   9  14
ENDBRANCH   2   8
BRANCH   3  16
ATOM     16  C   UNL d   1       2.126   1.576   0.097  0.00  0.00     0.174 C 
BRANCH  16  17
ATOM     17  C   UNL d   1       2.243   2.282   1.429  0.00  0.00     0.226 C 
ATOM     18  N   UNL d   1       3.165   1.813   2.340  0.00  0.00    -0.352 N 
ATOM     19  C   UNL d   1       4.046   0.667   2.219  0.00  0.00     0.126 C 
ATOM     20  C   UNL d   1       3.313   2.438   3.644  0.00  0.00     0.126 C 
ATOM     21  C   UNL d   1       4.170   0.175   3.650  0.00  0.00     0.021 C 
ATOM     22  C   UNL d   1       4.133   1.456   4.478  0.00  0.00     0.021 C 
ATOM     23  O   UNL d   1       1.526   3.252   1.679  0.00  0.00    -0.273 OA
ENDBRANCH  16  17
ENDBRANCH   3  16
TORSDOF 4
