REMARK  7 active torsions:
REMARK  status: ('A' for Active; 'I' for Inactive)
REMARK    1  A    between atoms: C_2  and  C_1 
REMARK       I    between atoms: N_3  and  C_2 
REMARK    2  A    between atoms: C_7  and  N_3 
REMARK    3  A    between atoms: O_20  and  C_4 
REMARK    4  A    between atoms: C_8  and  C_7 
REMARK    5  A    between atoms: C_12  and  C_7 
REMARK    6  A    between atoms: O_21  and  C_8 
REMARK    7  A    between atoms: C_9  and  C_12 
ROOT
ATOM      1  C   UNL d   1      -0.793  -2.161  -0.747  0.00  0.00     0.188 C 
ENDROOT
BRANCH   1   2
ATOM      2  N   UNL d   1      -0.266  -1.324  -1.831  0.00  0.00    -0.339 N 
ATOM      3  C   UNL d   1       1.097  -1.093  -1.984  0.00  0.00     0.326 C 
ATOM      4  O   UNL d   1       1.921  -1.605  -1.224  0.00  0.00    -0.263 OA
ATOM      5  H   UNL d   1      -0.920  -0.737  -2.345  0.00  0.00     0.163 HD
BRANCH   3   6
ATOM      6  C   UNL d   1       1.486  -0.177  -3.166  0.00  0.00     0.472 C 
ATOM      7  F   UNL d   1       0.394   0.225  -3.880  0.00  0.00    -0.162 F 
ATOM      8  F   UNL d   1       2.316  -0.794  -4.051  0.00  0.00    -0.162 F 
ATOM      9  F   UNL d   1       2.116   0.958  -2.759  0.00  0.00    -0.162 F 
ENDBRANCH   3   6
ENDBRANCH   1   2
BRANCH   1  10
ATOM     10  C   UNL d   1      -1.731  -1.323   0.123  0.00  0.00     0.281 C 
ATOM     11  O   UNL d   1      -2.407  -0.391  -0.300  0.00  0.00    -0.263 OA
BRANCH  10  12
ATOM     12  O   UNL d   1      -1.732  -1.791   1.401  0.00  0.00    -0.325 OA
ATOM     13  C   UNL d   1      -2.542  -1.074   2.338  0.00  0.00     0.213 C 
ENDBRANCH  10  12
ENDBRANCH   1  10
BRANCH   1  14
ATOM     14  C   UNL d   1      -1.567  -3.370  -1.292  0.00  0.00     0.074 C 
BRANCH  14  15
ATOM     15  C   UNL d   1      -0.732  -4.325  -2.120  0.00  0.00    -0.053 A 
ATOM     16  C   UNL d   1       0.385  -4.971  -1.567  0.00  0.00     0.029 A 
ATOM     17  C   UNL d   1       1.134  -5.878  -2.325  0.00  0.00     0.045 A 
ATOM     18 BR   UNL d   1       2.633  -6.708  -1.510  0.00  0.00    -0.048 Br
ATOM     19  C   UNL d   1       0.771  -6.161  -3.642  0.00  0.00     0.100 A 
ATOM     20  C   UNL d   1      -0.335  -5.517  -4.201  0.00  0.00     0.045 A 
ATOM     21  C   UNL d   1      -1.082  -4.605  -3.449  0.00  0.00     0.029 A 
ATOM     22 BR   UNL d   1      -0.859  -5.868  -5.990  0.00  0.00    -0.048 Br
BRANCH  19  23
ATOM     23  O   UNL d   1       1.497  -7.071  -4.364  0.00  0.00    -0.358 OA
ATOM     24  H   UNL d   1       1.081  -7.160  -5.241  0.00  0.00     0.217 HD
ENDBRANCH  19  23
ENDBRANCH  14  15
ENDBRANCH   1  14
TORSDOF 7
