REMARK  7 active torsions:
REMARK  status: ('A' for Active; 'I' for Inactive)
REMARK    1  A    between atoms: C_20  and  C_3 
REMARK    2  A    between atoms: C_19  and  C_4 
REMARK    3  A    between atoms: C_13  and  C_22 
REMARK    4  A    between atoms: O_38  and  C_13 
REMARK    5  A    between atoms: C_14  and  C_21 
REMARK    6  A    between atoms: O_37  and  C_14 
REMARK    7  A    between atoms: C_16  and  C_15 
ROOT
ATOM      1  N   UNL d   1      -0.405  -0.766   2.286  0.00  0.00    -0.340 N 
ATOM      2  HN  UNL d   1      -0.180  -0.664   3.276  1.00  0.00     0.167 HD
ATOM      3  C   UNL d   1      -1.473  -1.349   1.772  0.00  0.00     0.116 A 
ATOM      4  N   UNL d   1      -1.413  -1.311   0.398  0.00  0.00    -0.340 N 
ATOM      5  C   UNL d   1       0.339  -0.327   1.221  0.00  0.00     0.061 A 
ATOM      6  C   UNL d   1      -0.272  -0.659   0.021  0.00  0.00     0.060 A 
ATOM      7  C   UNL d   1       2.145   0.732  -0.034  0.00  0.00    -0.024 A 
ATOM      8  C   UNL d   1       1.560   0.365   1.198  0.00  0.00     0.044 A 
ATOM      9  C   UNL d   1       0.265  -0.349  -1.223  0.00  0.00     0.033 A 
ATOM     10  C   UNL d   1       1.475   0.360  -1.219  0.00  0.00     0.014 A 
ATOM     11  H   UNL d   1      -2.084  -1.727  -0.229  0.00  0.00     0.167 HD
ENDROOT
BRANCH   7  12
ATOM     12  C   UNL d   1       3.418   1.496  -0.082  0.00  0.00    -0.024 A 
ATOM     13  C   UNL d   1       3.728   2.442   0.918  0.00  0.00     0.044 A 
ATOM     14  C   UNL d   1       4.942   3.130   0.824  0.00  0.00     0.061 A 
ATOM     15  N   UNL d   1       5.539   4.062   1.629  0.00  0.00    -0.340 N 
ATOM     16  C   UNL d   1       5.841   2.953  -0.216  0.00  0.00     0.060 A 
ATOM     17  C   UNL d   1       6.767   4.384   1.095  0.00  0.00     0.116 A 
ATOM     18  H   UNL d   1       5.156   4.431   2.485  0.00  0.00     0.167 HD
ATOM     19  N   UNL d   1       6.938   3.760  -0.056  0.00  0.00    -0.340 N 
ATOM     20  HN  UNL d   1       7.726   3.857  -0.696  1.00  0.00     0.167 HD
ATOM     21  C   UNL d   1       5.544   2.028  -1.220  0.00  0.00     0.033 A 
ATOM     22  C   UNL d   1       4.345   1.302  -1.129  0.00  0.00     0.014 A 
BRANCH  17  23
ATOM     23  C   UNL d   1       7.730   5.276   1.737  0.00  0.00     0.008 A 
ATOM     24  C   UNL d   1       7.824   5.372   3.134  0.00  0.00     0.016 A 
ATOM     25  C   UNL d   1       8.804   6.174   3.730  0.00  0.00     0.019 A 
ATOM     26  C   UNL d   1       9.689   6.908   2.931  0.00  0.00     0.037 A 
ATOM     27  C   UNL d   1       9.604   6.815   1.538  0.00  0.00     0.019 A 
ATOM     28  C   UNL d   1       8.631   6.003   0.948  0.00  0.00     0.016 A 
BRANCH  26  29
ATOM     29  C   UNL d   1      10.775   7.737   3.513  0.00  0.00     0.176 C 
ATOM     30  O   UNL d   1      11.841   7.921   2.950  0.00  0.00    -0.646 OA
BRANCH  29  31
ATOM     31  O   UNL d   1      10.463   8.296   4.701  0.00  0.00    -0.773 OA
ATOM     32  H   UNL d   1       9.525   8.232   4.955  0.00  0.00     0.167 HD
ENDBRANCH  29  31
ENDBRANCH  26  29
ENDBRANCH  17  23
ENDBRANCH   7  12
BRANCH   3  33
ATOM     33  C   UNL d   1      -2.548  -2.005   2.517  0.00  0.00     0.008 A 
ATOM     34  C   UNL d   1      -3.851  -2.099   2.006  0.00  0.00     0.016 A 
ATOM     35  C   UNL d   1      -4.849  -2.779   2.715  0.00  0.00     0.019 A 
ATOM     36  C   UNL d   1      -4.554  -3.356   3.956  0.00  0.00     0.037 A 
ATOM     37  C   UNL d   1      -3.260  -3.259   4.475  0.00  0.00     0.019 A 
ATOM     38  C   UNL d   1      -2.267  -2.579   3.764  0.00  0.00     0.016 A 
BRANCH  36  39
ATOM     39  C   UNL d   1      -5.563  -4.127   4.725  0.00  0.00     0.176 C 
ATOM     40  O   UNL d   1      -5.271  -5.077   5.430  0.00  0.00    -0.646 OA
BRANCH  39  41
ATOM     41  O   UNL d   1      -6.822  -3.662   4.593  0.00  0.00    -0.773 OA
ATOM     42  H   UNL d   1      -6.898  -2.788   4.170  0.00  0.00     0.167 HD
ENDBRANCH  39  41
ENDBRANCH  36  39
ENDBRANCH   3  33
TORSDOF 7
