REMARK  3 active torsions:
REMARK  status: ('A' for Active; 'I' for Inactive)
REMARK    1  A    between atoms: C_8  and  C_1 
REMARK    2  A    between atoms: C_12  and  N_6 
REMARK    3  A    between atoms: C_13  and  C_12 
ROOT
ATOM      1  C   UNL d   1      -0.668   1.249   0.052  0.00  0.00     0.058 A 
ATOM      2  N   UNL d   1      -0.688  -1.229   0.103  0.00  0.00    -0.319 N 
ATOM      3  HN  UNL d   1      -1.155  -2.135   0.134  1.00  0.00     0.169 HD
ATOM      4  C   UNL d   1      -1.421  -0.054   0.086  0.00  0.00     0.258 A 
ATOM      5  C   UNL d   1       0.672   1.189   0.022  0.00  0.00     0.110 A 
ATOM      6  N   UNL d   1       1.359  -0.009   0.048  0.00  0.00    -0.346 N 
ATOM      7  C   UNL d   1       0.600  -1.153   0.079  0.00  0.00     0.186 A 
ATOM      8  O   UNL d   1      -2.647  -0.054   0.096  0.00  0.00    -0.267 OA
ENDROOT
BRANCH   6   9
ATOM      9  C   UNL d   1       2.824  -0.072  -0.037  0.00  0.00     0.186 C 
BRANCH   9  10
ATOM     10  C   UNL d   1       3.296  -0.117  -1.477  0.00  0.00     0.027 A 
ATOM     11  N   UNL d   1       3.531   1.071  -2.093  0.00  0.00    -0.368 N 
ATOM     12  C   UNL d   1       3.868   1.038  -3.402  0.00  0.00     0.088 A 
ATOM     13  HN  UNL d   1       3.456   1.953  -1.588  1.00  0.00     0.165 HD
ATOM     14  C   UNL d   1       3.986  -0.128  -4.138  0.00  0.00     0.017 A 
ATOM     15  C   UNL d   1       3.768  -1.337  -3.490  0.00  0.00     0.003 A 
ATOM     16  C   UNL d   1       3.421  -1.337  -2.142  0.00  0.00     0.027 A 
ENDBRANCH   9  10
ENDBRANCH   6   9
BRANCH   1  17
ATOM     17  C   UNL d   1      -1.349   2.549   0.040  0.00  0.00    -0.019 A 
ATOM     18  C   UNL d   1      -1.709   3.146  -1.174  0.00  0.00     0.012 A 
ATOM     19  C   UNL d   1      -2.299   4.411  -1.188  0.00  0.00     0.001 A 
ATOM     20  C   UNL d   1      -2.534   5.086   0.009  0.00  0.00     0.000 A 
ATOM     21  C   UNL d   1      -2.190   4.493   1.223  0.00  0.00     0.001 A 
ATOM     22  C   UNL d   1      -1.598   3.228   1.240  0.00  0.00     0.012 A 
ENDBRANCH   1  17
TORSDOF 3
