REMARK  5 active torsions:
REMARK  status: ('A' for Active; 'I' for Inactive)
REMARK    1  A    between atoms: N_6  and  C_1 
REMARK    2  A    between atoms: S_13  and  C_1 
REMARK    3  A    between atoms: C_2  and  C_8 
REMARK    4  A    between atoms: C_3  and  C_7 
REMARK    5  A    between atoms: C_9  and  N_4 
ROOT
ATOM      1  C   UNL d   1       1.147   4.146  -2.348  0.00  0.00     0.050 C 
ATOM      2  C   UNL d   1       2.962   3.901  -0.743  0.00  0.00     0.050 C 
ATOM      3  C   UNL d   1       1.088   2.339  -0.703  0.00  0.00     0.035 C 
ATOM      4  C   UNL d   1       2.393   4.550  -1.846  0.00  0.00     0.032 C 
ATOM      5  C   UNL d   1       0.513   3.028  -1.775  0.00  0.00     0.045 C 
ATOM      6  C   UNL d   1       2.250   2.864  -0.128  0.00  0.00     0.045 C 
ENDROOT
BRANCH   3   7
ATOM      7  N   UNL d   1       0.483   1.148  -0.283  0.00  0.00    -0.337 N 
ATOM      8  C   UNL d   1       1.183   0.106   0.069  0.00  0.00     0.142 C 
ATOM      9  HN  UNL d   1      -0.535   1.094  -0.251  1.00  0.00     0.168 HD
BRANCH   8  10
ATOM     10  N   UNL d   1       2.548  -0.067   0.097  0.00  0.00    -0.362 N 
ATOM     11  C   UNL d   1       3.425   0.029  -1.065  0.00  0.00     0.125 C 
ATOM     12  C   UNL d   1       4.680  -0.728  -0.642  0.00  0.00     0.021 C 
ATOM     13  C   UNL d   1       4.743  -0.479   0.856  0.00  0.00     0.021 C 
ATOM     14  C   UNL d   1       3.279  -0.529   1.275  0.00  0.00     0.125 C 
ENDBRANCH   8  10
BRANCH   8  15
ATOM     15  S   UNL d   1       0.288  -1.335   0.597  0.00  0.00    -0.098 SA
ATOM     16  C   UNL d   1      -1.415  -0.894   0.227  0.00  0.00     0.099 C 
ENDBRANCH   8  15
ENDBRANCH   3   7
BRANCH   1  17
ATOM     17  C   UNL d   1       0.507   4.857  -3.515  0.00  0.00     0.417 C 
ATOM     18  F   UNL d   1       1.316   5.796  -4.080  0.00  0.00    -0.166 F 
ATOM     19  F   UNL d   1       0.164   4.009  -4.524  0.00  0.00    -0.166 F 
ATOM     20  F   UNL d   1      -0.634   5.510  -3.166  0.00  0.00    -0.166 F 
ENDBRANCH   1  17
BRANCH   2  21
ATOM     21  C   UNL d   1       4.369   4.188  -0.283  0.00  0.00     0.417 C 
ATOM     22  F   UNL d   1       4.967   5.207  -0.959  0.00  0.00    -0.166 F 
ATOM     23  F   UNL d   1       4.448   4.503   1.036  0.00  0.00    -0.166 F 
ATOM     24  F   UNL d   1       5.183   3.105  -0.457  0.00  0.00    -0.166 F 
ENDBRANCH   2  21
TORSDOF 5
