REMARK  4 active torsions:
REMARK  status: ('A' for Active; 'I' for Inactive)
REMARK    1  A    between atoms: C_2  and  C_1 
REMARK    2  A    between atoms: C_3  and  C_6 
REMARK    3  A    between atoms: C_7  and  C_4 
REMARK    4  A    between atoms: O_17  and  C_7 
ROOT
ATOM      1  C   UNL d   1       1.457  -0.238   0.131  0.00  0.00     0.065 A 
ATOM      2  C   UNL d   1       0.601  -1.343  -0.023  0.00  0.00     0.052 A 
ATOM      3  C   UNL d   1       0.885   1.060   0.202  0.00  0.00     0.033 A 
ATOM      4  C   UNL d   1      -0.500   1.276   0.147  0.00  0.00     0.048 A 
ATOM      5  C   UNL d   1      -0.791  -1.116  -0.089  0.00  0.00     0.020 A 
ATOM      6  C   UNL d   1      -1.335   0.169  -0.003  0.00  0.00     0.017 A 
ENDROOT
BRANCH   1   7
ATOM      7  C   UNL d   1       2.954  -0.299   0.274  0.00  0.00     0.418 C 
ATOM      8  F   UNL d   1       3.481  -1.547   0.211  0.00  0.00    -0.166 F 
ATOM      9  F   UNL d   1       3.577   0.395  -0.719  0.00  0.00    -0.166 F 
ATOM     10  F   UNL d   1       3.392   0.240   1.441  0.00  0.00    -0.166 F 
ENDBRANCH   1   7
BRANCH   2  11
ATOM     11  C   UNL d   1       0.971  -2.793  -0.073  0.00  0.00     0.176 C 
ATOM     12  O   UNL d   1       0.232  -3.642   0.396  0.00  0.00    -0.646 OA
BRANCH  11  13
ATOM     13  O   UNL d   1       2.052  -3.127  -0.798  0.00  0.00    -0.773 OA
ATOM     14  H   UNL d   1       2.748  -2.459  -0.927  0.00  0.00     0.167 HD
ENDBRANCH  11  13
ENDBRANCH   2  11
BRANCH   4  15
ATOM     15  C   UNL d   1      -1.091   2.663   0.272  0.00  0.00     0.417 C 
ATOM     16  F   UNL d   1      -0.149   3.636   0.420  0.00  0.00    -0.166 F 
ATOM     17  F   UNL d   1      -1.826   3.016  -0.817  0.00  0.00    -0.166 F 
ATOM     18  F   UNL d   1      -1.920   2.779   1.344  0.00  0.00    -0.166 F 
ENDBRANCH   4  15
TORSDOF 4
