REMARK  4 active torsions:
REMARK  status: ('A' for Active; 'I' for Inactive)
REMARK    1  A    between atoms: N_2  and  C_1 
REMARK    2  A    between atoms: N_5  and  C_1 
REMARK    3  A    between atoms: C_7  and  N_2 
REMARK    4  A    between atoms: C_13  and  N_5 
ROOT
ATOM      1  N   UNL d   1       0.502   0.781  -0.781  0.00  0.00    -0.333 N 
ATOM      2  H   UNL d   1      -0.492   0.877  -0.645  0.00  0.00     0.168 HD
ENDROOT
BRANCH   1   3
ATOM      3  C   UNL d   1       1.097   0.024   0.196  0.00  0.00     0.172 C 
ATOM      4  S   UNL d   1       2.708  -0.142   0.590  0.00  0.00    -0.041 SA
BRANCH   3   5
ATOM      5  N   UNL d   1       0.226  -0.710   0.964  0.00  0.00    -0.363 N 
ATOM      6  H   UNL d   1       0.725  -1.280   1.640  0.00  0.00     0.162 HD
BRANCH   5   7
ATOM      7  C   UNL d   1      -1.123  -1.185   0.630  0.00  0.00     0.075 C 
ATOM      8  C   UNL d   1      -1.038  -2.457  -0.211  0.00  0.00     0.032 C 
ATOM      9  C   UNL d   1      -1.915  -1.428   1.910  0.00  0.00     0.032 C 
ENDBRANCH   5   7
ENDBRANCH   3   5
ENDBRANCH   1   3
BRANCH   1  10
ATOM     10  C   UNL d   1       0.987   1.488  -1.905  0.00  0.00     0.036 A 
ATOM     11  C   UNL d   1       0.002   2.045  -2.740  0.00  0.00     0.056 A 
ATOM     12  C   UNL d   1       0.353   2.699  -3.925  0.00  0.00     0.074 A 
ATOM     13 CL   UNL d   1      -0.887   3.314  -4.948  0.00  0.00    -0.081 Cl
ATOM     14  C   UNL d   1       1.690   2.819  -4.276  0.00  0.00     0.138 A 
ATOM     15  C   UNL d   1       2.679   2.299  -3.447  0.00  0.00     0.046 A 
ATOM     16  F   UNL d   1       2.052   3.427  -5.413  0.00  0.00    -0.204 F 
ATOM     17  C   UNL d   1       2.325   1.632  -2.268  0.00  0.00     0.032 A 
ENDBRANCH   1  10
TORSDOF 4
