REMARK  3 active torsions:
REMARK  status: ('A' for Active; 'I' for Inactive)
REMARK       I    between atoms: N_2  and  C_1 
REMARK    1  A    between atoms: O_3  and  C_1 
REMARK    2  A    between atoms: C_5  and  N_2 
REMARK    3  A    between atoms: C_6  and  O_3 
ROOT
ATOM      1  C   UNL d   1       1.036  -0.240  -0.063  0.00  0.00     0.365 C 
ATOM      2  N   UNL d   1       0.645   1.056  -0.258  0.00  0.00    -0.303 N 
ATOM      3  O   UNL d   1       2.091  -0.762  -0.395  0.00  0.00    -0.238 OA
ATOM      4  H   UNL d   1      -0.240   1.281   0.174  0.00  0.00     0.171 HD
ENDROOT
BRANCH   1   5
ATOM      5  O   UNL d   1       0.057  -0.888   0.629  0.00  0.00    -0.298 OA
BRANCH   5   6
ATOM      6  C   UNL d   1       0.376  -2.223   1.034  0.00  0.00     0.133 C 
ATOM      7  C   UNL d   1       0.209  -3.244  -0.087  0.00  0.00     0.032 C 
ATOM      8  C   UNL d   1      -0.046  -4.572   0.624  0.00  0.00     0.002 C 
ATOM      9  C   UNL d   1      -0.454  -4.220   2.055  0.00  0.00     0.002 C 
ATOM     10  C   UNL d   1      -0.636  -2.710   2.064  0.00  0.00     0.032 C 
ENDBRANCH   5   6
ENDBRANCH   1   5
BRANCH   2  11
ATOM     11  C   UNL d   1       1.369   2.097  -0.868  0.00  0.00     0.036 A 
ATOM     12  C   UNL d   1       2.560   1.902  -1.571  0.00  0.00     0.029 A 
ATOM     13  C   UNL d   1       3.243   2.989  -2.128  0.00  0.00     0.002 A 
ATOM     14  C   UNL d   1       2.743   4.280  -1.983  0.00  0.00     0.000 A 
ATOM     15  C   UNL d   1       1.551   4.486  -1.295  0.00  0.00     0.002 A 
ATOM     16  C   UNL d   1       0.862   3.397  -0.749  0.00  0.00     0.029 A 
ENDBRANCH   2  11
TORSDOF 3
