REMARK  6 active torsions:
REMARK  status: ('A' for Active; 'I' for Inactive)
REMARK       I    between atoms: N_6  and  C_1 
REMARK    1  A    between atoms: O_9  and  C_1 
REMARK    2  A    between atoms: C_2  and  C_8 
REMARK    3  A    between atoms: N_3  and  O_9 
REMARK    4  A    between atoms: C_8  and  C_5 
REMARK    5  A    between atoms: N_12  and  C_5 
REMARK    6  A    between atoms: C_13  and  N_6 
ROOT
ATOM      1  N   UNL d   1      -1.141  -1.230   0.062  0.00  0.00    -0.249 N 
ATOM      2  HN  UNL d   1      -0.174  -1.247   0.385  1.00  0.00     0.196 HD
ATOM      3  C   UNL d   1      -1.666  -2.043  -0.816  0.00  0.00     0.080 C 
ENDROOT
BRANCH   3   4
ATOM      4  C   UNL d   1      -0.784  -3.107  -1.475  0.00  0.00     0.111 C 
BRANCH   4   5
ATOM      5  C   UNL d   1      -0.874  -4.447  -0.768  0.00  0.00    -0.041 A 
ATOM      6  C   UNL d   1      -0.285  -4.663   0.509  0.00  0.00    -0.019 A 
ATOM      7  C   UNL d   1      -0.523  -5.891   1.175  0.00  0.00    -0.025 A 
ATOM      8  C   UNL d   1       0.535  -3.716   1.162  0.00  0.00     0.013 A 
ATOM      9  C   UNL d   1      -0.014  -6.096   2.469  0.00  0.00     0.012 A 
ATOM     10  C   UNL d   1      -1.265  -6.897   0.540  0.00  0.00     0.012 A 
ATOM     11  C   UNL d   1       0.748  -5.118   3.105  0.00  0.00     0.001 A 
ATOM     12  C   UNL d   1       1.038  -3.934   2.444  0.00  0.00     0.001 A 
ATOM     13  C   UNL d   1      -1.787  -6.703  -0.736  0.00  0.00     0.001 A 
ATOM     14  C   UNL d   1      -1.605  -5.483  -1.380  0.00  0.00     0.008 A 
ENDBRANCH   4   5
ENDBRANCH   3   4
BRANCH   3  15
ATOM     15  N   UNL d   1      -2.996  -2.021  -1.177  0.00  0.00    -0.290 NA
ATOM     16  H   UNL d   1      -3.567  -1.473  -0.540  0.00  0.00     0.125 HD
ATOM     17  H   UNL d   1      -3.411  -2.921  -1.393  0.00  0.00     0.125 HD
ENDBRANCH   3  15
BRANCH   1  18
ATOM     18  O   UNL d   1      -2.138  -0.321   0.488  0.00  0.00    -0.180 OA
BRANCH  18  19
ATOM     19  C   UNL d   1      -1.906   0.260   1.720  0.00  0.00     0.387 C 
ATOM     20  N   UNL d   1      -0.740  -0.125   2.341  0.00  0.00    -0.301 N 
ATOM     21  H   UNL d   1      -0.170  -0.733   1.763  0.00  0.00     0.171 HD
ATOM     22  O   UNL d   1      -2.738   1.050   2.161  0.00  0.00    -0.236 OA
BRANCH  20  23
ATOM     23  C   UNL d   1      -0.290   0.256   3.624  0.00  0.00     0.036 A 
ATOM     24  C   UNL d   1      -1.074   0.979   4.529  0.00  0.00     0.029 A 
ATOM     25  C   UNL d   1      -0.584   1.329   5.793  0.00  0.00     0.002 A 
ATOM     26  C   UNL d   1       0.703   0.961   6.169  0.00  0.00     0.000 A 
ATOM     27  C   UNL d   1       1.497   0.237   5.282  0.00  0.00     0.002 A 
ATOM     28  C   UNL d   1       1.001  -0.117   4.017  0.00  0.00     0.029 A 
ENDBRANCH  20  23
ENDBRANCH  18  19
ENDBRANCH   1  18
TORSDOF 6
