REMARK  4 active torsions:
REMARK  status: ('A' for Active; 'I' for Inactive)
REMARK       I    between atoms: N_2  and  C_1 
REMARK    1  A    between atoms: C_8  and  C_1 
REMARK    2  A    between atoms: C_11  and  N_2 
REMARK    3  A    between atoms: C_10  and  N_3 
REMARK    4  A    between atoms: C_9  and  C_10 
ROOT
ATOM      1  N   UNL d   1       1.086  -5.266  -0.378  0.00  0.00     0.092 N 
ATOM      2  C   UNL d   1       1.093  -2.385  -0.067  0.00  0.00     0.088 C 
ATOM      3  C   UNL d   1       1.035  -3.046  -1.450  0.00  0.00     0.055 C 
ATOM      4  C   UNL d   1       0.892  -3.294   1.154  0.00  0.00     0.055 C 
ATOM      5  C   UNL d   1       0.499  -4.741   0.868  0.00  0.00     0.275 C 
ATOM      6  C   UNL d   1       0.515  -4.480  -1.482  0.00  0.00     0.275 C 
ENDROOT
BRANCH   2   7
ATOM      7  N   UNL d   1       0.329  -1.133   0.008  0.00  0.00    -0.352 N 
ATOM      8  C   UNL d   1      -1.044  -1.050  -0.086  0.00  0.00     0.252 C 
ATOM      9  O   UNL d   1      -1.766  -2.030  -0.227  0.00  0.00    -0.268 OA
ATOM     10  H   UNL d   1       0.865  -0.278  -0.052  0.00  0.00     0.163 HD
BRANCH   8  11
ATOM     11  C   UNL d   1      -1.631   0.333  -0.046  0.00  0.00     0.032 A 
ATOM     12  C   UNL d   1      -2.876   0.548  -0.650  0.00  0.00     0.017 A 
ATOM     13  C   UNL d   1      -3.465   1.816  -0.636  0.00  0.00     0.001 A 
ATOM     14  C   UNL d   1      -2.817   2.881  -0.012  0.00  0.00     0.000 A 
ATOM     15  C   UNL d   1      -1.584   2.674   0.606  0.00  0.00     0.001 A 
ATOM     16  C   UNL d   1      -0.992   1.403   0.593  0.00  0.00     0.017 A 
ENDBRANCH   8  11
ENDBRANCH   2   7
BRANCH   1  17
ATOM     17  C   UNL d   1       0.741  -6.701  -0.493  0.00  0.00     0.311 C 
BRANCH  17  18
ATOM     18  C   UNL d   1       1.302  -7.396  -1.721  0.00  0.00    -0.029 A 
ATOM     19  C   UNL d   1       2.685  -7.447  -1.959  0.00  0.00     0.034 A 
ATOM     20  C   UNL d   1       3.192  -8.094  -3.093  0.00  0.00     0.056 A 
ATOM     21 CL   UNL d   1       4.906  -8.108  -3.317  0.00  0.00    -0.083 Cl
ATOM     22  C   UNL d   1       2.317  -8.704  -3.999  0.00  0.00     0.055 A 
ATOM     23  C   UNL d   1       0.941  -8.671  -3.763  0.00  0.00     0.026 A 
ATOM     24 CL   UNL d   1       2.866  -9.511  -5.426  0.00  0.00    -0.083 Cl
ATOM     25  C   UNL d   1       0.438  -8.024  -2.631  0.00  0.00     0.011 A 
ENDBRANCH  17  18
ENDBRANCH   1  17
TORSDOF 4
