REMARK  5 active torsions:
REMARK  status: ('A' for Active; 'I' for Inactive)
REMARK    1  A    between atoms: S_6  and  C_1 
REMARK    2  A    between atoms: C_7  and  C_3 
REMARK    3  A    between atoms: C_10  and  S_6 
REMARK    4  A    between atoms: O_16  and  C_7 
REMARK    5  A    between atoms: C_20  and  O_16 
ROOT
ATOM      1  C   UNL d   1       0.351   1.044   0.047  0.00  0.00     0.098 A 
ATOM      2  C   UNL d   1       1.031  -0.166   0.164  0.00  0.00     0.094 A 
ATOM      3  C   UNL d   1       0.282  -1.340   0.032  0.00  0.00     0.065 A 
ATOM      4  N   UNL d   1      -1.006   1.113  -0.054  0.00  0.00    -0.353 N 
ATOM      5  HN  UNL d   1      -1.476   2.017  -0.105  1.00  0.00     0.166 HD
ATOM      6  C   UNL d   1       2.416  -0.194   0.522  0.00  0.00     0.103 C 
ATOM      7  N   UNL d   1       3.522  -0.227   0.882  0.00  0.00    -0.191 NA
ATOM      8  C   UNL d   1      -1.113  -1.275  -0.079  0.00  0.00     0.043 A 
ATOM      9  C   UNL d   1      -1.721  -0.033  -0.087  0.00  0.00     0.007 A 
ATOM     10  C   UNL d   1      -3.214   0.098  -0.099  0.00  0.00     0.068 C 
ENDROOT
BRANCH   1  11
ATOM     11  S   UNL d   1       1.148   2.642   0.103  0.00  0.00    -0.053 SA
BRANCH  11  12
ATOM     12  C   UNL d   1       2.078   2.671  -1.425  0.00  0.00     0.075 A 
ATOM     13  N   UNL d   1       2.177   1.535  -2.155  0.00  0.00    -0.360 N 
ATOM     14  C   UNL d   1       2.917   1.589  -3.287  0.00  0.00     0.089 A 
ATOM     15  HN  UNL d   1       1.712   0.674  -1.865  1.00  0.00     0.166 HD
ATOM     16  C   UNL d   1       3.564   2.727  -3.736  0.00  0.00     0.017 A 
ATOM     17  C   UNL d   1       3.450   3.884  -2.977  0.00  0.00     0.004 A 
ATOM     18  C   UNL d   1       2.699   3.857  -1.803  0.00  0.00     0.037 A 
ENDBRANCH  11  12
ENDBRANCH   1  11
BRANCH   3  19
ATOM     19  C   UNL d   1       0.871  -2.700   0.030  0.00  0.00     0.295 C 
ATOM     20  O   UNL d   1       0.276  -3.682   0.440  0.00  0.00    -0.259 OA
BRANCH  19  21
ATOM     21  O   UNL d   1       2.078  -2.683  -0.576  0.00  0.00    -0.318 OA
BRANCH  21  22
ATOM     22  C   UNL d   1       2.747  -3.948  -0.695  0.00  0.00     0.174 C 
ATOM     23  C   UNL d   1       3.407  -4.338   0.615  0.00  0.00     0.034 C 
ENDBRANCH  21  22
ENDBRANCH  19  21
ENDBRANCH   3  19
TORSDOF 5
