REMARK  5 active torsions:
REMARK  status: ('A' for Active; 'I' for Inactive)
REMARK    1  A    between atoms: C_9  and  N_1 
REMARK    2  A    between atoms: C_7  and  C_2 
REMARK    3  A    between atoms: C_8  and  C_4 
REMARK    4  A    between atoms: O_17  and  C_7 
REMARK    5  A    between atoms: C_16  and  C_9 
ROOT
ATOM      1  N   UNL d   1      -2.110  -0.238   0.048  0.00  0.00    -0.333 N 
ATOM      2  C   UNL d   1      -0.414  -2.036   0.275  0.00  0.00     0.145 C 
ATOM      3  C   UNL d   1      -1.179   0.761   0.304  0.00  0.00     0.255 C 
ATOM      4  C   UNL d   1      -1.698  -1.559  -0.442  0.00  0.00     0.146 C 
ATOM      5  C   UNL d   1       0.665  -0.968   0.244  0.00  0.00    -0.026 A 
ATOM      6  C   UNL d   1       0.265   0.383   0.240  0.00  0.00     0.039 A 
ATOM      7  O   UNL d   1      -1.482   1.916   0.585  0.00  0.00    -0.267 OA
ATOM      8  C   UNL d   1       2.037  -1.263   0.258  0.00  0.00     0.009 A 
ATOM      9  C   UNL d   1       1.218   1.404   0.143  0.00  0.00     0.017 A 
ATOM     10  C   UNL d   1       2.981  -0.240   0.145  0.00  0.00     0.001 A 
ATOM     11  C   UNL d   1       2.573   1.089   0.070  0.00  0.00     0.001 A 
ENDROOT
BRANCH   1  12
ATOM     12  C   UNL d   1      -3.536   0.082   0.094  0.00  0.00     0.165 C 
BRANCH  12  13
ATOM     13  C   UNL d   1      -4.207  -0.257   1.413  0.00  0.00    -0.040 A 
ATOM     14  C   UNL d   1      -3.760   0.306   2.619  0.00  0.00     0.012 A 
ATOM     15  C   UNL d   1      -4.461   0.093   3.812  0.00  0.00     0.043 A 
ATOM     16  C   UNL d   1      -5.615  -0.680   3.800  0.00  0.00     0.116 A 
ATOM     17  C   UNL d   1      -6.072  -1.256   2.623  0.00  0.00     0.043 A 
ATOM     18  F   UNL d   1      -6.305  -0.855   4.934  0.00  0.00    -0.206 F 
ATOM     19  C   UNL d   1      -5.370  -1.048   1.431  0.00  0.00     0.012 A 
ENDBRANCH  12  13
ENDBRANCH   1  12
BRANCH   4  20
ATOM     20  C   UNL d   1      -1.549  -1.503  -1.967  0.00  0.00     0.006 A 
ATOM     21  S   UNL d   1      -2.566  -2.498  -2.940  0.00  0.00    -0.104 SA
ATOM     22  C   UNL d   1      -1.760  -2.048  -4.377  0.00  0.00     0.050 A 
ATOM     23  C   UNL d   1      -0.759  -1.136  -4.144  0.00  0.00     0.008 A 
ATOM     24  C   UNL d   1      -0.665  -0.791  -2.766  0.00  0.00     0.017 A 
ENDBRANCH   4  20
BRANCH   2  25
ATOM     25  C   UNL d   1      -0.056  -3.417  -0.233  0.00  0.00     0.150 C 
ATOM     26  O   UNL d   1      -0.506  -4.438   0.281  0.00  0.00    -0.649 OA
BRANCH  25  27
ATOM     27  O   UNL d   1       0.747  -3.486  -1.316  0.00  0.00    -0.776 OA
ATOM     28  H   UNL d   1       0.984  -2.627  -1.719  0.00  0.00     0.167 HD
ENDBRANCH  25  27
ENDBRANCH   2  25
TORSDOF 5
