REMARK  7 active torsions:
REMARK  status: ('A' for Active; 'I' for Inactive)
REMARK       I    between atoms: N_2  and  C_1 
REMARK    1  A    between atoms: C_3  and  C_1 
REMARK    2  A    between atoms: C_6  and  N_2 
REMARK    3  A    between atoms: C_7  and  N_2 
REMARK    4  A    between atoms: C_5  and  C_4 
REMARK    5  A    between atoms: O_16  and  C_5 
REMARK    6  A    between atoms: C_14  and  C_6 
REMARK    7  A    between atoms: C_15  and  C_7 
ROOT
ATOM      1  C   UNL d   1       0.925  -0.199   0.063  0.00  0.00     0.255 C 
ATOM      2  N   UNL d   1       0.190  -1.038  -0.778  0.00  0.00    -0.337 N 
ATOM      3  O   UNL d   1       0.402   0.781   0.599  0.00  0.00    -0.267 OA
ENDROOT
BRANCH   2   4
ATOM      4  C   UNL d   1      -1.278  -0.900  -0.800  0.00  0.00     0.183 C 
BRANCH   4   5
ATOM      5  C   UNL d   1      -1.800  -0.174  -2.029  0.00  0.00     0.027 A 
ATOM      6  N   UNL d   1      -2.486  -0.910  -2.944  0.00  0.00    -0.368 N 
ATOM      7  C   UNL d   1      -2.954  -0.270  -4.040  0.00  0.00     0.088 A 
ATOM      8  HN  UNL d   1      -2.642  -1.909  -2.809  1.00  0.00     0.165 HD
ATOM      9  C   UNL d   1      -2.740   1.073  -4.297  0.00  0.00     0.017 A 
ATOM     10  C   UNL d   1      -2.021   1.810  -3.365  0.00  0.00     0.003 A 
ATOM     11  C   UNL d   1      -1.554   1.186  -2.210  0.00  0.00     0.027 A 
ENDBRANCH   4   5
ENDBRANCH   2   4
BRANCH   2  12
ATOM     12  C   UNL d   1       0.750  -1.973  -1.765  0.00  0.00     0.183 C 
BRANCH  12  13
ATOM     13  C   UNL d   1       0.550  -3.451  -1.458  0.00  0.00     0.027 A 
ATOM     14  N   UNL d   1       0.350  -3.846  -0.172  0.00  0.00    -0.368 N 
ATOM     15  C   UNL d   1       0.286  -5.175   0.076  0.00  0.00     0.088 A 
ATOM     16  HN  UNL d   1       0.252  -3.164   0.580  1.00  0.00     0.165 HD
ATOM     17  C   UNL d   1       0.414  -6.146  -0.901  0.00  0.00     0.017 A 
ATOM     18  C   UNL d   1       0.613  -5.731  -2.211  0.00  0.00     0.003 A 
ATOM     19  C   UNL d   1       0.687  -4.371  -2.496  0.00  0.00     0.027 A 
ENDBRANCH  12  13
ENDBRANCH   2  12
BRANCH   1  20
ATOM     20  C   UNL d   1       2.388  -0.380   0.292  0.00  0.00     0.049 A 
ATOM     21  C   UNL d   1       3.264   0.706   0.491  0.00  0.00     0.053 A 
ATOM     22  C   UNL d   1       4.625   0.454   0.775  0.00  0.00     0.019 A 
ATOM     23  C   UNL d   1       5.127  -0.845   0.826  0.00  0.00     0.001 A 
ATOM     24  C   UNL d   1       4.266  -1.915   0.647  0.00  0.00     0.001 A 
ATOM     25  C   UNL d   1       2.906  -1.680   0.433  0.00  0.00     0.018 A 
BRANCH  21  26
ATOM     26  C   UNL d   1       2.912   2.155   0.443  0.00  0.00     0.177 C 
ATOM     27  O   UNL d   1       3.463   2.972   1.167  0.00  0.00    -0.646 OA
BRANCH  26  28
ATOM     28  O   UNL d   1       2.142   2.527  -0.597  0.00  0.00    -0.773 OA
ATOM     29  H   UNL d   1       1.557   1.827  -0.932  0.00  0.00     0.167 HD
ENDBRANCH  26  28
ENDBRANCH  21  26
ENDBRANCH   1  20
TORSDOF 7
