REMARK  5 active torsions:
REMARK  status: ('A' for Active; 'I' for Inactive)
REMARK       I    between atoms: N_2  and  C_1 
REMARK    1  A    between atoms: C_4  and  C_1 
REMARK    2  A    between atoms: C_12  and  N_2 
REMARK    3  A    between atoms: C_13  and  N_3 
REMARK    4  A    between atoms: C_5  and  C_6 
REMARK    5  A    between atoms: C_18  and  C_13 
ROOT
ATOM      1  C   UNL d   1      -0.978  -0.765   1.014  0.00  0.00     0.252 C 
ATOM      2  N   UNL d   1       0.398  -0.896   0.990  0.00  0.00    -0.352 N 
ATOM      3  O   UNL d   1      -1.725  -1.407   1.736  0.00  0.00    -0.268 OA
ATOM      4  H   UNL d   1       0.881  -0.474   0.209  0.00  0.00     0.163 HD
ENDROOT
BRANCH   2   5
ATOM      5  C   UNL d   1       1.149  -1.866   1.784  0.00  0.00     0.088 C 
ATOM      6  C   UNL d   1       2.657  -1.647   1.611  0.00  0.00     0.055 C 
ATOM      7  C   UNL d   1       3.118  -2.001   0.192  0.00  0.00     0.275 C 
ATOM      8  N   UNL d   1       2.734  -3.358  -0.224  0.00  0.00     0.092 N 
ATOM      9  C   UNL d   1       1.300  -3.631  -0.011  0.00  0.00     0.275 C 
ATOM     10  C   UNL d   1       0.833  -3.310   1.407  0.00  0.00     0.055 C 
BRANCH   8  11
ATOM     11  C   UNL d   1       3.102  -3.549  -1.647  0.00  0.00     0.311 C 
BRANCH  11  12
ATOM     12  C   UNL d   1       2.812  -4.934  -2.182  0.00  0.00    -0.030 A 
ATOM     13  C   UNL d   1       1.875  -5.118  -3.211  0.00  0.00     0.009 A 
ATOM     14  C   UNL d   1       1.567  -6.401  -3.666  0.00  0.00     0.001 A 
ATOM     15  C   UNL d   1       2.195  -7.510  -3.102  0.00  0.00     0.000 A 
ATOM     16  C   UNL d   1       3.139  -7.337  -2.091  0.00  0.00     0.001 A 
ATOM     17  C   UNL d   1       3.449  -6.056  -1.634  0.00  0.00     0.009 A 
ENDBRANCH  11  12
ENDBRANCH   8  11
ENDBRANCH   2   5
BRANCH   1  18
ATOM     18  C   UNL d   1      -1.517   0.195   0.007  0.00  0.00     0.032 A 
ATOM     19  C   UNL d   1      -2.745  -0.043  -0.607  0.00  0.00     0.017 A 
ATOM     20  C   UNL d   1      -3.180   0.786  -1.656  0.00  0.00     0.009 A 
ATOM     21  C   UNL d   1      -2.388   1.858  -2.116  0.00  0.00    -0.051 A 
ATOM     22  C   UNL d   1      -1.199   2.124  -1.421  0.00  0.00     0.009 A 
ATOM     23  C   UNL d   1      -0.770   1.312  -0.371  0.00  0.00     0.017 A 
BRANCH  21  24
ATOM     24  C   UNL d   1      -2.791   2.670  -3.362  0.00  0.00    -0.024 C 
ATOM     25  C   UNL d   1      -1.728   3.719  -3.771  0.00  0.00     0.019 C 
ATOM     26  C   UNL d   1      -2.963   1.713  -4.562  0.00  0.00     0.019 C 
ATOM     27  C   UNL d   1      -4.112   3.422  -3.119  0.00  0.00     0.019 C 
ENDBRANCH  21  24
ENDBRANCH   1  18
TORSDOF 5
