REMARK  5 active torsions:
REMARK  status: ('A' for Active; 'I' for Inactive)
REMARK    1  A    between atoms: C_2  and  C_1 
REMARK    2  A    between atoms: O_7  and  C_1 
REMARK    3  A    between atoms: N_3  and  O_7 
REMARK    4  A    between atoms: C_11  and  C_5 
REMARK    5  A    between atoms: C_9  and  C_8 
ROOT
ATOM      1  O   UNL d   1       2.413  -0.019  -0.040  0.00  0.00    -0.196 OA
ENDROOT
BRANCH   1   2
ATOM      2  N   UNL d   1       3.004  -0.223   1.218  0.00  0.00    -0.268 N 
ATOM      3  C   UNL d   1       4.293  -0.265   1.106  0.00  0.00     0.126 C 
ATOM      4  HN  UNL d   1       2.491  -0.323   2.094  1.00  0.00     0.194 HD
BRANCH   3   5
ATOM      5  C   UNL d   1       5.128  -0.485   2.303  0.00  0.00    -0.019 A 
ATOM      6  C   UNL d   1       4.523  -0.619   3.560  0.00  0.00     0.014 A 
ATOM      7  C   UNL d   1       5.302  -0.841   4.694  0.00  0.00     0.024 A 
ATOM      8  C   UNL d   1       6.687  -0.929   4.570  0.00  0.00     0.034 A 
ATOM      9  C   UNL d   1       7.297  -0.793   3.321  0.00  0.00     0.024 A 
ATOM     10 CL   UNL d   1       7.648  -1.211   5.969  0.00  0.00    -0.084 Cl
ATOM     11  C   UNL d   1       6.518  -0.569   2.181  0.00  0.00     0.014 A 
ENDBRANCH   3   5
ENDBRANCH   1   2
BRANCH   1  12
ATOM     12  C   UNL d   1       1.037   0.012  -0.004  0.00  0.00     0.304 C 
ATOM     13  O   UNL d   1       0.384   0.252  -1.017  0.00  0.00    -0.258 OA
BRANCH  12  14
ATOM     14  C   UNL d   1       0.378  -0.254   1.302  0.00  0.00     0.085 C 
ATOM     15  C   UNL d   1      -0.960  -0.192   1.417  0.00  0.00     0.017 C 
BRANCH  15  16
ATOM     16  C   UNL d   1      -1.707  -0.390   2.671  0.00  0.00    -0.036 A 
ATOM     17  C   UNL d   1      -1.175  -0.070   3.929  0.00  0.00     0.011 A 
ATOM     18  C   UNL d   1      -1.950  -0.193   5.086  0.00  0.00     0.001 A 
ATOM     19  C   UNL d   1      -3.270  -0.630   5.000  0.00  0.00     0.000 A 
ATOM     20  C   UNL d   1      -3.812  -0.952   3.759  0.00  0.00     0.001 A 
ATOM     21  C   UNL d   1      -3.036  -0.831   2.602  0.00  0.00     0.011 A 
ENDBRANCH  15  16
ENDBRANCH  12  14
ENDBRANCH   1  12
TORSDOF 5
