REMARK  2 active torsions:
REMARK  status: ('A' for Active; 'I' for Inactive)
REMARK    1  A    between atoms: C_3  and  C_1 
REMARK       I    between atoms: N_6  and  C_3 
REMARK    2  A    between atoms: C_11  and  N_6 
ROOT
ATOM      1  C   UNL d   1      -2.721  -2.442  -0.329  0.00  0.00     0.262 C 
ATOM      2  N   UNL d   1      -4.003  -2.137   0.082  0.00  0.00    -0.323 N 
ATOM      3  O   UNL d   1      -2.356  -3.546  -0.729  0.00  0.00    -0.267 OA
ATOM      4  H   UNL d   1      -4.215  -1.152   0.246  0.00  0.00     0.169 HD
ENDROOT
BRANCH   1   5
ATOM      5  C   UNL d   1      -1.731  -1.319  -0.243  0.00  0.00     0.108 A 
ATOM      6  C   UNL d   1      -2.109   0.083   0.029  0.00  0.00     0.304 A 
ATOM      7  O   UNL d   1      -1.085   1.024   0.109  0.00  0.00    -0.274 OA
ATOM      8  O   UNL d   1      -3.284   0.409   0.184  0.00  0.00    -0.259 OA
ATOM      9  C   UNL d   1       0.266   0.647  -0.002  0.00  0.00     0.089 A 
ATOM     10  C   UNL d   1       0.614  -0.678  -0.241  0.00  0.00    -0.001 A 
ATOM     11  C   UNL d   1       1.234   1.637   0.154  0.00  0.00     0.038 A 
ATOM     12  C   UNL d   1      -0.440  -1.663  -0.381  0.00  0.00     0.037 A 
ATOM     13  C   UNL d   1       1.964  -1.024  -0.316  0.00  0.00     0.014 A 
ATOM     14  C   UNL d   1       2.946  -0.043  -0.153  0.00  0.00     0.001 A 
ATOM     15  C   UNL d   1       2.580   1.286   0.079  0.00  0.00     0.003 A 
ENDBRANCH   1   5
BRANCH   2  16
ATOM     16  C   UNL d   1      -5.053  -3.050   0.323  0.00  0.00     0.036 A 
ATOM     17  C   UNL d   1      -4.891  -4.441   0.309  0.00  0.00     0.056 A 
ATOM     18  C   UNL d   1      -5.965  -5.281   0.611  0.00  0.00     0.074 A 
ATOM     19 CL   UNL d   1      -5.730  -6.988   0.615  0.00  0.00    -0.081 Cl
ATOM     20  C   UNL d   1      -7.207  -4.737   0.921  0.00  0.00     0.138 A 
ATOM     21  C   UNL d   1      -7.386  -3.358   0.935  0.00  0.00     0.046 A 
ATOM     22  F   UNL d   1      -8.248  -5.527   1.219  0.00  0.00    -0.204 F 
ATOM     23  C   UNL d   1      -6.310  -2.516   0.642  0.00  0.00     0.032 A 
ENDBRANCH   2  16
TORSDOF 2
