REMARK  4 active torsions:
REMARK  status: ('A' for Active; 'I' for Inactive)
REMARK    1  A    between atoms: O_15  and  C_3 
REMARK    2  A    between atoms: C_8  and  C_4 
REMARK    3  A    between atoms: O_16  and  C_6 
REMARK    4  A    between atoms: O_17  and  C_7 
ROOT
ATOM      1  C   UNL d   1      -6.250   3.232  -0.879  0.00  0.00     0.135 A 
ATOM      2  C   UNL d   1      -6.535   1.981  -0.278  0.00  0.00     0.105 A 
ATOM      3  C   UNL d   1      -4.951   3.456  -1.389  0.00  0.00     0.105 A 
ATOM      4  C   UNL d   1      -4.238   1.254  -0.640  0.00  0.00    -0.030 A 
ATOM      5  C   UNL d   1      -5.521   1.011  -0.171  0.00  0.00     0.051 A 
ATOM      6  C   UNL d   1      -3.961   2.467  -1.249  0.00  0.00     0.051 A 
ENDROOT
BRANCH   4   7
ATOM      7  C   UNL d   1      -3.238   0.192  -0.546  0.00  0.00     0.022 C 
ATOM      8  C   UNL d   1      -3.080  -0.758  -1.478  0.00  0.00    -0.006 C 
ATOM      9  C   UNL d   1      -2.146  -1.884  -1.161  0.00  0.00     0.189 C 
ATOM     10  C   UNL d   1      -3.785  -0.857  -2.801  0.00  0.00     0.047 C 
ATOM     11  C   UNL d   1      -2.386  -3.167  -1.879  0.00  0.00     0.021 A 
ATOM     12  O   UNL d   1      -1.247  -1.776  -0.334  0.00  0.00    -0.287 OA
ATOM     13  C   UNL d   1      -1.494  -4.229  -1.684  0.00  0.00     0.016 A 
ATOM     14  C   UNL d   1      -3.505  -3.332  -2.717  0.00  0.00    -0.044 A 
ATOM     15  C   UNL d   1      -1.714  -5.452  -2.317  0.00  0.00     0.001 A 
ATOM     16  C   UNL d   1      -2.830  -5.624  -3.134  0.00  0.00     0.001 A 
ATOM     17  C   UNL d   1      -3.727  -4.573  -3.329  0.00  0.00     0.008 A 
ATOM     18  C   UNL d   1      -4.485  -2.205  -2.923  0.00  0.00     0.044 C 
ENDBRANCH   4   7
BRANCH   2  19
ATOM     19  O   UNL d   1      -7.816   1.664   0.106  0.00  0.00    -0.353 OA
ATOM     20  C   UNL d   1      -7.916   0.808   1.249  0.00  0.00     0.210 C 
ENDBRANCH   2  19
BRANCH   3  21
ATOM     21  O   UNL d   1      -4.451   4.519  -2.098  0.00  0.00    -0.353 OA
ATOM     22  C   UNL d   1      -5.100   5.774  -2.153  0.00  0.00     0.210 C 
ENDBRANCH   3  21
BRANCH   1  23
ATOM     23  O   UNL d   1      -7.156   4.242  -1.067  0.00  0.00    -0.351 OA
ATOM     24  C   UNL d   1      -8.371   4.308  -0.334  0.00  0.00     0.210 C 
ENDBRANCH   1  23
TORSDOF 4
