REMARK  2 active torsions:
REMARK  status: ('A' for Active; 'I' for Inactive)
REMARK    1  A    between atoms: N_5  and  N_13 
REMARK    2  A    between atoms: N_13  and  C_12 
ROOT
ATOM      1  C   UNL d   1       1.291  -0.702   0.028  0.00  0.00     0.096 A 
ATOM      2  C   UNL d   1       1.261   0.704  -0.046  0.00  0.00     0.078 A 
ATOM      3  C   UNL d   1       2.544  -1.395   0.132  0.00  0.00     0.103 C 
ATOM      4  N   UNL d   1       3.527  -2.005   0.210  0.00  0.00    -0.191 NA
ATOM      5  C   UNL d   1       0.088  -1.448   0.057  0.00  0.00     0.070 A 
ATOM      6  C   UNL d   1       0.029   1.372  -0.077  0.00  0.00     0.057 A 
ATOM      7  C   UNL d   1      -1.127  -0.743   0.061  0.00  0.00     0.034 A 
ATOM      8  C   UNL d   1      -1.161   0.650  -0.015  0.00  0.00     0.028 A 
ATOM      9 CL   UNL d   1       2.746   1.607  -0.096  0.00  0.00    -0.081 Cl
ATOM     10 CL   UNL d   1      -0.099   3.094  -0.176  0.00  0.00    -0.083 Cl
ENDROOT
BRANCH   5  11
ATOM     11  N   UNL d   1       0.090  -2.857   0.174  0.00  0.00    -0.298 N 
ATOM     12  H   UNL d   1       0.874  -3.359  -0.257  0.00  0.00     0.187 HD
BRANCH  11  13
ATOM     13  N   UNL d   1      -1.008  -3.466   0.706  0.00  0.00    -0.281 N 
ATOM     14  C   UNL d   1      -1.097  -4.761   0.761  0.00  0.00     0.209 C 
ATOM     15  C   UNL d   1      -0.088  -5.608   0.205  0.00  0.00     0.130 C 
ATOM     16  C   UNL d   1      -2.287  -5.250   1.395  0.00  0.00     0.130 C 
ATOM     17  N   UNL d   1       0.737  -6.276  -0.258  0.00  0.00    -0.189 NA
ATOM     18  N   UNL d   1      -3.246  -5.670   1.907  0.00  0.00    -0.189 NA
ATOM     19  HN  UNL d   1      -1.773  -2.895   1.067  1.00  0.00     0.188 HD
ENDBRANCH  11  13
ENDBRANCH   5  11
TORSDOF 2
