REMARK  6 active torsions:
REMARK  status: ('A' for Active; 'I' for Inactive)
REMARK    1  A    between atoms: N_2  and  C_1 
REMARK    2  A    between atoms: N_3  and  C_1 
REMARK    3  A    between atoms: C_4  and  N_2 
REMARK    4  A    between atoms: C_10  and  N_5 
REMARK    5  A    between atoms: O_22  and  C_8 
REMARK    6  A    between atoms: C_15  and  C_10 
ROOT
ATOM      1  N   UNL d   1       0.336  -0.923  -0.473  0.00  0.00    -0.356 N 
ATOM      2  N   UNL d   1      -2.214  -2.467  -1.403  0.00  0.00     0.094 N 
ATOM      3  C   UNL d   1      -0.698  -0.382  -1.357  0.00  0.00     0.155 C 
ATOM      4  C   UNL d   1      -2.076  -1.026  -1.155  0.00  0.00     0.292 C 
ATOM      5  C   UNL d   1      -0.093  -3.399  -0.226  0.00  0.00     0.050 C 
ATOM      6  C   UNL d   1       0.793  -2.278  -0.757  0.00  0.00     0.127 C 
ATOM      7  C   UNL d   1      -1.617  -3.261  -0.328  0.00  0.00     0.274 C 
ENDROOT
BRANCH   1   8
ATOM      8  C   UNL d   1       1.250  -0.077   0.151  0.00  0.00     0.174 C 
ATOM      9  S   UNL d   1       1.409  -0.136   1.822  0.00  0.00    -0.041 SA
BRANCH   8  10
ATOM     10  N   UNL d   1       1.937   0.737  -0.739  0.00  0.00    -0.331 N 
ATOM     11  H   UNL d   1       1.441   0.955  -1.583  0.00  0.00     0.168 HD
BRANCH  10  12
ATOM     12  C   UNL d   1       3.224   1.320  -0.583  0.00  0.00     0.069 A 
ATOM     13  C   UNL d   1       4.182   0.611   0.168  0.00  0.00     0.056 A 
ATOM     14  C   UNL d   1       5.474   1.096   0.354  0.00  0.00     0.036 A 
ATOM     15 CL   UNL d   1       6.606   0.189   1.279  0.00  0.00    -0.084 Cl
ATOM     16  C   UNL d   1       5.853   2.296  -0.220  0.00  0.00     0.026 A 
ATOM     17  C   UNL d   1       4.936   2.985  -1.010  0.00  0.00     0.041 A 
ATOM     18  C   UNL d   1       3.626   2.506  -1.227  0.00  0.00     0.095 A 
BRANCH  18  19
ATOM     19  O   UNL d   1       2.949   3.367  -2.044  0.00  0.00    -0.354 OA
ATOM     20  C   UNL d   1       1.616   3.142  -2.444  0.00  0.00     0.210 C 
ENDBRANCH  18  19
ENDBRANCH  10  12
ENDBRANCH   8  10
ENDBRANCH   1   8
BRANCH   2  21
ATOM     21  C   UNL d   1      -1.873  -2.942  -2.746  0.00  0.00     0.311 C 
BRANCH  21  22
ATOM     22  C   UNL d   1      -2.552  -2.187  -3.872  0.00  0.00    -0.030 A 
ATOM     23  C   UNL d   1      -1.784  -1.516  -4.839  0.00  0.00     0.012 A 
ATOM     24  C   UNL d   1      -2.405  -0.818  -5.876  0.00  0.00     0.043 A 
ATOM     25  C   UNL d   1      -3.792  -0.794  -5.951  0.00  0.00     0.116 A 
ATOM     26  C   UNL d   1      -4.571  -1.454  -5.008  0.00  0.00     0.043 A 
ATOM     27  F   UNL d   1      -4.385  -0.123  -6.947  0.00  0.00    -0.206 F 
ATOM     28  C   UNL d   1      -3.953  -2.152  -3.970  0.00  0.00     0.012 A 
ENDBRANCH  21  22
ENDBRANCH   2  21
TORSDOF 6
