REMARK  2 active torsions:
REMARK  status: ('A' for Active; 'I' for Inactive)
REMARK    1  A    between atoms: O_8  and  C_3 
REMARK    2  A    between atoms: C_7  and  O_8 
ROOT
ATOM      1  C   UNL d   1      -1.214  -0.685   0.740  0.00  0.00     0.025 A 
ATOM      2  C   UNL d   1      -1.208   0.489   1.526  0.00  0.00     0.046 A 
ATOM      3  C   UNL d   1      -2.485  -1.275   0.505  0.00  0.00     0.089 A 
ATOM      4  C   UNL d   1       0.004   1.044   1.912  0.00  0.00     0.054 A 
ATOM      5  C   UNL d   1       0.033  -1.177   0.269  0.00  0.00     0.018 A 
ATOM      6  N   UNL d   1      -2.328   1.102   1.938  0.00  0.00    -0.365 N 
ATOM      7  HN  UNL d   1      -2.280   1.954   2.497  1.00  0.00     0.165 HD
ATOM      8  C   UNL d   1       1.217   0.481   1.528  0.00  0.00     0.036 A 
ATOM      9  C   UNL d   1      -3.647  -0.616   0.905  0.00  0.00     0.055 A 
ATOM     10  C   UNL d   1       1.240  -0.621   0.689  0.00  0.00     0.025 A 
ATOM     11  C   UNL d   1      -3.517   0.566   1.600  0.00  0.00     0.091 A 
ATOM     12 CL   UNL d   1       2.696   1.153   2.092  0.00  0.00    -0.084 Cl
ENDROOT
BRANCH   3  13
ATOM     13  O   UNL d   1      -2.737  -2.461  -0.157  0.00  0.00    -0.310 OA
BRANCH  13  14
ATOM     14  C   UNL d   1      -1.954  -3.573   0.055  0.00  0.00     0.077 C 
ATOM     15  C   UNL d   1      -1.214  -3.832   1.207  0.00  0.00     0.045 C 
ATOM     16  C   UNL d   1      -0.264  -4.867   1.220  0.00  0.00    -0.037 C 
ATOM     17  C   UNL d   1       0.686  -4.960   2.385  0.00  0.00     0.050 C 
ATOM     18  C   UNL d   1      -0.172  -5.734   0.110  0.00  0.00     0.046 C 
ATOM     19  C   UNL d   1      -1.013  -5.559  -1.003  0.00  0.00    -0.037 C 
ATOM     20 CL   UNL d   1       1.015  -7.000   0.123  0.00  0.00    -0.083 Cl
ATOM     21  C   UNL d   1      -1.893  -4.464  -1.016  0.00  0.00     0.045 C 
ATOM     22  C   UNL d   1      -1.016  -6.453  -2.214  0.00  0.00     0.050 C 
ENDBRANCH  13  14
ENDBRANCH   3  13
TORSDOF 2
