REMARK  1 active torsions:
REMARK  status: ('A' for Active; 'I' for Inactive)
REMARK    1  A    between atoms: C_6  and  C_1 
ROOT
ATOM      1  C   UNL d   1       1.893  -1.567  -0.212  0.00  0.00     0.223 C 
ATOM      2  N   UNL d   1       2.198  -0.218   0.165  0.00  0.00    -0.331 N 
ATOM      3  C   UNL d   1       1.319   0.815  -0.003  0.00  0.00     0.255 C 
ATOM      4  N   UNL d   1       0.503  -1.887   0.023  0.00  0.00    -0.364 N 
ATOM      5  C   UNL d   1      -0.112   0.463  -0.051  0.00  0.00     0.058 A 
ATOM      6  C   UNL d   1      -0.456  -0.888   0.049  0.00  0.00     0.045 A 
ATOM      7  O   UNL d   1       1.708   1.975  -0.059  0.00  0.00    -0.268 OA
ATOM      8  C   UNL d   1      -1.087   1.465  -0.107  0.00  0.00     0.019 A 
ATOM      9  C   UNL d   1      -1.814  -1.222   0.066  0.00  0.00     0.030 A 
ATOM     10  C   UNL d   1      -2.435   1.114  -0.079  0.00  0.00     0.001 A 
ATOM     11  C   UNL d   1      -2.798  -0.229   0.009  0.00  0.00     0.002 A 
ATOM     12  H   UNL d   1       3.163   0.075   0.116  0.00  0.00     0.165 HD
ATOM     13  H   UNL d   1       0.289  -2.748   0.507  0.00  0.00     0.162 HD
ENDROOT
BRANCH   1  14
ATOM     14  C   UNL d   1       2.796  -2.556   0.481  0.00  0.00     0.044 A 
ATOM     15  C   UNL d   1       3.610  -3.384  -0.304  0.00  0.00     0.128 A 
ATOM     16  F   UNL d   1       3.585  -3.274  -1.640  0.00  0.00    -0.205 F 
ATOM     17  C   UNL d   1       4.462  -4.335   0.256  0.00  0.00     0.043 A 
ATOM     18  C   UNL d   1       4.520  -4.480   1.637  0.00  0.00     0.005 A 
ATOM     19  C   UNL d   1       3.728  -3.669   2.445  0.00  0.00     0.024 A 
ATOM     20  C   UNL d   1       2.872  -2.714   1.876  0.00  0.00     0.047 A 
ATOM     21 CL   UNL d   1       1.925  -1.775   2.975  0.00  0.00    -0.084 Cl
ENDBRANCH   1  14
TORSDOF 1
