REMARK  5 active torsions:
REMARK  status: ('A' for Active; 'I' for Inactive)
REMARK    1  A    between atoms: C_3  and  C_1 
REMARK    2  A    between atoms: N_15  and  C_5 
REMARK    3  A    between atoms: C_12  and  O_17 
REMARK    4  A    between atoms: O_17  and  C_13 
REMARK    5  A    between atoms: C_14  and  N_15 
ROOT
ATOM      1  C   UNL d   1       2.539  -6.831  -1.224  0.00  0.00     0.139 C 
ATOM      2  C   UNL d   1       2.981  -6.992   0.125  0.00  0.00     0.112 C 
ATOM      3  C   UNL d   1       2.834  -7.849  -2.171  0.00  0.00     0.112 C 
ATOM      4  N   UNL d   1       3.331  -7.081   1.229  0.00  0.00    -0.191 NA
ATOM      5  N   UNL d   1       3.076  -8.669  -2.960  0.00  0.00    -0.191 NA
ATOM      6  C   UNL d   1       1.862  -5.733  -1.613  0.00  0.00     0.122 C 
ENDROOT
BRANCH   6   7
ATOM      7  N   UNL d   1       1.509  -4.625  -0.876  0.00  0.00    -0.361 N 
ATOM      8  H   UNL d   1       1.848  -4.585   0.085  0.00  0.00     0.165 HD
BRANCH   7   9
ATOM      9  C   UNL d   1       0.804  -3.470  -1.282  0.00  0.00     0.067 A 
ATOM     10  C   UNL d   1       1.176  -2.260  -0.654  0.00  0.00     0.048 A 
ATOM     11  C   UNL d   1       0.558  -1.035  -0.958  0.00  0.00     0.050 A 
ATOM     12  C   UNL d   1      -0.421  -1.007  -1.954  0.00  0.00     0.019 A 
ATOM     13  C   UNL d   1      -0.757  -2.174  -2.638  0.00  0.00     0.040 A 
ATOM     14  C   UNL d   1      -0.185  -3.411  -2.285  0.00  0.00     0.102 A 
BRANCH  11  15
ATOM     15  C   UNL d   1       0.925   0.233  -0.229  0.00  0.00     0.417 C 
ATOM     16  F   UNL d   1       1.954   0.077   0.650  0.00  0.00    -0.166 F 
ATOM     17  F   UNL d   1      -0.115   0.729   0.497  0.00  0.00    -0.166 F 
ATOM     18  F   UNL d   1       1.302   1.231  -1.074  0.00  0.00    -0.166 F 
ENDBRANCH  11  15
BRANCH  14  19
ATOM     19  O   UNL d   1      -0.602  -4.581  -2.901  0.00  0.00    -0.308 OA
BRANCH  19  20
ATOM     20  C   UNL d   1      -1.941  -4.718  -3.216  0.00  0.00     0.077 A 
ATOM     21  C   UNL d   1      -2.257  -5.343  -4.422  0.00  0.00     0.045 A 
ATOM     22  C   UNL d   1      -3.599  -5.487  -4.823  0.00  0.00    -0.037 A 
ATOM     23  C   UNL d   1      -3.903  -6.122  -6.155  0.00  0.00     0.050 C 
ATOM     24  C   UNL d   1      -4.626  -5.005  -3.983  0.00  0.00     0.046 A 
ATOM     25  C   UNL d   1      -4.316  -4.384  -2.759  0.00  0.00    -0.037 A 
ATOM     26 CL   UNL d   1      -6.280  -5.191  -4.473  0.00  0.00    -0.083 Cl
ATOM     27  C   UNL d   1      -2.967  -4.279  -2.376  0.00  0.00     0.045 A 
ATOM     28  C   UNL d   1      -5.334  -3.789  -1.826  0.00  0.00     0.050 C 
ENDBRANCH  19  20
ENDBRANCH  14  19
ENDBRANCH   7   9
ENDBRANCH   6   7
TORSDOF 5
