REMARK  3 active torsions:
REMARK  status: ('A' for Active; 'I' for Inactive)
REMARK    1  A    between atoms: C_9  and  C_2 
REMARK    2  A    between atoms: S_11  and  C_5 
REMARK    3  A    between atoms: C_12  and  S_11 
ROOT
ATOM      1  C   UNL d   1       1.463  -4.812   1.799  0.00  0.00    -0.107 C 
ATOM      2  C   UNL d   1       1.470  -5.867   2.375  0.00  0.00     0.013 C 
ATOM      3  C   UNL d   1       1.443  -3.484   1.083  0.00  0.00     0.175 C 
ENDROOT
BRANCH   3   4
ATOM      4  S   UNL d   1      -0.060  -2.529   1.539  0.00  0.00    -0.080 SA
BRANCH   4   5
ATOM      5  C   UNL d   1       0.038  -1.087   0.593  0.00  0.00     0.161 A 
ATOM      6  N   UNL d   1      -0.631   0.051   0.959  0.00  0.00    -0.324 N 
ATOM      7  C   UNL d   1      -0.359   0.994  -0.009  0.00  0.00     0.105 A 
ATOM      8  H   UNL d   1      -1.193   0.168   1.788  0.00  0.00     0.169 HD
ATOM      9  N   UNL d   1       0.407   0.422  -0.922  0.00  0.00    -0.286 N 
ATOM     10  N   UNL d   1       0.655  -0.884  -0.543  0.00  0.00    -0.278 N 
ATOM     11  HN  UNL d   1       0.757   0.871  -1.768  1.00  0.00     0.188 HD
ATOM     12  HN  UNL d   1       1.216  -1.565  -1.055  1.00  0.00     0.189 HD
BRANCH   7  13
ATOM     13  C   UNL d   1      -0.834   2.437   0.009  0.00  0.00     0.009 C 
ATOM     14  C   UNL d   1      -0.297   3.165   1.255  0.00  0.00     0.023 C 
ATOM     15  C   UNL d   1      -0.308   3.177  -1.241  0.00  0.00     0.023 C 
ATOM     16  C   UNL d   1      -2.370   2.525   0.000  0.00  0.00     0.023 C 
ENDBRANCH   7  13
ENDBRANCH   4   5
ENDBRANCH   3   4
TORSDOF 3
