REMARK  6 active torsions:
REMARK  status: ('A' for Active; 'I' for Inactive)
REMARK    1  A    between atoms: O_5  and  C_1 
REMARK    2  A    between atoms: C_11  and  C_4 
REMARK    3  A    between atoms: C_6  and  O_5 
REMARK       I    between atoms: N_15  and  C_6 
REMARK    4  A    between atoms: S_19  and  C_7 
REMARK    5  A    between atoms: C_10  and  C_11 
REMARK    6  A    between atoms: C_22  and  S_19 
ROOT
ATOM      1  C   UNL d   1       3.993   4.013  -0.725  0.00  0.00    -0.107 C 
ATOM      2  C   UNL d   1       4.525   5.088  -0.618  0.00  0.00     0.013 C 
ATOM      3  C   UNL d   1       3.317   2.701  -0.845  0.00  0.00     0.175 C 
ENDROOT
BRANCH   3   4
ATOM      4  S   UNL d   1       1.863   2.650   0.240  0.00  0.00    -0.082 SA
BRANCH   4   5
ATOM      5  C   UNL d   1       1.051   1.172  -0.315  0.00  0.00     0.147 A 
ATOM      6  N   UNL d   1       1.731   0.033  -0.429  0.00  0.00    -0.316 N 
ATOM      7  C   UNL d   1       0.994  -1.084  -0.662  0.00  0.00     0.163 A 
ATOM      8  HN  UNL d   1       2.747   0.000  -0.345  1.00  0.00     0.170 HD
ATOM      9  C   UNL d   1      -0.399  -1.127  -0.767  0.00  0.00     0.020 A 
ATOM     10  C   UNL d   1      -0.995   0.105  -0.524  0.00  0.00     0.018 A 
ATOM     11  N   UNL d   1      -0.285   1.242  -0.339  0.00  0.00    -0.340 N 
ATOM     12  C   UNL d   1      -2.461   0.274  -0.253  0.00  0.00     0.069 C 
ATOM     13  HN  UNL d   1      -0.760   2.137  -0.221  1.00  0.00     0.167 HD
BRANCH   7  14
ATOM     14  O   UNL d   1       1.648  -2.314  -0.405  0.00  0.00    -0.243 OA
BRANCH  14  15
ATOM     15  C   UNL d   1       2.982  -2.372  -0.781  0.00  0.00     0.368 C 
ATOM     16  N   UNL d   1       3.774  -3.067   0.133  0.00  0.00    -0.336 N 
ATOM     17  C   UNL d   1       5.157  -3.339  -0.209  0.00  0.00     0.154 C 
ATOM     18  C   UNL d   1       3.253  -3.694   1.334  0.00  0.00     0.154 C 
ATOM     19  O   UNL d   1       3.412  -1.906  -1.833  0.00  0.00    -0.238 OA
ENDBRANCH  14  15
ENDBRANCH   7  14
BRANCH   9  20
ATOM     20  C   UNL d   1      -1.195  -2.404  -0.972  0.00  0.00     0.088 C 
BRANCH  20  21
ATOM     21  C   UNL d   1      -1.264  -2.967  -2.384  0.00  0.00     0.007 A 
ATOM     22  C   UNL d   1      -0.268  -3.858  -2.807  0.00  0.00     0.124 A 
ATOM     23  F   UNL d   1       0.696  -4.232  -1.954  0.00  0.00    -0.205 F 
ATOM     24  C   UNL d   1      -0.262  -4.433  -4.080  0.00  0.00     0.043 A 
ATOM     25  C   UNL d   1      -1.279  -4.140  -4.979  0.00  0.00     0.005 A 
ATOM     26  C   UNL d   1      -2.306  -3.291  -4.582  0.00  0.00     0.024 A 
ATOM     27  C   UNL d   1      -2.307  -2.719  -3.297  0.00  0.00     0.043 A 
ATOM     28 CL   UNL d   1      -3.699  -1.782  -2.901  0.00  0.00    -0.084 Cl
ENDBRANCH  20  21
ENDBRANCH   9  20
ENDBRANCH   4   5
ENDBRANCH   3   4
TORSDOF 6
