REMARK  6 active torsions:
REMARK  status: ('A' for Active; 'I' for Inactive)
REMARK    1  A    between atoms: C_2  and  C_1 
REMARK       I    between atoms: N_4  and  C_1 
REMARK    2  A    between atoms: C_3  and  C_5 
REMARK    3  A    between atoms: C_6  and  N_4 
REMARK    4  A    between atoms: S_7  and  C_11 
REMARK    5  A    between atoms: C_16  and  S_7 
REMARK    6  A    between atoms: C_17  and  C_16 
ROOT
ATOM      1  C   UNL d   1      -0.910   0.368  -1.111  0.00  0.00     0.051 A 
ATOM      2  C   UNL d   1      -1.473   1.223  -0.150  0.00  0.00     0.027 A 
ATOM      3  C   UNL d   1      -1.710  -0.149  -2.147  0.00  0.00     0.031 A 
ATOM      4  C   UNL d   1      -2.848   1.501  -0.215  0.00  0.00     0.021 A 
ATOM      5  C   UNL d   1      -3.074   0.125  -2.187  0.00  0.00     0.002 A 
ATOM      6  C   UNL d   1      -3.648   0.938  -1.220  0.00  0.00     0.002 A 
ENDROOT
BRANCH   1   7
ATOM      7  N   UNL d   1       0.420  -0.076  -0.965  0.00  0.00    -0.322 N 
ATOM      8  C   UNL d   1       1.310  -0.194  -2.020  0.00  0.00     0.261 C 
ATOM      9  O   UNL d   1       1.044   0.208  -3.148  0.00  0.00    -0.267 OA
ATOM     10  H   UNL d   1       0.777  -0.064  -0.015  0.00  0.00     0.169 HD
BRANCH   8  11
ATOM     11  C   UNL d   1       2.662  -0.751  -1.703  0.00  0.00     0.092 A 
ATOM     12  C   UNL d   1       3.091  -0.878  -0.374  0.00  0.00     0.133 A 
ATOM     13  F   UNL d   1       2.310  -0.486   0.647  0.00  0.00    -0.205 F 
ATOM     14  C   UNL d   1       4.341  -1.405  -0.044  0.00  0.00     0.043 A 
ATOM     15  C   UNL d   1       5.206  -1.810  -1.052  0.00  0.00     0.005 A 
ATOM     16  C   UNL d   1       4.806  -1.688  -2.382  0.00  0.00     0.025 A 
ATOM     17  C   UNL d   1       3.545  -1.172  -2.712  0.00  0.00     0.052 A 
ATOM     18 CL   UNL d   1       3.194  -1.136  -4.407  0.00  0.00    -0.083 Cl
ENDBRANCH   8  11
ENDBRANCH   1   7
BRANCH   2  19
ATOM     19  S   UNL d   1      -0.550   1.983   1.181  0.00  0.00    -0.123 SA
BRANCH  19  20
ATOM     20  C   UNL d   1       0.912   2.726   0.325  0.00  0.00     0.118 C 
BRANCH  20  21
ATOM     21  C   UNL d   1       1.631   3.631   1.303  0.00  0.00    -0.048 A 
ATOM     22  C   UNL d   1       2.379   3.070   2.354  0.00  0.00     0.024 A 
ATOM     23  C   UNL d   1       2.867   3.869   3.399  0.00  0.00     0.048 A 
ATOM     24  C   UNL d   1       2.661   5.255   3.343  0.00  0.00     0.016 A 
ATOM     25  C   UNL d   1       1.976   5.827   2.270  0.00  0.00     0.001 A 
ATOM     26  C   UNL d   1       1.456   5.019   1.258  0.00  0.00     0.008 A 
BRANCH  23  27
ATOM     27  C   UNL d   1       3.521   3.248   4.608  0.00  0.00     0.417 C 
ATOM     28  F   UNL d   1       3.700   1.901   4.499  0.00  0.00    -0.166 F 
ATOM     29  F   UNL d   1       4.752   3.766   4.870  0.00  0.00    -0.166 F 
ATOM     30  F   UNL d   1       2.788   3.433   5.742  0.00  0.00    -0.166 F 
ENDBRANCH  23  27
ENDBRANCH  20  21
ENDBRANCH  19  20
ENDBRANCH   2  19
TORSDOF 6
