REMARK  1 active torsions:
REMARK  status: ('A' for Active; 'I' for Inactive)
REMARK    1  A    between atoms: N_3  and  C_1 
REMARK       I    between atoms: C_2  and  N_3 
REMARK       I    between atoms: N_8  and  C_2 
ROOT
ATOM      1  C   UNL d   1       0.796  -1.157  -0.046  0.00  0.00     0.059 A 
ATOM      2  C   UNL d   1      -0.600  -1.238  -0.003  0.00  0.00     0.055 A 
ATOM      3  C   UNL d   1       1.395   0.119  -0.061  0.00  0.00     0.060 A 
ATOM      4  C   UNL d   1       0.617   1.280  -0.024  0.00  0.00     0.028 A 
ATOM      5  C   UNL d   1      -1.373  -0.075   0.035  0.00  0.00     0.036 A 
ATOM      6 CL   UNL d   1       3.116   0.296  -0.130  0.00  0.00    -0.082 Cl
ATOM      7  C   UNL d   1      -0.772   1.182   0.026  0.00  0.00     0.026 A 
ATOM      8 CL   UNL d   1      -3.090  -0.192   0.094  0.00  0.00    -0.084 Cl
ENDROOT
BRANCH   1   9
ATOM      9  N   UNL d   1       1.633  -2.298  -0.078  0.00  0.00    -0.307 N 
ATOM     10  C   UNL d   1       1.265  -3.612  -0.001  0.00  0.00     0.318 C 
ATOM     11  O   UNL d   1       0.143  -4.077   0.133  0.00  0.00    -0.247 OA
ATOM     12  N   UNL d   1       2.337  -4.451  -0.072  0.00  0.00    -0.352 N 
ATOM     13  H   UNL d   1       3.084  -4.210  -0.706  0.00  0.00     0.160 HD
ATOM     14  H   UNL d   1       2.061  -5.426  -0.104  0.00  0.00     0.160 HD
ATOM     15  H   UNL d   1       2.627  -2.114  -0.057  0.00  0.00     0.170 HD
ENDBRANCH   1   9
TORSDOF 1
