REMARK  1 active torsions:
REMARK  status: ('A' for Active; 'I' for Inactive)
REMARK    1  A    between atoms: C_7  and  C_5 
ROOT
ATOM      1  N   UNL d   1       1.022   0.419   0.133  0.00  0.00    -0.298 N 
ATOM      2  C   UNL d   1      -1.203   0.844   0.032  0.00  0.00     0.104 A 
ATOM      3  C   UNL d   1       0.348  -0.773   0.142  0.00  0.00     0.179 A 
ATOM      4  C   UNL d   1       0.154   1.478   0.066  0.00  0.00     0.274 A 
ATOM      5  C   UNL d   1      -2.355   1.515  -0.018  0.00  0.00     0.051 C 
ATOM      6  N   UNL d   1      -1.008  -0.508   0.077  0.00  0.00    -0.329 N 
ATOM      7  S   UNL d   1       1.031  -2.272   0.221  0.00  0.00    -0.040 SA
ATOM      8  O   UNL d   1       0.418   2.665   0.048  0.00  0.00    -0.266 OA
ATOM      9  H   UNL d   1       2.022   0.522   0.178  0.00  0.00     0.171 HD
ATOM     10  H   UNL d   1      -1.731  -1.213   0.072  0.00  0.00     0.168 HD
ENDROOT
BRANCH   5  11
ATOM     11  C   UNL d   1      -3.681   0.885  -0.018  0.00  0.00     0.026 A 
ATOM     12  C   UNL d   1      -4.385   0.607   1.163  0.00  0.00     0.047 A 
ATOM     13 CL   UNL d   1      -3.721   0.955   2.722  0.00  0.00    -0.083 Cl
ATOM     14  C   UNL d   1      -5.662   0.033   1.115  0.00  0.00     0.025 A 
ATOM     15  C   UNL d   1      -6.251  -0.271  -0.113  0.00  0.00     0.005 A 
ATOM     16  C   UNL d   1      -5.556  -0.014  -1.292  0.00  0.00     0.043 A 
ATOM     17  C   UNL d   1      -4.285   0.556  -1.237  0.00  0.00     0.128 A 
ATOM     18  F   UNL d   1      -3.642   0.786  -2.392  0.00  0.00    -0.205 F 
ENDBRANCH   5  11
TORSDOF 1
