REMARK  8 active torsions:
REMARK  status: ('A' for Active; 'I' for Inactive)
REMARK    1  A    between atoms: N_2  and  C_1 
REMARK    2  A    between atoms: C_3  and  C_1 
REMARK    3  A    between atoms: C_5  and  C_1 
REMARK    4  A    between atoms: N_6  and  C_1 
REMARK       I    between atoms: C_4  and  N_2 
REMARK    5  A    between atoms: C_8  and  C_4 
REMARK    6  A    between atoms: O_14  and  C_5 
REMARK    7  A    between atoms: C_13  and  N_6 
REMARK    8  A    between atoms: C_23  and  O_14 
ROOT
ATOM      1  C   UNL d   1       0.864  -0.103  -0.082  0.00  0.00     0.297 C 
ENDROOT
BRANCH   1   2
ATOM      2  N   UNL d   1       0.260  -1.438   0.047  0.00  0.00    -0.315 N 
ATOM      3  C   UNL d   1       0.119  -2.068   1.254  0.00  0.00     0.254 C 
ATOM      4  O   UNL d   1       0.470  -1.574   2.317  0.00  0.00    -0.268 OA
ATOM      5  H   UNL d   1      -0.224  -1.802  -0.764  0.00  0.00     0.166 HD
BRANCH   3   6
ATOM      6  C   UNL d   1      -0.516  -3.408   1.210  0.00  0.00     0.032 A 
ATOM      7  C   UNL d   1      -0.122  -4.348   0.249  0.00  0.00     0.017 A 
ATOM      8  C   UNL d   1      -0.683  -5.625   0.257  0.00  0.00     0.001 A 
ATOM      9  C   UNL d   1      -1.641  -5.961   1.215  0.00  0.00     0.000 A 
ATOM     10  C   UNL d   1      -2.042  -5.021   2.166  0.00  0.00     0.001 A 
ATOM     11  C   UNL d   1      -1.475  -3.744   2.171  0.00  0.00     0.017 A 
ENDBRANCH   3   6
ENDBRANCH   1   2
BRANCH   1  12
ATOM     12  C   UNL d   1       0.343   0.989   0.929  0.00  0.00     0.442 C 
ATOM     13  F   UNL d   1      -0.867   0.678   1.458  0.00  0.00    -0.166 F 
ATOM     14  F   UNL d   1       1.209   1.161   1.963  0.00  0.00    -0.166 F 
ATOM     15  F   UNL d   1       0.196   2.215   0.363  0.00  0.00    -0.166 F 
ENDBRANCH   1  12
BRANCH   1  16
ATOM     16  C   UNL d   1       0.438   0.483  -1.447  0.00  0.00     0.318 C 
ATOM     17  O   UNL d   1      -0.582   0.141  -2.037  0.00  0.00    -0.260 OA
BRANCH  16  18
ATOM     18  O   UNL d   1       1.348   1.378  -1.933  0.00  0.00    -0.318 OA
BRANCH  18  19
ATOM     19  C   UNL d   1       1.094   1.915  -3.239  0.00  0.00     0.174 C 
ATOM     20  C   UNL d   1       1.451   0.909  -4.319  0.00  0.00     0.034 C 
ENDBRANCH  18  19
ENDBRANCH  16  18
ENDBRANCH   1  16
BRANCH   1  21
ATOM     21  N   UNL d   1       2.336  -0.317  -0.003  0.00  0.00    -0.348 N 
ATOM     22  H   UNL d   1       2.663  -0.302   0.963  0.00  0.00     0.163 HD
BRANCH  21  23
ATOM     23  C   UNL d   1       3.140  -1.033  -0.873  0.00  0.00     0.030 A 
ATOM     24  C   UNL d   1       2.684  -1.688  -2.023  0.00  0.00     0.031 A 
ATOM     25  C   UNL d   1       3.571  -2.296  -2.921  0.00  0.00     0.026 A 
ATOM     26  C   UNL d   1       4.939  -2.239  -2.690  0.00  0.00     0.034 A 
ATOM     27  C   UNL d   1       5.425  -1.585  -1.566  0.00  0.00     0.026 A 
ATOM     28 CL   UNL d   1       6.028  -2.964  -3.806  0.00  0.00    -0.084 Cl
ATOM     29  C   UNL d   1       4.529  -0.986  -0.671  0.00  0.00     0.031 A 
ENDBRANCH  21  23
ENDBRANCH   1  21
TORSDOF 8
