REMARK  3 active torsions:
REMARK  status: ('A' for Active; 'I' for Inactive)
REMARK    1  A    between atoms: N_5  and  C_1 
REMARK    2  A    between atoms: C_4  and  C_6 
REMARK    3  A    between atoms: O_19  and  C_18 
ROOT
ATOM      1  C   UNL d   1       0.135   1.337  -0.039  0.00  0.00     0.680 A 
ATOM      2  N   UNL d   1       0.814   0.764  -1.042  0.00  0.00    -0.186 N 
ATOM      3  HN  UNL d   1       1.337   1.337  -1.704  1.00  0.00     0.184 HD
ATOM      4  C   UNL d   1       0.799  -0.586  -1.167  0.00  0.00     0.133 A 
ATOM      5  N   UNL d   1      -0.591   0.618   0.829  0.00  0.00    -0.202 N 
ATOM      6  HN  UNL d   1      -1.107   1.070   1.584  1.00  0.00     0.183 HD
ATOM      7  C   UNL d   1       0.069  -1.382  -0.309  0.00  0.00     0.052 A 
ATOM      8  C   UNL d   1      -0.617  -0.719   0.675  0.00  0.00     0.108 A 
ENDROOT
BRANCH   1   9
ATOM      9  N   UNL d   1       0.270   2.696   0.136  0.00  0.00    -0.217 N 
ATOM     10  C   UNL d   1       0.591   3.518  -1.023  0.00  0.00     0.143 C 
ATOM     11  C   UNL d   1       1.514   4.651  -0.581  0.00  0.00     0.052 C 
ATOM     12  C   UNL d   1       0.965   5.410   0.627  0.00  0.00     0.121 C 
ATOM     13  C   UNL d   1       0.493   4.483   1.748  0.00  0.00     0.052 C 
ATOM     14  C   UNL d   1      -0.408   3.357   1.239  0.00  0.00     0.143 C 
BRANCH  12  15
ATOM     15  O   UNL d   1      -0.088   6.288   0.229  0.00  0.00    -0.395 OA
ATOM     16  H   UNL d   1      -0.820   5.759  -0.134  0.00  0.00     0.210 HD
ENDBRANCH  12  15
ENDBRANCH   1   9
BRANCH   4  17
ATOM     17  C   UNL d   1       1.634  -1.227  -2.257  0.00  0.00     0.433 C 
ATOM     18  F   UNL d   1       2.323  -0.344  -3.033  0.00  0.00    -0.165 F 
ATOM     19  F   UNL d   1       2.568  -2.088  -1.757  0.00  0.00    -0.165 F 
ATOM     20  F   UNL d   1       0.881  -1.971  -3.121  0.00  0.00    -0.165 F 
ENDBRANCH   4  17
TORSDOF 3
