REMARK  5 active torsions:
REMARK  status: ('A' for Active; 'I' for Inactive)
REMARK    1  A    between atoms: C_7  and  N_1 
REMARK    2  A    between atoms: S_10  and  C_2 
REMARK    3  A    between atoms: C_15  and  S_10 
REMARK    4  A    between atoms: C_11  and  C_15 
REMARK    5  A    between atoms: C_14  and  C_11 
ROOT
ATOM      1  N   UNL d   1      -0.178  -1.290   0.031  0.00  0.00    -0.218 N 
ATOM      2  C   UNL d   1       0.903  -0.607  -0.524  0.00  0.00     0.177 A 
ATOM      3  N   UNL d   1       0.792   0.676  -0.256  0.00  0.00    -0.264 N 
ATOM      4  HN  UNL d   1       1.447   1.414  -0.515  1.00  0.00     0.186 HD
ATOM      5  N   UNL d   1      -0.978  -0.343   0.602  0.00  0.00     0.001 NA
ATOM      6  N   UNL d   1      -0.372   0.821   0.437  0.00  0.00    -0.006 NA
ENDROOT
BRANCH   1   7
ATOM      7  C   UNL d   1      -0.514  -2.671   0.170  0.00  0.00     0.068 A 
ATOM      8  C   UNL d   1       0.448  -3.638   0.552  0.00  0.00    -0.033 A 
ATOM      9  C   UNL d   1       0.042  -4.978   0.738  0.00  0.00     0.015 A 
ATOM     10  C   UNL d   1       1.893  -3.370   0.884  0.00  0.00     0.050 C 
ATOM     11  C   UNL d   1      -1.293  -5.367   0.638  0.00  0.00    -0.061 A 
ATOM     12  C   UNL d   1      -2.239  -4.410   0.286  0.00  0.00     0.015 A 
ATOM     13  C   UNL d   1      -1.690  -6.784   0.930  0.00  0.00     0.048 C 
ATOM     14  C   UNL d   1      -1.876  -3.071   0.030  0.00  0.00    -0.033 A 
ATOM     15  C   UNL d   1      -3.015  -2.162  -0.369  0.00  0.00     0.050 C 
ENDBRANCH   1   7
BRANCH   2  16
ATOM     16  S   UNL d   1       2.121  -1.252  -1.576  0.00  0.00    -0.084 SA
BRANCH  16  17
ATOM     17  C   UNL d   1       3.458  -0.026  -1.321  0.00  0.00     0.161 C 
BRANCH  17  18
ATOM     18  C   UNL d   1       4.811  -0.564  -1.773  0.00  0.00     0.144 C 
ATOM     19  O   UNL d   1       5.026  -1.782  -1.853  0.00  0.00    -0.296 OA
BRANCH  18  20
ATOM     20  C   UNL d   1       5.984   0.425  -1.987  0.00  0.00     0.010 C 
ATOM     21  C   UNL d   1       6.806   0.498  -0.690  0.00  0.00     0.022 C 
ATOM     22  C   UNL d   1       6.876  -0.120  -3.118  0.00  0.00     0.022 C 
ATOM     23  C   UNL d   1       5.535   1.838  -2.376  0.00  0.00     0.022 C 
ENDBRANCH  18  20
ENDBRANCH  17  18
ENDBRANCH  16  17
ENDBRANCH   2  16
TORSDOF 5
