REMARK  3 active torsions:
REMARK  status: ('A' for Active; 'I' for Inactive)
REMARK    1  A    between atoms: C_5  and  C_1 
REMARK    2  A    between atoms: O_15  and  C_5 
REMARK    3  A    between atoms: C_7  and  C_6 
ROOT
ATOM      1  C   UNL d   1       0.217  -1.296  -0.013  0.00  0.00     0.061 A 
ATOM      2  N   UNL d   1       0.291   1.128   0.036  0.00  0.00    -0.358 N 
ATOM      3  HN  UNL d   1       0.832   1.992   0.066  1.00  0.00     0.166 HD
ATOM      4  C   UNL d   1       0.922  -0.087   0.005  0.00  0.00     0.022 A 
ATOM      5  C   UNL d   1      -1.065   1.163   0.025  0.00  0.00     0.049 A 
ATOM      6  C   UNL d   1      -1.183  -1.226  -0.019  0.00  0.00     0.022 A 
ATOM      7  C   UNL d   1      -1.829   0.007  -0.001  0.00  0.00     0.032 A 
ATOM      8  C   UNL d   1       2.423  -0.013  -0.004  0.00  0.00     0.069 C 
ENDROOT
BRANCH   5   9
ATOM      9  C   UNL d   1      -1.656   2.507   0.101  0.00  0.00     0.031 A 
ATOM     10  S   UNL d   1      -3.216   2.830  -0.551  0.00  0.00    -0.100 SA
ATOM     11  C   UNL d   1      -3.189   4.452  -0.022  0.00  0.00     0.050 A 
ATOM     12  C   UNL d   1      -2.007   4.770   0.603  0.00  0.00     0.008 A 
ATOM     13  C   UNL d   1      -1.116   3.657   0.654  0.00  0.00     0.021 A 
ENDBRANCH   5   9
BRANCH   1  14
ATOM     14  C   UNL d   1       0.903  -2.625  -0.012  0.00  0.00     0.294 C 
ATOM     15  O   UNL d   1       2.107  -2.801  -0.004  0.00  0.00    -0.259 OA
BRANCH  14  16
ATOM     16  O   UNL d   1      -0.034  -3.614  -0.011  0.00  0.00    -0.322 OA
ATOM     17  C   UNL d   1       0.486  -4.942   0.012  0.00  0.00     0.213 C 
ENDBRANCH  14  16
ENDBRANCH   1  14
TORSDOF 3
