REMARK  7 active torsions:
REMARK  status: ('A' for Active; 'I' for Inactive)
REMARK    1  A    between atoms: C_16  and  N_1 
REMARK    2  A    between atoms: S_18  and  C_4 
REMARK    3  A    between atoms: C_19  and  C_5 
REMARK    4  A    between atoms: C_8  and  C_24 
REMARK    5  A    between atoms: C_13  and  C_20 
REMARK    6  A    between atoms: C_17  and  C_23 
REMARK    7  A    between atoms: C_24  and  S_18 
ROOT
ATOM      1  C   UNL d   1       3.947   0.922   0.030  0.00  0.00     0.169 C 
ENDROOT
BRANCH   1   2
ATOM      2  C   UNL d   1       5.169   1.766  -0.034  0.00  0.00     0.158 A 
ATOM      3  N   UNL d   1       5.310   3.075   0.006  0.00  0.00    -0.322 N 
ATOM      4  C   UNL d   1       6.680   3.236  -0.050  0.00  0.00     0.137 A 
ATOM      5  HN  UNL d   1       4.587   3.791   0.065  1.00  0.00     0.169 HD
ATOM      6  N   UNL d   1       7.352   2.077  -0.167  0.00  0.00    -0.242 N 
ATOM      7  O   UNL d   1       6.356   1.106  -0.154  0.00  0.00    -0.222 OA
ATOM      8  HN  UNL d   1       8.360   1.942  -0.247  1.00  0.00     0.196 HD
BRANCH   4   9
ATOM      9  C   UNL d   1       7.321   4.546   0.033  0.00  0.00     0.010 A 
ATOM     10  C   UNL d   1       6.555   5.704   0.226  0.00  0.00     0.016 A 
ATOM     11  C   UNL d   1       7.168   6.960   0.325  0.00  0.00     0.010 A 
ATOM     12  C   UNL d   1       8.563   7.096   0.230  0.00  0.00    -0.035 A 
ATOM     13  C   UNL d   1       9.326   5.933   0.040  0.00  0.00     0.010 A 
ATOM     14  C   UNL d   1       8.713   4.677  -0.060  0.00  0.00     0.016 A 
BRANCH  12  15
ATOM     15  C   UNL d   1       9.196   8.468   0.349  0.00  0.00     0.141 C 
ATOM     16  S   UNL d   1      10.210   8.927  -1.089  0.00  0.00    -0.148 SA
ATOM     17  C   UNL d   1      11.235  10.111  -0.190  0.00  0.00     0.085 C 
ATOM     18  C   UNL d   1      11.640   9.449   1.113  0.00  0.00     0.085 C 
ATOM     19  S   UNL d   1      10.188   8.659   1.870  0.00  0.00    -0.148 SA
ENDBRANCH  12  15
ENDBRANCH   4   9
ENDBRANCH   1   2
BRANCH   1  20
ATOM     20  S   UNL d   1       2.801   1.561   1.287  0.00  0.00    -0.084 SA
BRANCH  20  21
ATOM     21  C   UNL d   1       1.414   0.554   1.033  0.00  0.00     0.167 A 
ATOM     22  N   UNL d   1       0.167   0.773   1.596  0.00  0.00    -0.286 N 
ATOM     23  C   UNL d   1      -0.493  -0.417   1.384  0.00  0.00     0.207 A 
ATOM     24  N   UNL d   1       0.245  -1.238   0.671  0.00  0.00    -0.294 N 
ATOM     25  N   UNL d   1       1.451  -0.622   0.450  0.00  0.00    -0.279 N 
ATOM     26  HN  UNL d   1      -0.028  -2.164   0.343  1.00  0.00     0.187 HD
ATOM     27  HN  UNL d   1       2.236  -1.009  -0.074  1.00  0.00     0.189 HD
BRANCH  22  28
ATOM     28  C   UNL d   1      -0.374   1.922   2.237  0.00  0.00     0.042 A 
ATOM     29  C   UNL d   1       0.043   3.207   1.872  0.00  0.00     0.031 A 
ATOM     30  C   UNL d   1      -0.482   4.331   2.515  0.00  0.00     0.018 A 
ATOM     31  C   UNL d   1      -1.440   4.193   3.528  0.00  0.00     0.048 A 
ATOM     32  C   UNL d   1      -1.876   2.905   3.872  0.00  0.00     0.018 A 
ATOM     33  C   UNL d   1      -1.359   1.776   3.224  0.00  0.00     0.031 A 
BRANCH  31  34
ATOM     34  C   UNL d   1      -1.978   5.423   4.219  0.00  0.00     0.417 C 
ATOM     35  F   UNL d   1      -2.904   5.147   5.178  0.00  0.00    -0.166 F 
ATOM     36  F   UNL d   1      -1.001   6.141   4.838  0.00  0.00    -0.166 F 
ATOM     37  F   UNL d   1      -2.582   6.281   3.352  0.00  0.00    -0.166 F 
ENDBRANCH  31  34
ENDBRANCH  22  28
ENDBRANCH  20  21
ENDBRANCH   1  20
TORSDOF 7
