REMARK  7 active torsions:
REMARK  status: ('A' for Active; 'I' for Inactive)
REMARK    1  A    between atoms: C_7  and  C_1 
REMARK    2  A    between atoms: C_8  and  C_3 
REMARK    3  A    between atoms: O_17  and  C_7 
REMARK    4  A    between atoms: N_11  and  C_10 
REMARK    5  A    between atoms: C_19  and  N_11 
REMARK    6  A    between atoms: C_20  and  N_11 
REMARK    7  A    between atoms: C_21  and  O_17 
ROOT
ATOM      1  C   UNL d   1      -1.149   1.539  -0.881  0.00  0.00     0.066 C 
ATOM      2  C   UNL d   1      -1.012   1.134  -2.165  0.00  0.00     0.024 C 
ATOM      3  C   UNL d   1       0.067   1.758  -0.009  0.00  0.00     0.161 C 
ATOM      4  C   UNL d   1       1.418   1.326  -2.060  0.00  0.00     0.321 C 
ATOM      5  N   UNL d   1       0.259   0.980  -2.680  0.00  0.00    -0.312 N 
ATOM      6  N   UNL d   1       1.292   1.801  -0.802  0.00  0.00    -0.330 N 
ATOM      7  O   UNL d   1       2.502   1.252  -2.618  0.00  0.00    -0.247 OA
ATOM      8  C   UNL d   1      -2.091   0.801  -3.164  0.00  0.00     0.069 C 
ATOM      9  H   UNL d   1       0.381   0.678  -3.641  0.00  0.00     0.170 HD
ATOM     10  H   UNL d   1       2.152   2.091  -0.359  0.00  0.00     0.165 HD
ENDROOT
BRANCH   3  11
ATOM     11  C   UNL d   1       0.063   3.008   0.854  0.00  0.00    -0.031 A 
ATOM     12  C   UNL d   1       0.190   2.924   2.247  0.00  0.00     0.012 A 
ATOM     13  C   UNL d   1       0.326   4.083   3.024  0.00  0.00     0.030 A 
ATOM     14  C   UNL d   1       0.390   5.352   2.437  0.00  0.00     0.030 A 
ATOM     15  C   UNL d   1       0.199   5.418   1.047  0.00  0.00     0.030 A 
ATOM     16  C   UNL d   1       0.029   4.275   0.266  0.00  0.00     0.012 A 
BRANCH  14  17
ATOM     17  N   UNL d   1       0.699   6.487   3.173  0.00  0.00    -0.382 N 
BRANCH  17  18
ATOM     18  C   UNL d   1       0.115   6.728   4.492  0.00  0.00     0.118 C 
ATOM     19  C   UNL d   1       1.082   6.431   5.628  0.00  0.00     0.026 C 
ENDBRANCH  17  18
BRANCH  17  20
ATOM     20  C   UNL d   1       1.627   7.479   2.620  0.00  0.00     0.118 C 
ATOM     21  C   UNL d   1       3.028   6.895   2.470  0.00  0.00     0.026 C 
ENDBRANCH  17  20
ENDBRANCH  14  17
ENDBRANCH   3  11
BRANCH   1  22
ATOM     22  C   UNL d   1      -2.501   1.751  -0.290  0.00  0.00     0.293 C 
ATOM     23  O   UNL d   1      -3.499   2.019  -0.941  0.00  0.00    -0.259 OA
BRANCH  22  24
ATOM     24  O   UNL d   1      -2.491   1.606   1.060  0.00  0.00    -0.318 OA
BRANCH  24  25
ATOM     25  C   UNL d   1      -3.765   1.799   1.708  0.00  0.00     0.174 C 
ATOM     26  C   UNL d   1      -4.170   3.265   1.770  0.00  0.00     0.034 C 
ENDBRANCH  24  25
ENDBRANCH  22  24
ENDBRANCH   1  22
TORSDOF 7
