REMARK  3 active torsions:
REMARK  status: ('A' for Active; 'I' for Inactive)
REMARK    1  A    between atoms: C_6  and  C_1 
REMARK    2  A    between atoms: C_16  and  N_2 
REMARK    3  A    between atoms: C_10  and  C_16 
ROOT
ATOM      1  N   UNL d   1      -1.007   3.141   0.127  0.00  0.00    -0.394 N 
ATOM      2  HN  UNL d   1      -1.468   2.700   0.923  1.00  0.00     0.159 HD
ATOM      3  C   UNL d   1      -0.608   2.455  -0.886  0.00  0.00     0.099 C 
ENDROOT
BRANCH   1   4
ATOM      4  C   UNL d   1      -0.768   4.584   0.081  0.00  0.00     0.157 C 
BRANCH   4   5
ATOM      5  C   UNL d   1      -2.065   5.361   0.105  0.00  0.00    -0.041 A 
ATOM      6  C   UNL d   1      -2.986   5.165   1.147  0.00  0.00     0.010 A 
ATOM      7  C   UNL d   1      -4.181   5.885   1.187  0.00  0.00     0.024 A 
ATOM      8  C   UNL d   1      -4.464   6.807   0.182  0.00  0.00     0.034 A 
ATOM      9  C   UNL d   1      -3.561   7.015  -0.859  0.00  0.00     0.024 A 
ATOM     10 CL   UNL d   1      -5.936   7.697   0.226  0.00  0.00    -0.084 Cl
ATOM     11  C   UNL d   1      -2.364   6.294  -0.897  0.00  0.00     0.010 A 
ENDBRANCH   4   5
ENDBRANCH   1   4
BRANCH   3  12
ATOM     12  C   UNL d   1      -0.809   0.990  -0.972  0.00  0.00     0.039 A 
ATOM     13  C   UNL d   1      -0.328   0.250  -2.061  0.00  0.00     0.048 A 
ATOM     14 CL   UNL d   1       0.534   0.964  -3.381  0.00  0.00    -0.083 Cl
ATOM     15  C   UNL d   1      -0.531  -1.137  -2.121  0.00  0.00     0.025 A 
ATOM     16  C   UNL d   1      -1.215  -1.796  -1.100  0.00  0.00     0.005 A 
ATOM     17  C   UNL d   1      -1.697  -1.069  -0.019  0.00  0.00     0.043 A 
ATOM     18  C   UNL d   1      -1.495   0.309   0.042  0.00  0.00     0.129 A 
ATOM     19  F   UNL d   1      -1.990   0.948   1.113  0.00  0.00    -0.205 F 
ENDBRANCH   3  12
TORSDOF 3
