REMARK  2 active torsions:
REMARK  status: ('A' for Active; 'I' for Inactive)
REMARK    1  A    between atoms: N_7  and  C_1 
REMARK       I    between atoms: C_8  and  N_7 
REMARK    2  A    between atoms: N_14  and  C_13 
ROOT
ATOM      1  C   UNL d   1       2.418  -0.635  -0.077  0.00  0.00     0.112 A 
ATOM      2  C   UNL d   1       2.353   0.863  -0.084  0.00  0.00     0.315 A 
ATOM      3  O   UNL d   1       1.105   1.463  -0.004  0.00  0.00    -0.273 OA
ATOM      4  C   UNL d   1       1.290  -1.352  -0.011  0.00  0.00     0.050 A 
ATOM      5  C   UNL d   1      -0.007  -0.697   0.019  0.00  0.00     0.002 A 
ATOM      6  C   UNL d   1      -0.067   0.690   0.019  0.00  0.00     0.090 A 
ATOM      7  O   UNL d   1       3.390   1.522  -0.154  0.00  0.00    -0.257 OA
ATOM      8  C   UNL d   1      -1.197  -1.431   0.007  0.00  0.00     0.037 A 
ATOM      9  C   UNL d   1      -1.286   1.359  -0.000  0.00  0.00     0.040 A 
ATOM     10  C   UNL d   1      -2.437  -0.784   0.030  0.00  0.00     0.006 A 
ATOM     11  C   UNL d   1      -2.469   0.616  -0.020  0.00  0.00     0.026 A 
ENDROOT
BRANCH   1  12
ATOM     12  N   UNL d   1       3.698  -1.164  -0.159  0.00  0.00    -0.322 N 
ATOM     13  C   UNL d   1       4.077  -2.490  -0.181  0.00  0.00     0.218 C 
ATOM     14  O   UNL d   1       3.326  -3.456  -0.080  0.00  0.00    -0.274 OA
ATOM     15  C   UNL d   1       5.562  -2.692  -0.345  0.00  0.00     0.117 C 
ATOM     16  H   UNL d   1       4.428  -0.455  -0.222  0.00  0.00     0.169 HD
ENDBRANCH   1  12
BRANCH  10  17
ATOM     17  N   UNL d   1      -3.613  -1.520  -0.141  0.00  0.00    -0.303 NA
ATOM     18  H   UNL d   1      -3.558  -2.477   0.194  0.00  0.00     0.124 HD
ATOM     19  H   UNL d   1      -4.453  -1.048   0.176  0.00  0.00     0.124 HD
ENDBRANCH  10  17
TORSDOF 2
