REMARK  2 active torsions:
REMARK  status: ('A' for Active; 'I' for Inactive)
REMARK    1  A    between atoms: C_2  and  N_1 
REMARK    2  A    between atoms: O_11  and  C_8 
ROOT
ATOM      1  C   UNL d   1       0.265  -0.923   0.786  0.00  0.00     0.118 A 
ATOM      2  N   UNL d   1      -1.644  -2.342   1.184  0.00  0.00    -0.345 N 
ATOM      3  HN  UNL d   1      -2.502  -2.785   0.857  1.00  0.00     0.167 HD
ATOM      4  C   UNL d   1      -0.906  -1.542   0.376  0.00  0.00     0.126 A 
ATOM      5  C   UNL d   1      -1.189  -2.528   2.445  0.00  0.00     0.141 A 
ATOM      6  C   UNL d   1       0.718  -1.126   2.092  0.00  0.00     0.041 A 
ATOM      7  C   UNL d   1      -0.028  -1.947   2.937  0.00  0.00     0.058 A 
ENDROOT
BRANCH   1   8
ATOM      8  N   UNL d   1       0.999  -0.076  -0.143  0.00  0.00    -0.114 N 
ATOM      9  O   UNL d   1       0.539   0.059  -1.285  0.00  0.00    -0.532 OA
ATOM     10  O   UNL d   1       2.038   0.458   0.266  0.00  0.00    -0.532 OA
ENDBRANCH   1   8
BRANCH   5  11
ATOM     11  O   UNL d   1      -1.891  -3.333   3.318  0.00  0.00    -0.341 OA
ATOM     12  C   UNL d   1      -3.077  -3.872   2.742  0.00  0.00     0.211 C 
ENDBRANCH   5  11
TORSDOF 2
