REMARK  2 active torsions:
REMARK  status: ('A' for Active; 'I' for Inactive)
REMARK    1  A    between atoms: C_7  and  N_2 
REMARK    2  A    between atoms: C_12  and  C_7 
ROOT
ATOM      1  C   UNL d   1      -2.458   0.817  -0.263  0.00  0.00     0.258 C 
ATOM      2  N   UNL d   1      -1.286  -1.362  -0.110  0.00  0.00    -0.310 N 
ATOM      3  C   UNL d   1      -2.490  -0.669   0.068  0.00  0.00     0.272 C 
ATOM      4  C   UNL d   1      -1.172   1.510   0.098  0.00  0.00     0.210 C 
ATOM      5  C   UNL d   1       0.057   0.698   0.030  0.00  0.00     0.041 A 
ATOM      6  C   UNL d   1      -0.019  -0.695  -0.127  0.00  0.00     0.051 A 
ATOM      7  O   UNL d   1      -3.533  -1.263   0.360  0.00  0.00    -0.269 OA
ATOM      8 CL   UNL d   1      -2.644   0.939  -2.053  0.00  0.00    -0.082 Cl
ATOM      9 CL   UNL d   1      -3.831   1.651   0.517  0.00  0.00    -0.082 Cl
ATOM     10  O   UNL d   1      -1.071   2.711   0.354  0.00  0.00    -0.288 OA
ATOM     11  C   UNL d   1       1.299   1.355   0.094  0.00  0.00     0.017 A 
ATOM     12  C   UNL d   1       1.186  -1.403  -0.231  0.00  0.00     0.031 A 
ATOM     13  C   UNL d   1       2.480   0.631   0.001  0.00  0.00     0.001 A 
ATOM     14  C   UNL d   1       2.424  -0.748  -0.165  0.00  0.00     0.002 A 
ENDROOT
BRANCH   2  15
ATOM     15  C   UNL d   1      -1.393  -2.806  -0.344  0.00  0.00     0.170 C 
BRANCH  15  16
ATOM     16  C   UNL d   1      -1.021  -3.731   0.794  0.00  0.00    -0.040 A 
ATOM     17  C   UNL d   1      -0.736  -3.296   2.093  0.00  0.00     0.009 A 
ATOM     18  C   UNL d   1      -0.370  -4.212   3.082  0.00  0.00     0.001 A 
ATOM     19  C   UNL d   1      -0.305  -5.573   2.792  0.00  0.00     0.000 A 
ATOM     20  C   UNL d   1      -0.617  -6.025   1.512  0.00  0.00     0.001 A 
ATOM     21  C   UNL d   1      -0.973  -5.110   0.522  0.00  0.00     0.009 A 
ENDBRANCH  15  16
ENDBRANCH   2  15
TORSDOF 2
