REMARK  6 active torsions:
REMARK  status: ('A' for Active; 'I' for Inactive)
REMARK    1  A    between atoms: C_22  and  C_4 
REMARK    2  A    between atoms: C_7  and  C_12 
REMARK       I    between atoms: C_9  and  N_11 
REMARK    3  A    between atoms: C_13  and  C_9 
REMARK    4  A    between atoms: N_11  and  C_15 
REMARK    5  A    between atoms: S_17  and  C_22 
REMARK    6  A    between atoms: C_18  and  S_17 
ROOT
ATOM      1  C   UNL d   1       3.756   4.905   0.391  0.00  0.00     0.051 A 
ATOM      2  C   UNL d   1       2.417   4.642   0.752  0.00  0.00     0.027 A 
ATOM      3  C   UNL d   1       4.096   6.165  -0.150  0.00  0.00     0.031 A 
ATOM      4  C   UNL d   1       1.461   5.643   0.458  0.00  0.00     0.021 A 
ATOM      5  C   UNL d   1       3.133   7.142  -0.395  0.00  0.00     0.002 A 
ATOM      6  C   UNL d   1       1.807   6.872  -0.108  0.00  0.00     0.002 A 
ENDROOT
BRANCH   1   7
ATOM      7  N   UNL d   1       4.859   4.053   0.622  0.00  0.00    -0.322 N 
ATOM      8  C   UNL d   1       5.018   2.849  -0.045  0.00  0.00     0.256 C 
ATOM      9  O   UNL d   1       4.243   2.406  -0.890  0.00  0.00    -0.267 OA
ATOM     10  H   UNL d   1       5.742   4.542   0.711  0.00  0.00     0.169 HD
BRANCH   8  11
ATOM     11  C   UNL d   1       6.269   2.093   0.290  0.00  0.00     0.033 A 
ATOM     12  C   UNL d   1       6.598   0.961  -0.471  0.00  0.00     0.033 A 
ATOM     13  C   UNL d   1       7.733   0.192  -0.160  0.00  0.00     0.048 A 
ATOM     14  C   UNL d   1       8.536   0.574   0.925  0.00  0.00     0.016 A 
ATOM     15  C   UNL d   1       8.214   1.695   1.689  0.00  0.00     0.002 A 
ATOM     16  C   UNL d   1       7.081   2.447   1.379  0.00  0.00     0.017 A 
BRANCH  13  17
ATOM     17  C   UNL d   1       8.075  -1.054  -0.940  0.00  0.00     0.417 C 
ATOM     18  F   UNL d   1       7.384  -1.180  -2.105  0.00  0.00    -0.166 F 
ATOM     19  F   UNL d   1       9.394  -1.106  -1.282  0.00  0.00    -0.166 F 
ATOM     20  F   UNL d   1       7.832  -2.192  -0.232  0.00  0.00    -0.166 F 
ENDBRANCH  13  17
ENDBRANCH   8  11
ENDBRANCH   1   7
BRANCH   2  21
ATOM     21  S   UNL d   1       1.706   3.428   1.879  0.00  0.00    -0.120 SA
BRANCH  21  22
ATOM     22  C   UNL d   1       2.487   1.807   1.620  0.00  0.00     0.158 C 
BRANCH  22  23
ATOM     23  C   UNL d   1       3.600   1.506   2.561  0.00  0.00     0.113 A 
ATOM     24  N   UNL d   1       4.047   2.384   3.522  0.00  0.00    -0.322 N 
ATOM     25  C   UNL d   1       4.870   1.657   4.241  0.00  0.00     0.189 A 
ATOM     26  HN  UNL d   1       3.797   3.365   3.647  1.00  0.00     0.169 HD
ATOM     27  O   UNL d   1       5.029   0.395   3.727  0.00  0.00    -0.217 OA
ATOM     28  C   UNL d   1       5.475   2.143   5.446  0.00  0.00     0.058 A 
ATOM     29  N   UNL d   1       4.186   0.299   2.615  0.00  0.00    -0.246 N 
ATOM     30  HN  UNL d   1       4.049  -0.498   1.993  1.00  0.00     0.196 HD
ATOM     31  S   UNL d   1       6.325   1.124   6.525  0.00  0.00    -0.098 SA
ATOM     32  C   UNL d   1       5.412   3.440   5.922  0.00  0.00     0.024 A 
ATOM     33  C   UNL d   1       6.542   2.392   7.655  0.00  0.00     0.050 A 
ATOM     34  C   UNL d   1       6.021   3.583   7.202  0.00  0.00     0.009 A 
ENDBRANCH  22  23
ENDBRANCH  21  22
ENDBRANCH   2  21
TORSDOF 6
