REMARK  7 active torsions:
REMARK  status: ('A' for Active; 'I' for Inactive)
REMARK    1  A    between atoms: C_6  and  C_1 
REMARK    2  A    between atoms: C_3  and  C_2 
REMARK       I    between atoms: N_9  and  C_3 
REMARK    3  A    between atoms: C_7  and  C_12 
REMARK    4  A    between atoms: C_11  and  N_9 
REMARK    5  A    between atoms: O_14  and  C_13 
REMARK    6  A    between atoms: C_16  and  O_14 
REMARK    7  A    between atoms: O_28  and  C_22 
ROOT
ATOM      1  C   UNL d   1      -1.833  -3.399   0.106  0.00  0.00     0.070 A 
ATOM      2  C   UNL d   1      -4.041  -4.448   0.241  0.00  0.00     0.050 A 
ATOM      3  C   UNL d   1      -2.237  -2.706  -1.046  0.00  0.00     0.103 A 
ATOM      4  C   UNL d   1      -2.727  -4.290   0.719  0.00  0.00     0.048 A 
ATOM      5  C   UNL d   1      -4.435  -3.721  -0.893  0.00  0.00     0.019 A 
ATOM      6  C   UNL d   1      -3.539  -2.859  -1.532  0.00  0.00     0.040 A 
ENDROOT
BRANCH   1   7
ATOM      7  N   UNL d   1      -0.553  -3.180   0.669  0.00  0.00    -0.320 N 
ATOM      8  C   UNL d   1       0.304  -4.244   0.963  0.00  0.00     0.261 C 
ATOM      9  O   UNL d   1       0.033  -5.378   0.611  0.00  0.00    -0.267 OA
ATOM     10  H   UNL d   1      -0.081  -2.319   0.421  0.00  0.00     0.169 HD
BRANCH   8  11
ATOM     11  C   UNL d   1       1.492  -3.896   1.721  0.00  0.00     0.093 A 
ATOM     12  C   UNL d   1       2.860  -4.410   1.747  0.00  0.00     0.086 A 
ATOM     13  N   UNL d   1       3.505  -3.853   2.791  0.00  0.00    -0.259 N 
ATOM     14  O   UNL d   1       2.690  -2.913   3.338  0.00  0.00    -0.241 OA
ATOM     15  HN  UNL d   1       4.442  -4.095   3.114  1.00  0.00     0.195 HD
ATOM     16  C   UNL d   1       1.488  -2.937   2.727  0.00  0.00     0.090 A 
ATOM     17  C   UNL d   1       0.497  -1.998   3.298  0.00  0.00     0.080 C 
BRANCH  12  18
ATOM     18  C   UNL d   1       3.661  -5.318   0.875  0.00  0.00     0.037 C 
ATOM     19  C   UNL d   1       5.008  -4.988   0.533  0.00  0.00     0.048 C 
ATOM     20 CL   UNL d   1       5.831  -3.540   1.043  0.00  0.00    -0.083 Cl
ATOM     21  C   UNL d   1       5.810  -5.832  -0.259  0.00  0.00     0.025 C 
ATOM     22  C   UNL d   1       5.285  -6.990  -0.807  0.00  0.00     0.003 C 
ATOM     23  C   UNL d   1       3.986  -7.348  -0.484  0.00  0.00     0.025 C 
ATOM     24  C   UNL d   1       3.216  -6.569   0.407  0.00  0.00     0.048 C 
ATOM     25 CL   UNL d   1       1.848  -7.406   1.048  0.00  0.00    -0.083 Cl
ENDBRANCH  12  18
ENDBRANCH   8  11
ENDBRANCH   1   7
BRANCH   3  26
ATOM     26  O   UNL d   1      -1.420  -1.862  -1.770  0.00  0.00    -0.306 OA
BRANCH  26  27
ATOM     27  C   UNL d   1      -0.173  -2.300  -2.175  0.00  0.00     0.109 A 
ATOM     28  C   UNL d   1       0.802  -1.340  -2.485  0.00  0.00     0.102 A 
ATOM     29  C   UNL d   1       2.075  -1.760  -2.901  0.00  0.00     0.039 A 
ATOM     30  C   UNL d   1       2.403  -3.113  -2.965  0.00  0.00     0.003 A 
ATOM     31  C   UNL d   1       1.441  -4.066  -2.663  0.00  0.00     0.003 A 
ATOM     32  C   UNL d   1       0.151  -3.663  -2.311  0.00  0.00     0.040 A 
BRANCH  28  33
ATOM     33  O   UNL d   1       0.667   0.022  -2.476  0.00  0.00    -0.353 OA
ATOM     34  C   UNL d   1      -0.177   0.602  -1.493  0.00  0.00     0.210 C 
ENDBRANCH  28  33
ENDBRANCH  26  27
ENDBRANCH   3  26
BRANCH   2  35
ATOM     35  C   UNL d   1      -5.033  -5.345   0.942  0.00  0.00     0.417 C 
ATOM     36  F   UNL d   1      -4.523  -5.987   2.030  0.00  0.00    -0.166 F 
ATOM     37  F   UNL d   1      -6.115  -4.652   1.396  0.00  0.00    -0.166 F 
ATOM     38  F   UNL d   1      -5.531  -6.318   0.130  0.00  0.00    -0.166 F 
ENDBRANCH   2  35
TORSDOF 7
