REMARK  5 active torsions:
REMARK  status: ('A' for Active; 'I' for Inactive)
REMARK    1  A    between atoms: C_9  and  C_3 
REMARK    2  A    between atoms: C_4  and  O_6 
REMARK       I    between atoms: N_13  and  C_4 
REMARK    3  A    between atoms: O_6  and  C_5 
REMARK    4  A    between atoms: C_21  and  C_14 
REMARK    5  A    between atoms: O_20  and  C_21 
ROOT
ATOM      1  N   UNL d   1       1.269   0.548  -0.046  0.00  0.00    -0.322 N 
ATOM      2  HN  UNL d   1       2.211   0.915  -0.180  1.00  0.00     0.169 HD
ATOM      3  C   UNL d   1       0.184   1.349  -0.076  0.00  0.00     0.117 A 
ATOM      4  C   UNL d   1       1.040  -0.765   0.171  0.00  0.00     0.156 A 
ATOM      5  N   UNL d   1      -1.086   0.908   0.005  0.00  0.00    -0.343 N 
ATOM      6  HN  UNL d   1      -1.876   1.545  -0.095  1.00  0.00     0.167 HD
ATOM      7  C   UNL d   1      -0.218  -1.287   0.359  0.00  0.00     0.083 A 
ATOM      8  C   UNL d   1      -1.272  -0.409   0.225  0.00  0.00     0.038 A 
ENDROOT
BRANCH   3   9
ATOM      9  C   UNL d   1       0.370   2.818  -0.111  0.00  0.00     0.010 A 
ATOM     10  C   UNL d   1      -0.735   3.695  -0.135  0.00  0.00     0.039 A 
ATOM     11  C   UNL d   1      -0.579   5.083  -0.045  0.00  0.00     0.041 A 
ATOM     12 CL   UNL d   1      -2.006   6.060  -0.037  0.00  0.00    -0.084 Cl
ATOM     13  C   UNL d   1       0.695   5.652   0.061  0.00  0.00    -0.040 A 
ATOM     14  C   UNL d   1       1.805   4.798   0.039  0.00  0.00     0.009 A 
ATOM     15  C   UNL d   1       0.895   7.133   0.223  0.00  0.00     0.050 C 
ATOM     16  C   UNL d   1       1.644   3.408  -0.049  0.00  0.00     0.016 A 
ENDBRANCH   3   9
BRANCH   4  17
ATOM     17  O   UNL d   1       2.198  -1.585   0.051  0.00  0.00    -0.244 OA
BRANCH  17  18
ATOM     18  C   UNL d   1       2.260  -2.950   0.358  0.00  0.00     0.368 C 
ATOM     19  N   UNL d   1       3.438  -3.564  -0.049  0.00  0.00    -0.336 N 
ATOM     20  C   UNL d   1       3.583  -4.999   0.129  0.00  0.00     0.154 C 
ATOM     21  C   UNL d   1       4.448  -2.907  -0.857  0.00  0.00     0.154 C 
ATOM     22  O   UNL d   1       1.360  -3.566   0.926  0.00  0.00    -0.238 OA
ENDBRANCH  17  18
ENDBRANCH   4  17
BRANCH   8  23
ATOM     23  C   UNL d   1      -2.689  -0.927   0.227  0.00  0.00     0.224 C 
BRANCH  23  24
ATOM     24  O   UNL d   1      -3.036  -1.466   1.502  0.00  0.00    -0.390 OA
ATOM     25  C   UNL d   1      -4.353  -2.005   1.479  0.00  0.00     0.201 C 
ENDBRANCH  23  24
ENDBRANCH   8  23
TORSDOF 5
