REMARK  2 active torsions:
REMARK  status: ('A' for Active; 'I' for Inactive)
REMARK    1  A    between atoms: N_2  and  C_6 
REMARK    2  A    between atoms: C_15  and  C_5 
ROOT
ATOM      1  C   UNL d   1      -0.742  -0.771   0.031  0.00  0.00     0.058 C 
ATOM      2  C   UNL d   1      -0.929   0.741   0.013  0.00  0.00     0.174 C 
ATOM      3  N   UNL d   1       0.637  -1.102   0.072  0.00  0.00    -0.280 NA
ATOM      4  C   UNL d   1      -1.727  -1.679  -0.026  0.00  0.00     0.038 C 
ATOM      5  C   UNL d   1       0.429   1.442  -0.026  0.00  0.00     0.064 C 
ATOM      6  C   UNL d   1       1.366  -0.626  -1.144  0.00  0.00     0.096 C 
ATOM      7  C   UNL d   1       1.326  -0.533   1.271  0.00  0.00     0.096 C 
ATOM      8  O   UNL d   1      -1.997   1.333   0.043  0.00  0.00    -0.291 OA
ATOM      9  C   UNL d   1       1.185   1.004   1.243  0.00  0.00     0.027 C 
ATOM     10  C   UNL d   1       1.169   0.901  -1.268  0.00  0.00     0.027 C 
ENDROOT
BRANCH   4  11
ATOM     11  C   UNL d   1      -3.158  -1.403  -0.122  0.00  0.00    -0.034 A 
ATOM     12  C   UNL d   1      -3.763  -1.290  -1.380  0.00  0.00     0.014 A 
ATOM     13  C   UNL d   1      -5.135  -1.049  -1.485  0.00  0.00     0.037 A 
ATOM     14  C   UNL d   1      -5.903  -0.922  -0.320  0.00  0.00     0.102 A 
ATOM     15  C   UNL d   1      -5.305  -1.025   0.943  0.00  0.00     0.037 A 
ATOM     16  C   UNL d   1      -3.931  -1.265   1.037  0.00  0.00     0.014 A 
BRANCH  14  17
ATOM     17  N   UNL d   1      -7.349  -0.692  -0.424  0.00  0.00    -0.116 N 
ATOM     18  O   UNL d   1      -7.843  -0.624  -1.559  0.00  0.00    -0.532 OA
ATOM     19  O   UNL d   1      -7.996  -0.594   0.629  0.00  0.00    -0.532 OA
ENDBRANCH  14  17
ENDBRANCH   4  11
TORSDOF 2
