REMARK  6 active torsions:
REMARK  status: ('A' for Active; 'I' for Inactive)
REMARK    1  A    between atoms: C_2  and  C_1 
REMARK       I    between atoms: N_6  and  C_2 
REMARK    2  A    between atoms: S_10  and  C_5 
REMARK    3  A    between atoms: C_8  and  N_6 
REMARK    4  A    between atoms: S_13  and  C_9 
REMARK    5  A    between atoms: C_19  and  S_10 
REMARK    6  A    between atoms: C_21  and  S_13 
ROOT
ATOM      1  N   UNL d   1      -0.001  -6.243  -0.679  0.00  0.00    -0.343 N 
ATOM      2  HN  UNL d   1       0.061  -7.058  -1.289  1.00  0.00     0.167 HD
ATOM      3  C   UNL d   1      -1.129  -5.487  -0.630  0.00  0.00     0.102 A 
ATOM      4  C   UNL d   1      -1.257  -4.349   0.178  0.00  0.00     0.069 A 
ATOM      5  C   UNL d   1       1.035  -5.878   0.108  0.00  0.00     0.075 A 
ATOM      6  C   UNL d   1      -0.192  -4.048   1.028  0.00  0.00     0.035 A 
ATOM      7  C   UNL d   1       0.968  -4.817   0.997  0.00  0.00     0.039 A 
ENDROOT
BRANCH   4   8
ATOM      8  N   UNL d   1      -2.419  -3.532   0.134  0.00  0.00    -0.320 N 
ATOM      9  C   UNL d   1      -2.397  -2.170   0.355  0.00  0.00     0.258 C 
ATOM     10  O   UNL d   1      -1.355  -1.526   0.487  0.00  0.00    -0.267 OA
ATOM     11  H   UNL d   1      -3.247  -3.944  -0.287  0.00  0.00     0.169 HD
BRANCH   9  12
ATOM     12  C   UNL d   1      -3.683  -1.407   0.402  0.00  0.00     0.054 A 
ATOM     13  C   UNL d   1      -4.963  -1.940   0.607  0.00  0.00     0.051 A 
ATOM     14  C   UNL d   1      -6.056  -1.083   0.815  0.00  0.00     0.048 A 
ATOM     15 CL   UNL d   1      -5.313  -3.632   0.649  0.00  0.00    -0.083 Cl
ATOM     16  C   UNL d   1      -5.885   0.300   0.799  0.00  0.00     0.035 A 
ATOM     17  C   UNL d   1      -4.637   0.847   0.541  0.00  0.00     0.025 A 
ATOM     18 CL   UNL d   1      -7.218   1.336   1.124  0.00  0.00    -0.084 Cl
ATOM     19  C   UNL d   1      -3.547  -0.002   0.342  0.00  0.00     0.020 A 
ENDBRANCH   9  12
ENDBRANCH   4   8
BRANCH   3  20
ATOM     20  S   UNL d   1      -2.421  -5.989  -1.757  0.00  0.00    -0.070 SA
BRANCH  20  21
ATOM     21  C   UNL d   1      -2.130  -4.962  -3.193  0.00  0.00     0.007 A 
ATOM     22  C   UNL d   1      -0.889  -4.397  -3.508  0.00  0.00     0.019 A 
ATOM     23  C   UNL d   1      -0.733  -3.610  -4.653  0.00  0.00     0.001 A 
ATOM     24  C   UNL d   1      -1.814  -3.389  -5.501  0.00  0.00     0.000 A 
ATOM     25  C   UNL d   1      -3.053  -3.955  -5.207  0.00  0.00     0.001 A 
ATOM     26  C   UNL d   1      -3.206  -4.737  -4.061  0.00  0.00     0.019 A 
ENDBRANCH  20  21
ENDBRANCH   3  20
BRANCH   5  27
ATOM     27  S   UNL d   1       2.543  -6.816  -0.041  0.00  0.00    -0.073 SA
BRANCH  27  28
ATOM     28  C   UNL d   1       3.391  -5.887  -1.312  0.00  0.00     0.007 A 
ATOM     29  C   UNL d   1       4.638  -5.315  -1.039  0.00  0.00     0.019 A 
ATOM     30  C   UNL d   1       5.328  -4.611  -2.031  0.00  0.00     0.001 A 
ATOM     31  C   UNL d   1       4.777  -4.476  -3.304  0.00  0.00     0.000 A 
ATOM     32  C   UNL d   1       3.539  -5.051  -3.589  0.00  0.00     0.001 A 
ATOM     33  C   UNL d   1       2.853  -5.760  -2.599  0.00  0.00     0.019 A 
ENDBRANCH  27  28
ENDBRANCH   5  27
TORSDOF 6
