REMARK  8 active torsions:
REMARK  status: ('A' for Active; 'I' for Inactive)
REMARK    1  A    between atoms: C_4  and  C_1 
REMARK    2  A    between atoms: C_2  and  C_5 
REMARK    3  A    between atoms: C_3  and  C_21 
REMARK    4  A    between atoms: C_6  and  N_12 
REMARK    5  A    between atoms: N_20  and  C_6 
REMARK    6  A    between atoms: O_29  and  C_8 
REMARK    7  A    between atoms: N_12  and  C_10 
REMARK    8  A    between atoms: N_13  and  N_20 
ROOT
ATOM      1  C   UNL d   1      -2.662  -3.331  -4.192  0.00  0.00     0.191 C 
ATOM      2  S   UNL d   1      -2.348  -4.965  -4.100  0.00  0.00    -0.039 SA
ENDROOT
BRANCH   1   3
ATOM      3  N   UNL d   1      -1.978  -2.298  -3.585  0.00  0.00    -0.332 N 
ATOM      4  H   UNL d   1      -2.576  -1.481  -3.486  0.00  0.00     0.168 HD
BRANCH   3   5
ATOM      5  C   UNL d   1      -0.626  -2.136  -3.250  0.00  0.00     0.035 A 
ATOM      6  C   UNL d   1       0.405  -2.847  -3.864  0.00  0.00     0.045 A 
ATOM      7  C   UNL d   1       1.751  -2.527  -3.606  0.00  0.00     0.050 A 
ATOM      8  C   UNL d   1       2.049  -1.500  -2.697  0.00  0.00     0.032 A 
ATOM      9  C   UNL d   1       1.025  -0.781  -2.064  0.00  0.00     0.050 A 
ATOM     10  C   UNL d   1      -0.309  -1.105  -2.358  0.00  0.00     0.045 A 
BRANCH   7  11
ATOM     11  C   UNL d   1       2.850  -3.258  -4.341  0.00  0.00     0.417 C 
ATOM     12  F   UNL d   1       4.099  -2.819  -4.015  0.00  0.00    -0.166 F 
ATOM     13  F   UNL d   1       2.753  -3.119  -5.692  0.00  0.00    -0.166 F 
ATOM     14  F   UNL d   1       2.850  -4.595  -4.096  0.00  0.00    -0.166 F 
ENDBRANCH   7  11
BRANCH   9  15
ATOM     15  C   UNL d   1       1.333   0.331  -1.090  0.00  0.00     0.417 C 
ATOM     16  F   UNL d   1       2.657   0.642  -1.023  0.00  0.00    -0.166 F 
ATOM     17  F   UNL d   1       0.694   1.490  -1.408  0.00  0.00    -0.166 F 
ATOM     18  F   UNL d   1       0.954   0.029   0.182  0.00  0.00    -0.166 F 
ENDBRANCH   9  15
ENDBRANCH   3   5
ENDBRANCH   1   3
BRANCH   1  19
ATOM     19  N   UNL d   1      -3.753  -2.880  -4.926  0.00  0.00    -0.276 N 
ATOM     20  H   UNL d   1      -4.300  -3.561  -5.443  0.00  0.00     0.189 HD
BRANCH  19  21
ATOM     21  N   UNL d   1      -3.774  -1.565  -5.287  0.00  0.00    -0.309 N 
ATOM     22  C   UNL d   1      -4.591  -1.209  -6.226  0.00  0.00     0.121 C 
ATOM     23  HN  UNL d   1      -3.166  -0.885  -4.831  1.00  0.00     0.186 HD
BRANCH  22  24
ATOM     24  C   UNL d   1      -4.517   0.178  -6.738  0.00  0.00     0.017 A 
ATOM     25  C   UNL d   1      -5.475   0.690  -7.614  0.00  0.00     0.099 A 
ATOM     26  C   UNL d   1      -5.359   2.013  -8.061  0.00  0.00     0.069 A 
ATOM     27 CL   UNL d   1      -6.543   2.676  -9.129  0.00  0.00    -0.081 Cl
ATOM     28  C   UNL d   1      -4.295   2.817  -7.653  0.00  0.00     0.050 A 
ATOM     29  C   UNL d   1      -3.332   2.290  -6.799  0.00  0.00     0.036 A 
ATOM     30  C   UNL d   1      -3.435   0.979  -6.344  0.00  0.00     0.039 A 
ATOM     31 CL   UNL d   1      -2.002   3.259  -6.298  0.00  0.00    -0.084 Cl
BRANCH  25  32
ATOM     32  O   UNL d   1      -6.514  -0.102  -8.025  0.00  0.00    -0.358 OA
ATOM     33  H   UNL d   1      -7.067   0.426  -8.633  0.00  0.00     0.217 HD
ENDBRANCH  25  32
ENDBRANCH  22  24
ENDBRANCH  19  21
ENDBRANCH   1  19
TORSDOF 8
