REMARK  8 active torsions:
REMARK  status: ('A' for Active; 'I' for Inactive)
REMARK    1  A    between atoms: C_3  and  C_1 
REMARK    2  A    between atoms: C_4  and  C_1 
REMARK    3  A    between atoms: N_7  and  C_2 
REMARK    4  A    between atoms: O_15  and  C_3 
REMARK    5  A    between atoms: O_14  and  C_4 
REMARK    6  A    between atoms: C_11  and  N_7 
REMARK    7  A    between atoms: C_18  and  O_14 
REMARK    8  A    between atoms: C_19  and  O_15 
ROOT
ATOM      1  C   UNL d   1       1.137   0.010  -0.081  0.00  0.00     0.129 C 
ATOM      2  C   UNL d   1       0.506  -1.105   0.342  0.00  0.00     0.112 C 
ENDROOT
BRANCH   1   3
ATOM      3  C   UNL d   1       0.361   1.193  -0.529  0.00  0.00     0.300 C 
ATOM      4  O   UNL d   1       0.794   2.336  -0.512  0.00  0.00    -0.259 OA
BRANCH   3   5
ATOM      5  O   UNL d   1      -0.918   0.857  -0.847  0.00  0.00    -0.318 OA
BRANCH   5   6
ATOM      6  C   UNL d   1      -1.833   1.958  -0.947  0.00  0.00     0.174 C 
ATOM      7  C   UNL d   1      -2.340   2.304   0.443  0.00  0.00     0.034 C 
ENDBRANCH   5   6
ENDBRANCH   3   5
ENDBRANCH   1   3
BRANCH   1   8
ATOM      8  C   UNL d   1       2.606   0.096   0.078  0.00  0.00     0.300 C 
ATOM      9  O   UNL d   1       3.243  -0.563   0.892  0.00  0.00    -0.259 OA
BRANCH   8  10
ATOM     10  O   UNL d   1       3.130   0.991  -0.792  0.00  0.00    -0.318 OA
BRANCH  10  11
ATOM     11  C   UNL d   1       4.473   1.414  -0.520  0.00  0.00     0.174 C 
ATOM     12  C   UNL d   1       4.431   2.568   0.467  0.00  0.00     0.034 C 
ENDBRANCH  10  11
ENDBRANCH   8  10
ENDBRANCH   1   8
BRANCH   2  13
ATOM     13  N   UNL d   1       1.047  -2.225   0.937  0.00  0.00    -0.365 N 
ATOM     14  H   UNL d   1       2.031  -2.129   1.208  0.00  0.00     0.165 HD
BRANCH  13  15
ATOM     15  C   UNL d   1       0.360  -3.308   1.512  0.00  0.00     0.033 A 
ATOM     16  C   UNL d   1       0.947  -3.983   2.594  0.00  0.00     0.056 A 
ATOM     17  C   UNL d   1       0.280  -5.035   3.226  0.00  0.00     0.074 A 
ATOM     18 CL   UNL d   1       1.024  -5.827   4.562  0.00  0.00    -0.081 Cl
ATOM     19  C   UNL d   1      -0.978  -5.426   2.780  0.00  0.00     0.138 A 
ATOM     20  C   UNL d   1      -1.578  -4.772   1.712  0.00  0.00     0.046 A 
ATOM     21  F   UNL d   1      -1.635  -6.435   3.371  0.00  0.00    -0.204 F 
ATOM     22  C   UNL d   1      -0.914  -3.713   1.086  0.00  0.00     0.032 A 
ENDBRANCH  13  15
ENDBRANCH   2  13
TORSDOF 8
