REMARK  7 active torsions:
REMARK  status: ('A' for Active; 'I' for Inactive)
REMARK    1  A    between atoms: C_3  and  C_1 
REMARK    2  A    between atoms: N_4  and  C_2 
REMARK       I    between atoms: C_8  and  N_4 
REMARK    3  A    between atoms: O_10  and  C_6 
REMARK    4  A    between atoms: C_19  and  C_8 
REMARK    5  A    between atoms: C_21  and  O_10 
REMARK    6  A    between atoms: S_11  and  C_19 
REMARK    7  A    between atoms: C_15  and  S_11 
ROOT
ATOM      1  N   UNL d   1      -6.974  -6.862   3.525  0.00  0.00    -0.191 NA
ATOM      2  C   UNL d   1      -5.895  -6.574   3.206  0.00  0.00     0.099 C 
ATOM      3  C   UNL d   1      -4.562  -6.204   2.829  0.00  0.00     0.044 A 
ATOM      4  C   UNL d   1      -1.948  -5.418   2.161  0.00  0.00     0.076 A 
ATOM      5  C   UNL d   1      -3.045  -4.761   1.598  0.00  0.00     0.039 A 
ATOM      6  C   UNL d   1      -2.165  -6.510   3.008  0.00  0.00     0.039 A 
ATOM      7  C   UNL d   1      -4.347  -5.134   1.953  0.00  0.00     0.025 A 
ATOM      8  C   UNL d   1      -3.465  -6.903   3.341  0.00  0.00     0.025 A 
ENDROOT
BRANCH   4   9
ATOM      9  O   UNL d   1      -0.623  -5.086   1.967  0.00  0.00    -0.309 OA
BRANCH   9  10
ATOM     10  C   UNL d   1      -0.268  -3.848   1.474  0.00  0.00     0.102 A 
ATOM     11  C   UNL d   1       0.639  -3.871   0.407  0.00  0.00     0.040 A 
ATOM     12  C   UNL d   1       1.105  -2.679  -0.153  0.00  0.00     0.019 A 
ATOM     13  C   UNL d   1       0.669  -1.445   0.347  0.00  0.00     0.050 A 
ATOM     14  C   UNL d   1      -0.229  -1.431   1.425  0.00  0.00     0.048 A 
ATOM     15  C   UNL d   1      -0.685  -2.617   2.013  0.00  0.00     0.069 A 
BRANCH  13  16
ATOM     16  C   UNL d   1       1.187  -0.150  -0.231  0.00  0.00     0.417 C 
ATOM     17  F   UNL d   1       0.647   0.963   0.339  0.00  0.00    -0.166 F 
ATOM     18  F   UNL d   1       0.941  -0.040  -1.566  0.00  0.00    -0.166 F 
ATOM     19  F   UNL d   1       2.535  -0.023  -0.087  0.00  0.00    -0.166 F 
ENDBRANCH  13  16
BRANCH  15  20
ATOM     20  N   UNL d   1      -1.506  -2.590   3.158  0.00  0.00    -0.324 N 
ATOM     21  C   UNL d   1      -2.295  -1.538   3.587  0.00  0.00     0.231 C 
ATOM     22  O   UNL d   1      -2.477  -0.486   2.978  0.00  0.00    -0.272 OA
ATOM     23  H   UNL d   1      -1.579  -3.455   3.684  0.00  0.00     0.169 HD
BRANCH  21  24
ATOM     24  C   UNL d   1      -3.072  -1.837   4.856  0.00  0.00     0.177 C 
BRANCH  24  25
ATOM     25  S   UNL d   1      -1.946  -2.375   6.185  0.00  0.00    -0.151 SA
BRANCH  25  26
ATOM     26  C   UNL d   1      -3.097  -2.481   7.625  0.00  0.00    -0.003 C 
ATOM     27  C   UNL d   1      -4.105  -3.614   7.404  0.00  0.00     0.026 C 
ATOM     28  C   UNL d   1      -2.224  -2.802   8.848  0.00  0.00     0.026 C 
ATOM     29  C   UNL d   1      -3.821  -1.151   7.867  0.00  0.00     0.026 C 
ENDBRANCH  25  26
ENDBRANCH  24  25
ENDBRANCH  21  24
ENDBRANCH  15  20
ENDBRANCH   9  10
ENDBRANCH   4   9
TORSDOF 7
