REMARK  2 active torsions:
REMARK  status: ('A' for Active; 'I' for Inactive)
REMARK       I    between atoms: N_2  and  C_1 
REMARK    1  A    between atoms: C_4  and  C_1 
REMARK       I    between atoms: C_3  and  N_2 
REMARK       I    between atoms: N_5  and  C_3 
REMARK    2  A    between atoms: C_6  and  N_5 
ROOT
ATOM      1  C   UNL d   1       0.402   0.714   0.279  0.00  0.00     0.262 C 
ATOM      2  N   UNL d   1       0.243  -0.317   1.189  0.00  0.00    -0.275 N 
ATOM      3  C   UNL d   1       0.954  -0.562   2.341  0.00  0.00     0.323 C 
ATOM      4  N   UNL d   1       1.876   0.387   2.686  0.00  0.00    -0.338 N 
ATOM      5  O   UNL d   1       1.151   1.672   0.470  0.00  0.00    -0.267 OA
ATOM      6  O   UNL d   1       0.747  -1.594   2.976  0.00  0.00    -0.247 OA
ATOM      7  H   UNL d   1      -0.408  -1.064   0.983  0.00  0.00     0.173 HD
ATOM      8  H   UNL d   1       1.924   1.210   2.088  0.00  0.00     0.164 HD
ENDROOT
BRANCH   1   9
ATOM      9  C   UNL d   1      -0.387   0.640  -0.983  0.00  0.00     0.070 A 
ATOM     10  C   UNL d   1      -1.352  -0.341  -1.218  0.00  0.00     0.132 A 
ATOM     11  F   UNL d   1      -1.635  -1.266  -0.288  0.00  0.00    -0.205 F 
ATOM     12  C   UNL d   1      -2.048  -0.393  -2.425  0.00  0.00     0.043 A 
ATOM     13  C   UNL d   1      -1.782   0.546  -3.420  0.00  0.00     0.003 A 
ATOM     14  C   UNL d   1      -0.828   1.539  -3.200  0.00  0.00     0.001 A 
ATOM     15  C   UNL d   1      -0.135   1.588  -1.986  0.00  0.00     0.020 A 
ENDBRANCH   1   9
BRANCH   4  16
ATOM     16  C   UNL d   1       2.655   0.344   3.878  0.00  0.00     0.086 A 
ATOM     17  C   UNL d   1       2.517   1.438   4.901  0.00  0.00     0.027 A 
ATOM     18  C   UNL d   1       3.777   1.322   4.095  0.00  0.00     0.027 A 
ENDBRANCH   4  16
TORSDOF 2
