REMARK  12 active torsions:
REMARK  status: ('A' for Active; 'I' for Inactive)
REMARK    1  A    between atoms: N_3  and  C_1 
REMARK    2  A    between atoms: N_4  and  C_1 
REMARK    3  A    between atoms: O_14  and  C_2 
REMARK    4  A    between atoms: C_9  and  N_3 
REMARK    5  A    between atoms: C_19  and  N_3 
REMARK    6  A    between atoms: C_12  and  N_4 
REMARK    7  A    between atoms: O_16  and  C_5 
REMARK    8  A    between atoms: O_17  and  C_6 
REMARK    9  A    between atoms: C_7  and  C_9 
REMARK   10  A    between atoms: C_20  and  C_19 
REMARK   11  A    between atoms: C_24  and  C_20 
REMARK   12  A    between atoms: O_21  and  C_24 
ROOT
ATOM      1  N   UNL d   1       0.600  -0.380   1.195  0.00  0.00    -0.354 N 
ENDROOT
BRANCH   1   2
ATOM      2  C   UNL d   1       1.474  -0.084   0.102  0.00  0.00     0.174 C 
ATOM      3  S   UNL d   1       3.126  -0.430   0.187  0.00  0.00    -0.041 SA
BRANCH   2   4
ATOM      4  N   UNL d   1       0.847   0.496  -1.007  0.00  0.00    -0.333 N 
ATOM      5  H   UNL d   1      -0.154   0.553  -0.951  0.00  0.00     0.168 HD
BRANCH   4   6
ATOM      6  C   UNL d   1       1.326   1.042  -2.242  0.00  0.00     0.035 A 
ATOM      7  C   UNL d   1       2.663   1.176  -2.632  0.00  0.00     0.053 A 
ATOM      8  C   UNL d   1       3.003   1.762  -3.856  0.00  0.00     0.036 A 
ATOM      9 CL   UNL d   1       4.668   1.911  -4.298  0.00  0.00    -0.084 Cl
ATOM     10  C   UNL d   1       2.028   2.227  -4.725  0.00  0.00     0.024 A 
ATOM     11  C   UNL d   1       0.691   2.102  -4.364  0.00  0.00     0.004 A 
ATOM     12  C   UNL d   1       0.348   1.515  -3.138  0.00  0.00     0.029 A 
ENDBRANCH   4   6
ENDBRANCH   2   4
ENDBRANCH   1   2
BRANCH   1  13
ATOM     13  C   UNL d   1      -0.860  -0.139   1.247  0.00  0.00     0.164 C 
BRANCH  13  14
ATOM     14  C   UNL d   1      -1.244   1.078   2.069  0.00  0.00    -0.035 A 
ATOM     15  C   UNL d   1      -0.579   2.293   1.904  0.00  0.00     0.048 A 
ATOM     16  C   UNL d   1      -0.946   3.431   2.630  0.00  0.00     0.104 A 
ATOM     17  C   UNL d   1      -2.040   3.392   3.517  0.00  0.00     0.135 A 
ATOM     18  C   UNL d   1      -2.722   2.167   3.699  0.00  0.00     0.104 A 
ATOM     19  C   UNL d   1      -2.305   1.024   2.989  0.00  0.00     0.048 A 
BRANCH  16  20
ATOM     20  O   UNL d   1      -0.172   4.524   2.323  0.00  0.00    -0.353 OA
ATOM     21  C   UNL d   1       0.053   5.462   3.368  0.00  0.00     0.210 C 
ENDBRANCH  16  20
BRANCH  17  22
ATOM     22  O   UNL d   1      -2.429   4.603   4.032  0.00  0.00    -0.351 OA
ATOM     23  C   UNL d   1      -3.103   4.648   5.282  0.00  0.00     0.210 C 
ENDBRANCH  17  22
BRANCH  18  24
ATOM     24  O   UNL d   1      -3.780   2.145   4.570  0.00  0.00    -0.353 OA
ATOM     25  C   UNL d   1      -4.734   1.098   4.446  0.00  0.00     0.210 C 
ENDBRANCH  18  24
ENDBRANCH  13  14
ENDBRANCH   1  13
BRANCH   1  26
ATOM     26  C   UNL d   1       1.132  -0.916   2.480  0.00  0.00     0.127 C 
BRANCH  26  27
ATOM     27  C   UNL d   1       0.917  -2.427   2.634  0.00  0.00     0.046 C 
BRANCH  27  28
ATOM     28  C   UNL d   1       1.619  -2.953   3.883  0.00  0.00     0.168 C 
BRANCH  28  29
ATOM     29  O   UNL d   1       1.133  -2.240   5.021  0.00  0.00    -0.396 OA
ATOM     30  C   UNL d   1       1.829  -2.597   6.208  0.00  0.00     0.201 C 
ENDBRANCH  28  29
ENDBRANCH  27  28
ENDBRANCH  26  27
ENDBRANCH   1  26
TORSDOF 12
