REMARK  6 active torsions:
REMARK  status: ('A' for Active; 'I' for Inactive)
REMARK    1  A    between atoms: C_8  and  S_1 
REMARK    2  A    between atoms: N_12  and  S_1 
REMARK    3  A    between atoms: S_2  and  C_9 
REMARK    4  A    between atoms: N_13  and  S_2 
REMARK    5  A    between atoms: C_23  and  N_12 
REMARK    6  A    between atoms: C_24  and  N_13 
ROOT
ATOM      1  C   UNL d   1       0.381  -3.231  -2.525  0.00  0.00     0.027 A 
ATOM      2  C   UNL d   1       0.158  -4.917  -4.180  0.00  0.00     0.027 A 
ATOM      3  C   UNL d   1       0.445  -4.692  -2.746  0.00  0.00     0.194 A 
ATOM      4  C   UNL d   1      -0.090  -3.663  -4.765  0.00  0.00    -0.011 A 
ATOM      5  C   UNL d   1       0.029  -2.634  -3.751  0.00  0.00    -0.011 A 
ATOM      6  C   UNL d   1       0.568  -1.121  -1.480  0.00  0.00     0.080 A 
ATOM      7  C   UNL d   1      -0.116  -6.010  -6.257  0.00  0.00     0.080 A 
ATOM      8  C   UNL d   1       0.653  -2.510  -1.376  0.00  0.00     0.041 A 
ATOM      9  C   UNL d   1       0.156  -6.103  -4.889  0.00  0.00     0.041 A 
ATOM     10  C   UNL d   1      -0.339  -3.578  -6.125  0.00  0.00     0.015 A 
ATOM     11  C   UNL d   1      -0.115  -1.260  -3.828  0.00  0.00     0.015 A 
ATOM     12  O   UNL d   1       0.691  -5.541  -1.917  0.00  0.00    -0.287 OA
ATOM     13  C   UNL d   1      -0.342  -4.762  -6.878  0.00  0.00     0.026 A 
ATOM     14  C   UNL d   1       0.150  -0.499  -2.680  0.00  0.00     0.026 A 
ENDROOT
BRANCH   6  15
ATOM     15  S   UNL d   1       0.994  -0.099  -0.087  0.00  0.00     0.263 S 
ATOM     16  O   UNL d   1       0.860  -0.910   1.104  0.00  0.00    -0.200 OA
ATOM     17  O   UNL d   1       0.278   1.154  -0.221  0.00  0.00    -0.200 OA
BRANCH  15  18
ATOM     18  N   UNL d   1       2.633   0.179  -0.286  0.00  0.00    -0.281 N 
ATOM     19  H   UNL d   1       3.265  -0.289   0.360  0.00  0.00     0.179 HD
BRANCH  18  20
ATOM     20  C   UNL d   1       3.142   0.827  -1.435  0.00  0.00     0.042 A 
ATOM     21  C   UNL d   1       3.262   2.215  -1.456  0.00  0.00     0.030 A 
ATOM     22  C   UNL d   1       3.805   2.848  -2.578  0.00  0.00     0.002 A 
ATOM     23  C   UNL d   1       4.217   2.092  -3.676  0.00  0.00     0.000 A 
ATOM     24  C   UNL d   1       4.101   0.702  -3.650  0.00  0.00     0.002 A 
ATOM     25  C   UNL d   1       3.576   0.069  -2.522  0.00  0.00     0.030 A 
ENDBRANCH  18  20
ENDBRANCH  15  18
ENDBRANCH   6  15
BRANCH   7  26
ATOM     26  S   UNL d   1      -0.113  -7.492  -7.249  0.00  0.00     0.263 S 
ATOM     27  O   UNL d   1       0.168  -7.112  -8.616  0.00  0.00    -0.200 OA
ATOM     28  O   UNL d   1       0.706  -8.464  -6.555  0.00  0.00    -0.200 OA
BRANCH  26  29
ATOM     29  N   UNL d   1      -1.699  -8.036  -7.126  0.00  0.00    -0.281 N 
ATOM     30  H   UNL d   1      -1.869  -8.619  -6.309  0.00  0.00     0.179 HD
BRANCH  29  31
ATOM     31  C   UNL d   1      -2.769  -7.243  -7.615  0.00  0.00     0.042 A 
ATOM     32  C   UNL d   1      -3.110  -7.301  -8.966  0.00  0.00     0.030 A 
ATOM     33  C   UNL d   1      -4.202  -6.573  -9.438  0.00  0.00     0.002 A 
ATOM     34  C   UNL d   1      -4.934  -5.765  -8.566  0.00  0.00     0.000 A 
ATOM     35  C   UNL d   1      -4.569  -5.681  -7.223  0.00  0.00     0.002 A 
ATOM     36  C   UNL d   1      -3.488  -6.424  -6.744  0.00  0.00     0.030 A 
ENDBRANCH  29  31
ENDBRANCH  26  29
ENDBRANCH   7  26
TORSDOF 6
