REMARK  3 active torsions:
REMARK  status: ('A' for Active; 'I' for Inactive)
REMARK    1  A    between atoms: N_9  and  C_3 
REMARK    2  A    between atoms: N_14  and  C_6 
REMARK    3  A    between atoms: C_10  and  N_9 
ROOT
ATOM      1  N   UNL d   1      -1.583   1.919  -1.054  0.00  0.00    -0.166 N 
ATOM      2  HN  UNL d   1      -0.612   1.613  -0.999  1.00  0.00     0.187 HD
ATOM      3  C   UNL d   1      -2.590   1.175  -0.599  0.00  0.00     0.685 A 
ATOM      4  N   UNL d   1      -3.866   1.545  -0.645  0.00  0.00    -0.188 N 
ATOM      5  HN  UNL d   1      -4.622   0.947  -0.311  1.00  0.00     0.185 HD
ATOM      6  C   UNL d   1      -1.931   3.084  -1.586  0.00  0.00     0.170 A 
ATOM      7  N   UNL d   1      -3.165   3.555  -1.663  0.00  0.00    -0.328 N 
ATOM      8  HN  UNL d   1      -3.388   4.460  -2.076  1.00  0.00     0.169 HD
ATOM      9  C   UNL d   1      -4.084   2.751  -1.157  0.00  0.00     0.200 A 
ENDROOT
BRANCH   3  10
ATOM     10  N   UNL d   1      -2.264  -0.039   0.010  0.00  0.00    -0.191 N 
ATOM     11  H   UNL d   1      -1.270  -0.121   0.156  0.00  0.00     0.184 HD
BRANCH  10  12
ATOM     12  C   UNL d   1      -2.986  -1.249   0.010  0.00  0.00     0.055 A 
ATOM     13  C   UNL d   1      -2.852  -2.168   1.080  0.00  0.00    -0.029 A 
ATOM     14  C   UNL d   1      -3.587  -3.380   1.056  0.00  0.00    -0.054 A 
ATOM     15  C   UNL d   1      -1.968  -1.852   2.262  0.00  0.00     0.051 C 
ATOM     16  C   UNL d   1      -3.512  -4.417   2.146  0.00  0.00     0.049 C 
ATOM     17  C   UNL d   1      -4.452  -3.650  -0.017  0.00  0.00     0.007 A 
ATOM     18  C   UNL d   1      -4.598  -2.740  -1.056  0.00  0.00     0.003 A 
ATOM     19  C   UNL d   1      -3.873  -1.552  -1.037  0.00  0.00     0.030 A 
ENDBRANCH  10  12
ENDBRANCH   3  10
BRANCH   6  20
ATOM     20  N   UNL d   1      -0.935   3.861  -2.144  0.00  0.00    -0.273 NA
ATOM     21  H   UNL d   1      -0.167   3.284  -2.456  0.00  0.00     0.127 HD
ATOM     22  H   UNL d   1      -1.335   4.496  -2.823  0.00  0.00     0.127 HD
ENDBRANCH   6  20
TORSDOF 3
