REMARK  3 active torsions:
REMARK  status: ('A' for Active; 'I' for Inactive)
REMARK    1  A    between atoms: C_4  and  C_1 
REMARK    2  A    between atoms: C_14  and  C_5 
REMARK    3  A    between atoms: C_15  and  C_16 
ROOT
ATOM      1  C   UNL d   1      -0.625   0.562  -0.997  0.00  0.00     0.095 A 
ATOM      2  N   UNL d   1      -0.351  -0.713  -1.172  0.00  0.00    -0.348 N 
ATOM      3  HN  UNL d   1      -0.308  -1.176  -2.080  1.00  0.00     0.166 HD
ATOM      4  C   UNL d   1      -0.129  -1.345   0.049  0.00  0.00     0.056 A 
ATOM      5  S   UNL d   1      -0.662   1.070   0.640  0.00  0.00    -0.074 SA
ATOM      6  C   UNL d   1      -0.305  -0.529   1.159  0.00  0.00     0.008 A 
ATOM      7  C   UNL d   1      -0.259  -0.815   2.622  0.00  0.00     0.059 C 
ENDROOT
BRANCH   4   8
ATOM      8  C   UNL d   1       0.207  -2.769   0.078  0.00  0.00    -0.008 A 
ATOM      9  C   UNL d   1       1.003  -3.326   1.078  0.00  0.00     0.014 A 
ATOM     10  C   UNL d   1       1.275  -4.698   1.108  0.00  0.00     0.013 A 
ATOM     11  C   UNL d   1       0.819  -5.567   0.105  0.00  0.00    -0.023 A 
ATOM     12  C   UNL d   1       0.060  -4.990  -0.928  0.00  0.00     0.013 A 
ATOM     13  C   UNL d   1      -0.250  -3.618  -0.939  0.00  0.00     0.014 A 
BRANCH  11  14
ATOM     14  C   UNL d   1       1.131  -7.018   0.149  0.00  0.00     0.013 A 
ATOM     15  C   UNL d   1       2.325  -7.516   0.708  0.00  0.00     0.127 A 
ATOM     16  F   UNL d   1       3.260  -6.681   1.190  0.00  0.00    -0.205 F 
ATOM     17  C   UNL d   1       2.602  -8.881   0.785  0.00  0.00     0.043 A 
ATOM     18  C   UNL d   1       1.692  -9.800   0.280  0.00  0.00     0.003 A 
ATOM     19  C   UNL d   1       0.507  -9.349  -0.293  0.00  0.00     0.001 A 
ATOM     20  C   UNL d   1       0.229  -7.977  -0.351  0.00  0.00     0.015 A 
ENDBRANCH  11  14
ENDBRANCH   4   8
BRANCH   1  21
ATOM     21  C   UNL d   1      -0.908   1.443  -2.093  0.00  0.00     0.080 A 
ATOM     22  C   UNL d   1      -1.472   1.170  -3.335  0.00  0.00     0.043 A 
ATOM     23  N   UNL d   1      -1.602   2.279  -4.171  0.00  0.00    -0.298 N 
ATOM     24  C   UNL d   1      -1.971  -0.124  -3.866  0.00  0.00     0.071 C 
ATOM     25  N   UNL d   1      -1.149   3.383  -3.607  0.00  0.00    -0.269 N 
ATOM     26  HN  UNL d   1      -2.001   2.241  -5.109  1.00  0.00     0.187 HD
ATOM     27  S   UNL d   1      -0.555   3.127  -2.072  0.00  0.00     0.006 SA
ATOM     28  HN  UNL d   1      -1.161   4.296  -4.063  1.00  0.00     0.195 HD
ENDBRANCH   1  21
TORSDOF 3
