REMARK  5 active torsions:
REMARK  status: ('A' for Active; 'I' for Inactive)
REMARK    1  A    between atoms: S_2  and  N_1 
REMARK    2  A    between atoms: C_11  and  S_2 
REMARK    3  A    between atoms: O_13  and  C_3 
REMARK    4  A    between atoms: C_8  and  C_6 
REMARK    5  A    between atoms: C_12  and  C_8 
ROOT
ATOM      1  N   UNL d   1      -0.147  -1.240   0.065  0.00  0.00    -0.153 N 
ATOM      2  C   UNL d   1       1.180  -0.835   0.161  0.00  0.00     0.181 C 
ATOM      3  N   UNL d   1      -1.013  -0.188   0.063  0.00  0.00    -0.286 N 
ATOM      4  HN  UNL d   1      -2.032  -0.215   0.099  1.00  0.00     0.188 HD
ATOM      5  C   UNL d   1       1.158   0.545   0.064  0.00  0.00     0.023 C 
ATOM      6  C   UNL d   1      -0.222   0.888   0.003  0.00  0.00     0.034 C 
ATOM      7  C   UNL d   1      -0.818   2.245  -0.110  0.00  0.00     0.070 C 
ENDROOT
BRANCH   1   8
ATOM      8  S   UNL d   1      -0.613  -2.905   0.043  0.00  0.00     0.284 S 
ATOM      9  O   UNL d   1      -1.784  -2.998  -0.810  0.00  0.00    -0.198 OA
ATOM     10  O   UNL d   1       0.619  -3.624  -0.261  0.00  0.00    -0.198 OA
BRANCH   8  11
ATOM     11  C   UNL d   1      -1.091  -3.341   1.689  0.00  0.00     0.081 A 
ATOM     12  C   UNL d   1      -1.682  -2.422   2.556  0.00  0.00     0.025 A 
ATOM     13  C   UNL d   1      -2.039  -2.831   3.845  0.00  0.00     0.002 A 
ATOM     14  C   UNL d   1      -1.814  -4.145   4.256  0.00  0.00     0.000 A 
ATOM     15  C   UNL d   1      -1.237  -5.065   3.381  0.00  0.00     0.002 A 
ATOM     16  C   UNL d   1      -0.876  -4.665   2.096  0.00  0.00     0.025 A 
ENDBRANCH   8  11
ENDBRANCH   1   8
BRANCH   2  17
ATOM     17  O   UNL d   1       2.241  -1.639   0.268  0.00  0.00    -0.344 OA
ATOM     18  H   UNL d   1       2.000  -2.570   0.058  0.00  0.00     0.219 HD
ENDBRANCH   2  17
BRANCH   5  19
ATOM     19  C   UNL d   1       2.336   1.470   0.031  0.00  0.00     0.078 C 
BRANCH  19  20
ATOM     20  C   UNL d   1       2.984   1.681  -1.329  0.00  0.00    -0.089 C 
ATOM     21  C   UNL d   1       2.632   1.075  -2.477  0.00  0.00     0.014 C 
ATOM     22  C   UNL d   1       4.130   2.660  -1.333  0.00  0.00     0.043 C 
ENDBRANCH  19  20
ENDBRANCH   5  19
TORSDOF 5
