REMARK  5 active torsions:
REMARK  status: ('A' for Active; 'I' for Inactive)
REMARK    1  A    between atoms: S_8  and  C_1 
REMARK    2  A    between atoms: N_11  and  C_1 
REMARK    3  A    between atoms: N_4  and  N_2 
REMARK    4  A    between atoms: N_7  and  C_6 
REMARK    5  A    between atoms: C_13  and  C_12 
ROOT
ATOM      1  N   UNL d   1      -0.601  -3.435   0.516  0.00  0.00    -0.309 N 
ATOM      2  HN  UNL d   1      -1.014  -4.339   0.287  1.00  0.00     0.186 HD
ATOM      3  C   UNL d   1       0.444  -3.278   1.266  0.00  0.00     0.118 C 
ENDROOT
BRANCH   1   4
ATOM      4  N   UNL d   1      -1.091  -2.203   0.058  0.00  0.00    -0.285 N 
ATOM      5  C   UNL d   1      -2.044  -2.350  -0.808  0.00  0.00     0.130 C 
ATOM      6  HN  UNL d   1      -0.739  -1.298   0.370  1.00  0.00     0.188 HD
BRANCH   5   7
ATOM      7  S   UNL d   1      -2.873  -0.977  -1.502  0.00  0.00    -0.103 SA
ATOM      8  C   UNL d   1      -1.894   0.385  -0.843  0.00  0.00     0.098 C 
ENDBRANCH   5   7
BRANCH   5   9
ATOM      9  N   UNL d   1      -2.529  -3.550  -1.242  0.00  0.00    -0.282 NA
ATOM     10  H   UNL d   1      -2.221  -4.279  -0.605  0.00  0.00     0.126 HD
ATOM     11  H   UNL d   1      -3.522  -3.541  -1.427  0.00  0.00     0.126 HD
ENDBRANCH   5   9
ENDBRANCH   1   4
BRANCH   3  12
ATOM     12  C   UNL d   1       1.164  -4.427   1.845  0.00  0.00    -0.019 A 
ATOM     13  C   UNL d   1       0.767  -5.734   1.572  0.00  0.00     0.015 A 
ATOM     14  C   UNL d   1       1.495  -6.813   2.095  0.00  0.00     0.030 A 
ATOM     15  C   UNL d   1       2.629  -6.625   2.902  0.00  0.00     0.029 A 
ATOM     16  C   UNL d   1       2.996  -5.290   3.162  0.00  0.00     0.030 A 
ATOM     17  C   UNL d   1       2.277  -4.201   2.649  0.00  0.00     0.015 A 
BRANCH  15  18
ATOM     18  N   UNL d   1       3.416  -7.683   3.364  0.00  0.00    -0.390 N 
ATOM     19  C   UNL d   1       3.863  -7.651   4.758  0.00  0.00     0.149 C 
ATOM     20  C   UNL d   1       3.179  -9.029   2.844  0.00  0.00     0.149 C 
ENDBRANCH  15  18
ENDBRANCH   3  12
TORSDOF 5
