REMARK  4 active torsions:
REMARK  status: ('A' for Active; 'I' for Inactive)
REMARK    1  A    between atoms: C_12  and  C_1 
REMARK    2  A    between atoms: C_4  and  C_2 
REMARK    3  A    between atoms: C_15  and  N_3 
REMARK    4  A    between atoms: C_16  and  C_13 
ROOT
ATOM      1  C   UNL d   1       1.033  -0.913  -0.000  0.00  0.00     0.156 A 
ATOM      2  C   UNL d   1      -0.301  -1.292  -0.010  0.00  0.00     0.067 A 
ATOM      3  N   UNL d   1       1.036   0.476  -0.031  0.00  0.00    -0.251 N 
ATOM      4  N   UNL d   1      -0.233   0.957  -0.176  0.00  0.00    -0.303 N 
ATOM      5  HN  UNL d   1      -0.512   1.930  -0.304  1.00  0.00     0.186 HD
ATOM      6  C   UNL d   1      -1.028  -0.106  -0.116  0.00  0.00     0.126 A 
ENDROOT
BRANCH   2   7
ATOM      7  C   UNL d   1      -0.868  -2.663   0.029  0.00  0.00     0.178 A 
ATOM      8  O   UNL d   1      -0.114  -3.792   0.180  0.00  0.00    -0.272 OA
ATOM      9  C   UNL d   1      -1.040  -4.791   0.106  0.00  0.00     0.174 A 
ATOM     10  N   UNL d   1      -2.264  -4.327  -0.042  0.00  0.00    -0.277 N 
ATOM     11  N   UNL d   1      -2.150  -2.946  -0.087  0.00  0.00    -0.277 N 
ATOM     12  HN  UNL d   1      -3.122  -4.874  -0.110  1.00  0.00     0.189 HD
ATOM     13  HN  UNL d   1      -2.913  -2.277  -0.190  1.00  0.00     0.189 HD
BRANCH   9  14
ATOM     14  C   UNL d   1      -0.533  -6.152   0.217  0.00  0.00     0.017 A 
ATOM     15  C   UNL d   1       0.845  -6.408   0.336  0.00  0.00     0.017 A 
ATOM     16  C   UNL d   1       1.324  -7.714   0.473  0.00  0.00     0.025 A 
ATOM     17  C   UNL d   1       0.428  -8.779   0.488  0.00  0.00     0.034 A 
ATOM     18  C   UNL d   1      -0.940  -8.548   0.354  0.00  0.00     0.025 A 
ATOM     19 CL   UNL d   1       1.014 -10.384   0.676  0.00  0.00    -0.084 Cl
ATOM     20  C   UNL d   1      -1.419  -7.240   0.218  0.00  0.00     0.017 A 
ENDBRANCH   9  14
ENDBRANCH   2   7
BRANCH   1  21
ATOM     21  C   UNL d   1       2.258  -1.724  -0.040  0.00  0.00     0.435 C 
ATOM     22  F   UNL d   1       2.058  -2.982  -0.503  0.00  0.00    -0.165 F 
ATOM     23  F   UNL d   1       3.209  -1.199  -0.851  0.00  0.00    -0.165 F 
ATOM     24  F   UNL d   1       2.804  -1.858   1.194  0.00  0.00    -0.165 F 
ENDBRANCH   1  21
BRANCH   3  25
ATOM     25  C   UNL d   1       2.105   1.431   0.041  0.00  0.00     0.057 A 
ATOM     26  C   UNL d   1       1.874   2.731  -0.450  0.00  0.00     0.033 A 
ATOM     27  C   UNL d   1       2.890   3.693  -0.446  0.00  0.00     0.026 A 
ATOM     28  C   UNL d   1       4.143   3.371   0.065  0.00  0.00     0.034 A 
ATOM     29  C   UNL d   1       4.377   2.103   0.589  0.00  0.00     0.026 A 
ATOM     30 CL   UNL d   1       5.401   4.542   0.059  0.00  0.00    -0.084 Cl
ATOM     31  C   UNL d   1       3.359   1.140   0.589  0.00  0.00     0.033 A 
ENDBRANCH   3  25
TORSDOF 4
