REMARK  8 active torsions:
REMARK  status: ('A' for Active; 'I' for Inactive)
REMARK    1  A    between atoms: C_19  and  N_1 
REMARK    2  A    between atoms: N_2  and  C_20 
REMARK    3  A    between atoms: N_13  and  C_34 
REMARK    4  A    between atoms: C_33  and  N_14 
REMARK    5  A    between atoms: C_23  and  C_19 
REMARK    6  A    between atoms: C_20  and  C_24 
REMARK    7  A    between atoms: C_34  and  C_23 
REMARK    8  A    between atoms: C_24  and  C_33 
ROOT
ATOM      1  N   UNL d   1       6.143  -2.938   0.269  0.00  0.00    -0.409 N 
ATOM      2  N   UNL d   1       6.686  -5.721  -0.405  0.00  0.00     0.091 N 
ATOM      3  C   UNL d   1       6.630  -3.266  -1.062  0.00  0.00     0.147 C 
ATOM      4  C   UNL d   1       6.529  -3.848   1.331  0.00  0.00     0.147 C 
ATOM      5  C   UNL d   1       6.251  -4.723  -1.411  0.00  0.00     0.291 C 
ATOM      6  C   UNL d   1       6.176  -5.300   0.922  0.00  0.00     0.291 C 
ENDROOT
BRANCH   1   7
ATOM      7  C   UNL d   1       5.795  -1.575   0.574  0.00  0.00     0.118 C 
BRANCH   7   8
ATOM      8  C   UNL d   1       4.458  -1.255  -0.111  0.00  0.00     0.040 C 
BRANCH   8   9
ATOM      9  C   UNL d   1       3.381  -2.288   0.255  0.00  0.00     0.137 C 
BRANCH   9  10
ATOM     10  N   UNL d   1       2.139  -2.091  -0.474  0.00  0.00    -0.280 N 
ATOM     11  C   UNL d   1       1.941  -2.828  -1.641  0.00  0.00     0.261 C 
ATOM     12  C   UNL d   1       0.604  -2.740  -2.265  0.00  0.00     0.044 A 
ATOM     13  O   UNL d   1       2.802  -3.531  -2.172  0.00  0.00    -0.267 OA
ATOM     14  C   UNL d   1       0.283  -3.575  -3.344  0.00  0.00     0.018 A 
ATOM     15  C   UNL d   1      -0.331  -1.826  -1.763  0.00  0.00     0.005 A 
ATOM     16  C   UNL d   1      -0.979  -3.501  -3.928  0.00  0.00     0.002 A 
ATOM     17  C   UNL d   1      -1.914  -2.585  -3.447  0.00  0.00     0.012 A 
ATOM     18  C   UNL d   1      -1.604  -1.736  -2.372  0.00  0.00    -0.024 A 
ATOM     19  C   UNL d   1      -2.533  -0.803  -1.885  0.00  0.00     0.012 A 
ATOM     20  C   UNL d   1      -2.217   0.030  -0.811  0.00  0.00     0.002 A 
ATOM     21  C   UNL d   1      -0.971  -0.070  -0.202  0.00  0.00     0.018 A 
ATOM     22  C   UNL d   1      -0.036  -0.999  -0.673  0.00  0.00     0.044 A 
ATOM     23  C   UNL d   1       1.257  -1.131   0.020  0.00  0.00     0.261 C 
ATOM     24  O   UNL d   1       1.504  -0.413   0.989  0.00  0.00    -0.267 OA
ENDBRANCH   9  10
ENDBRANCH   8   9
ENDBRANCH   7   8
ENDBRANCH   1   7
BRANCH   2  25
ATOM     25  C   UNL d   1       8.145  -5.875  -0.438  0.00  0.00     0.274 C 
BRANCH  25  26
ATOM     26  C   UNL d   1       8.658  -6.995   0.462  0.00  0.00     0.050 C 
BRANCH  26  27
ATOM     27  C   UNL d   1       8.024  -8.344   0.118  0.00  0.00     0.137 C 
BRANCH  27  28
ATOM     28  N   UNL d   1       8.518  -9.389   1.005  0.00  0.00    -0.280 N 
ATOM     29  C   UNL d   1       7.782  -9.663   2.158  0.00  0.00     0.261 A 
ATOM     30  C   UNL d   1       8.287 -10.746   3.029  0.00  0.00     0.044 A 
ATOM     31  O   UNL d   1       6.770  -9.051   2.492  0.00  0.00    -0.267 OA
ATOM     32  C   UNL d   1       7.532 -11.147   4.138  0.00  0.00     0.018 A 
ATOM     33  C   UNL d   1       9.517 -11.347   2.742  0.00  0.00     0.005 A 
ATOM     34  C   UNL d   1       8.001 -12.161   4.966  0.00  0.00     0.002 A 
ATOM     35  C   UNL d   1       9.230 -12.765   4.697  0.00  0.00     0.012 A 
ATOM     36  C   UNL d   1      10.002 -12.365   3.595  0.00  0.00    -0.024 A 
ATOM     37  C   UNL d   1      11.249 -12.953   3.325  0.00  0.00     0.012 A 
ATOM     38  C   UNL d   1      12.012 -12.542   2.232  0.00  0.00     0.002 A 
ATOM     39  C   UNL d   1      11.531 -11.549   1.385  0.00  0.00     0.018 A 
ATOM     40  C   UNL d   1      10.284 -10.962   1.636  0.00  0.00     0.044 A 
ATOM     41  C   UNL d   1       9.770  -9.930   0.713  0.00  0.00     0.261 A 
ATOM     42  O   UNL d   1      10.459  -9.586  -0.246  0.00  0.00    -0.267 OA
ENDBRANCH  27  28
ENDBRANCH  26  27
ENDBRANCH  25  26
ENDBRANCH   2  25
TORSDOF 8
