REMARK  3 active torsions:
REMARK  status: ('A' for Active; 'I' for Inactive)
REMARK    1  A    between atoms: S_9  and  C_3 
REMARK    2  A    between atoms: O_10  and  C_4 
REMARK    3  A    between atoms: C_11  and  C_8 
ROOT
ATOM      1  N   UNL d   1      -0.676   1.223  -0.026  0.00  0.00    -0.318 N 
ATOM      2  HN  UNL d   1      -1.195   2.101  -0.030  1.00  0.00     0.170 HD
ATOM      3  C   UNL d   1      -1.278   0.024  -0.021  0.00  0.00     0.143 A 
ATOM      4  C   UNL d   1       0.657   1.170  -0.026  0.00  0.00     0.143 A 
ATOM      5  N   UNL d   1      -0.650  -1.164  -0.010  0.00  0.00    -0.340 N 
ATOM      6  HN  UNL d   1      -1.171  -2.041  -0.009  1.00  0.00     0.167 HD
ATOM      7  C   UNL d   1       1.415   0.030  -0.019  0.00  0.00     0.081 A 
ATOM      8  C   UNL d   1       0.700  -1.147  -0.002  0.00  0.00     0.015 A 
ENDROOT
BRANCH   3   9
ATOM      9  S   UNL d   1      -3.045   0.021  -0.016  0.00  0.00    -0.107 SA
ATOM     10  H   UNL d   1      -3.138   1.355  -0.011  0.00  0.00     0.110 HD
ENDBRANCH   3   9
BRANCH   4  11
ATOM     11  O   UNL d   1       1.264   2.385  -0.026  0.00  0.00    -0.346 OA
ATOM     12  H   UNL d   1       0.492   2.978  -0.018  0.00  0.00     0.219 HD
ENDBRANCH   4  11
BRANCH   8  13
ATOM     13  C   UNL d   1       1.407  -2.477   0.023  0.00  0.00     0.053 C 
ATOM     14  C   UNL d   1       1.690  -3.001  -1.375  0.00  0.00     0.011 C 
ENDBRANCH   8  13
TORSDOF 3
