REMARK  1 active torsions:
REMARK  status: ('A' for Active; 'I' for Inactive)
REMARK    1  A    between atoms: N_12  and  C_3 
ROOT
ATOM      1  N   UNL d   1       0.880  -0.644   0.040  0.00  0.00    -0.278 N 
ATOM      2  C   UNL d   1       1.342   0.640  -0.012  0.00  0.00     0.159 A 
ATOM      3  C   UNL d   1       1.865  -1.637   0.077  0.00  0.00     0.115 A 
ATOM      4  C   UNL d   1       3.097  -1.069   0.042  0.00  0.00     0.127 A 
ATOM      5  N   UNL d   1       0.412   1.552  -0.037  0.00  0.00    -0.334 N 
ATOM      6  HN  UNL d   1       0.517   2.566  -0.070  1.00  0.00     0.168 HD
ATOM      7  S   UNL d   1       3.071   0.702  -0.035  0.00  0.00    -0.039 SA
ATOM      8  C   UNL d   1      -0.494  -0.572   0.030  0.00  0.00     0.069 A 
ATOM      9  C   UNL d   1      -0.751   0.808  -0.008  0.00  0.00     0.061 A 
ATOM     10  C   UNL d   1       4.317  -1.797   0.047  0.00  0.00     0.110 C 
ATOM     11  N   UNL d   1       5.292  -2.427   0.032  0.00  0.00    -0.191 NA
ATOM     12  C   UNL d   1      -1.522  -1.525   0.051  0.00  0.00     0.032 A 
ATOM     13  C   UNL d   1      -2.081   1.258  -0.016  0.00  0.00     0.032 A 
ATOM     14  C   UNL d   1      -2.838  -1.049   0.026  0.00  0.00     0.002 A 
ATOM     15  C   UNL d   1      -3.116   0.317  -0.002  0.00  0.00     0.002 A 
ENDROOT
BRANCH   3  16
ATOM     16  N   UNL d   1       1.534  -2.978   0.144  0.00  0.00    -0.286 NA
ATOM     17  H   UNL d   1       0.661  -3.228  -0.313  0.00  0.00     0.125 HD
ATOM     18  H   UNL d   1       2.287  -3.627  -0.090  0.00  0.00     0.125 HD
ENDBRANCH   3  16
TORSDOF 1
