REMARK  5 active torsions:
REMARK  status: ('A' for Active; 'I' for Inactive)
REMARK    1  A    between atoms: C_5  and  C_1 
REMARK    2  A    between atoms: N_11  and  C_2 
REMARK    3  A    between atoms: C_7  and  C_12 
REMARK    4  A    between atoms: C_8  and  C_13 
REMARK       I    between atoms: C_10  and  N_11 
REMARK       I    between atoms: N_16  and  C_10 
REMARK    5  A    between atoms: C_15  and  N_16 
ROOT
ATOM      1  C   UNL d   1       1.701  -2.816   0.027  0.00  0.00     0.325 C 
ATOM      2  N   UNL d   1       0.432  -2.371   0.200  0.00  0.00    -0.304 N 
ATOM      3  N   UNL d   1       2.663  -1.899  -0.284  0.00  0.00    -0.309 N 
ATOM      4  O   UNL d   1       1.909  -4.016   0.272  0.00  0.00    -0.247 OA
ATOM      5  H   UNL d   1      -0.138  -3.044   0.707  0.00  0.00     0.171 HD
ATOM      6  H   UNL d   1       2.381  -0.929  -0.234  0.00  0.00     0.170 HD
ENDROOT
BRANCH   2   7
ATOM      7  C   UNL d   1      -0.213  -1.213  -0.203  0.00  0.00     0.097 C 
ATOM      8  C   UNL d   1      -1.306  -0.566   0.474  0.00  0.00     0.097 C 
ATOM      9  N   UNL d   1      -1.686   0.527  -0.205  0.00  0.00    -0.258 N 
ATOM     10  O   UNL d   1      -0.994   0.508  -1.388  0.00  0.00    -0.240 OA
ATOM     11  HN  UNL d   1      -2.356   1.233   0.100  1.00  0.00     0.195 HD
ATOM     12  C   UNL d   1      -0.203  -0.596  -1.438  0.00  0.00     0.101 C 
ATOM     13  C   UNL d   1       0.198  -0.971  -2.808  0.00  0.00     0.081 C 
BRANCH   8  14
ATOM     14  C   UNL d   1      -2.045  -0.972   1.673  0.00  0.00     0.038 A 
ATOM     15  C   UNL d   1      -2.298  -0.063   2.719  0.00  0.00     0.048 A 
ATOM     16 CL   UNL d   1      -1.575   1.511   2.801  0.00  0.00    -0.083 Cl
ATOM     17  C   UNL d   1      -3.156  -0.403   3.775  0.00  0.00     0.025 A 
ATOM     18  C   UNL d   1      -3.749  -1.660   3.828  0.00  0.00     0.003 A 
ATOM     19  C   UNL d   1      -3.478  -2.586   2.829  0.00  0.00     0.025 A 
ATOM     20  C   UNL d   1      -2.647  -2.246   1.754  0.00  0.00     0.048 A 
ATOM     21 CL   UNL d   1      -2.487  -3.464   0.530  0.00  0.00    -0.083 Cl
ENDBRANCH   8  14
ENDBRANCH   2   7
BRANCH   3  22
ATOM     22  C   UNL d   1       4.023  -2.161  -0.597  0.00  0.00     0.037 A 
ATOM     23  C   UNL d   1       4.526  -3.453  -0.789  0.00  0.00     0.045 A 
ATOM     24  C   UNL d   1       5.789  -3.663  -1.366  0.00  0.00     0.050 A 
ATOM     25  C   UNL d   1       6.607  -2.561  -1.641  0.00  0.00     0.032 A 
ATOM     26  C   UNL d   1       6.139  -1.257  -1.418  0.00  0.00     0.050 A 
ATOM     27  C   UNL d   1       4.858  -1.071  -0.865  0.00  0.00     0.045 A 
BRANCH  24  28
ATOM     28  C   UNL d   1       6.171  -5.051  -1.827  0.00  0.00     0.417 C 
ATOM     29  F   UNL d   1       7.214  -5.050  -2.705  0.00  0.00    -0.166 F 
ATOM     30  F   UNL d   1       6.530  -5.882  -0.815  0.00  0.00    -0.166 F 
ATOM     31  F   UNL d   1       5.148  -5.669  -2.484  0.00  0.00    -0.166 F 
ENDBRANCH  24  28
BRANCH  26  32
ATOM     32  C   UNL d   1       6.933  -0.067  -1.906  0.00  0.00     0.417 C 
ATOM     33  F   UNL d   1       8.016  -0.411  -2.657  0.00  0.00    -0.166 F 
ATOM     34  F   UNL d   1       6.180   0.747  -2.699  0.00  0.00    -0.166 F 
ATOM     35  F   UNL d   1       7.402   0.716  -0.899  0.00  0.00    -0.166 F 
ENDBRANCH  26  32
ENDBRANCH   3  22
TORSDOF 5
