REMARK  3 active torsions:
REMARK  status: ('A' for Active; 'I' for Inactive)
REMARK    1  A    between atoms: N_5  and  C_1 
REMARK    2  A    between atoms: C_9  and  C_4 
REMARK       I    between atoms: C_8  and  N_5 
REMARK    3  A    between atoms: C_10  and  C_8 
ROOT
ATOM      1  C   UNL d   1      -1.494   0.178   0.037  0.00  0.00     0.152 A 
ATOM      2  N   UNL d   1      -1.345  -1.115   0.076  0.00  0.00    -0.335 N 
ATOM      3  HN  UNL d   1      -2.110  -1.789   0.078  1.00  0.00     0.168 HD
ATOM      4  C   UNL d   1       0.000  -1.446   0.114  0.00  0.00     0.057 A 
ATOM      5  S   UNL d   1      -0.071   1.100   0.150  0.00  0.00    -0.057 SA
ATOM      6  C   UNL d   1       0.861  -0.355   0.091  0.00  0.00     0.010 A 
ATOM      7  C   UNL d   1       2.344  -0.268  -0.010  0.00  0.00     0.059 C 
ENDROOT
BRANCH   4   8
ATOM      8  C   UNL d   1       0.368  -2.859   0.094  0.00  0.00    -0.007 A 
ATOM      9  C   UNL d   1      -0.493  -3.777  -0.522  0.00  0.00     0.038 A 
ATOM     10  C   UNL d   1      -0.197  -5.143  -0.543  0.00  0.00     0.040 A 
ATOM     11 CL   UNL d   1      -1.326  -6.202  -1.311  0.00  0.00    -0.084 Cl
ATOM     12  C   UNL d   1       0.975  -5.628   0.051  0.00  0.00    -0.040 A 
ATOM     13  C   UNL d   1       1.830  -4.714   0.681  0.00  0.00     0.009 A 
ATOM     14  C   UNL d   1       1.326  -7.087   0.048  0.00  0.00     0.050 C 
ATOM     15  C   UNL d   1       1.523  -3.349   0.715  0.00  0.00     0.014 A 
ENDBRANCH   4   8
BRANCH   1  16
ATOM     16  N   UNL d   1      -2.642   0.898  -0.109  0.00  0.00    -0.307 N 
ATOM     17  C   UNL d   1      -3.874   0.396  -0.442  0.00  0.00     0.227 C 
ATOM     18  O   UNL d   1      -4.840   1.157  -0.476  0.00  0.00    -0.273 OA
ATOM     19  H   UNL d   1      -2.590   1.899  -0.003  0.00  0.00     0.171 HD
BRANCH  17  20
ATOM     20  C   UNL d   1      -4.043  -1.044  -0.799  0.00  0.00     0.078 A 
ATOM     21  C   UNL d   1      -5.312  -1.553  -1.440  0.00  0.00     0.015 A 
ATOM     22  C   UNL d   1      -5.011  -1.896  -0.011  0.00  0.00     0.015 A 
ENDBRANCH  17  20
ENDBRANCH   1  16
TORSDOF 3
