REMARK  2 active torsions:
REMARK  status: ('A' for Active; 'I' for Inactive)
REMARK    1  A    between atoms: N_2  and  C_1 
REMARK    2  A    between atoms: C_4  and  C_1 
ROOT
ATOM      1  C   UNL d   1       0.933  -0.035  -0.114  0.00  0.00     0.109 C 
ATOM      2  S   UNL d   1       0.022   1.330  -0.511  0.00  0.00    -0.060 SA
ENDROOT
BRANCH   1   3
ATOM      3  N   UNL d   1       0.343  -1.298  -0.000  0.00  0.00    -0.370 N 
ATOM      4  C   UNL d   1       0.577  -2.161   1.166  0.00  0.00     0.134 C 
ATOM      5  C   UNL d   1      -0.724  -2.512   1.897  0.00  0.00     0.093 C 
ATOM      6  S   UNL d   1      -1.914  -3.377   0.816  0.00  0.00    -0.166 SA
ATOM      7  C   UNL d   1      -1.956  -2.148  -0.533  0.00  0.00     0.093 C 
ATOM      8  C   UNL d   1      -0.552  -1.830  -1.039  0.00  0.00     0.134 C 
ENDBRANCH   1   3
BRANCH   1   9
ATOM      9  C   UNL d   1       2.423   0.022   0.064  0.00  0.00     0.002 A 
ATOM     10  C   UNL d   1       3.205  -1.034  -0.435  0.00  0.00     0.014 A 
ATOM     11  C   UNL d   1       4.601  -0.975  -0.373  0.00  0.00     0.001 A 
ATOM     12  C   UNL d   1       5.226   0.138   0.179  0.00  0.00     0.000 A 
ATOM     13  C   UNL d   1       4.461   1.192   0.678  0.00  0.00     0.001 A 
ATOM     14  C   UNL d   1       3.065   1.133   0.630  0.00  0.00     0.014 A 
ENDBRANCH   1   9
TORSDOF 2
