REMARK  3 active torsions:
REMARK  status: ('A' for Active; 'I' for Inactive)
REMARK    1  A    between atoms: N_4  and  C_2 
REMARK       I    between atoms: C_3  and  N_4 
REMARK    2  A    between atoms: C_10  and  C_3 
REMARK    3  A    between atoms: C_11  and  N_4 
ROOT
ATOM      1  C   UNL d   1      -3.145  -0.309  -2.229  0.00  0.00     0.259 C 
ATOM      2  N   UNL d   1      -2.664   0.813  -1.521  0.00  0.00    -0.305 N 
ATOM      3  O   UNL d   1      -3.082  -1.456  -1.787  0.00  0.00    -0.267 OA
ENDROOT
BRANCH   2   4
ATOM      4  C   UNL d   1      -1.914   0.692  -0.247  0.00  0.00     0.131 C 
ATOM      5  C   UNL d   1      -0.445   0.313  -0.415  0.00  0.00     0.174 C 
ATOM      6  S   UNL d   1      -0.234  -1.257   0.404  0.00  0.00     0.167 S 
ATOM      7  C   UNL d   1      -1.819  -1.325   1.083  0.00  0.00     0.107 C 
ATOM      8  O   UNL d   1       0.727  -1.077   1.477  0.00  0.00    -0.223 OA
ATOM      9  O   UNL d   1      -0.058  -2.287  -0.595  0.00  0.00    -0.223 OA
ATOM     10  C   UNL d   1      -2.563  -0.284   0.700  0.00  0.00     0.011 C 
ENDBRANCH   2   4
BRANCH   2  11
ATOM     11  C   UNL d   1      -2.982   2.143  -1.902  0.00  0.00     0.038 A 
ATOM     12  C   UNL d   1      -4.301   2.591  -1.828  0.00  0.00     0.030 A 
ATOM     13  C   UNL d   1      -4.616   3.890  -2.229  0.00  0.00     0.009 A 
ATOM     14  C   UNL d   1      -3.623   4.739  -2.736  0.00  0.00    -0.062 A 
ATOM     15  C   UNL d   1      -2.303   4.280  -2.813  0.00  0.00     0.009 A 
ATOM     16  C   UNL d   1      -3.985   6.126  -3.182  0.00  0.00     0.048 C 
ATOM     17  C   UNL d   1      -1.976   2.996  -2.371  0.00  0.00     0.030 A 
ENDBRANCH   2  11
BRANCH   1  18
ATOM     18  C   UNL d   1      -3.754  -0.155  -3.587  0.00  0.00     0.032 A 
ATOM     19  C   UNL d   1      -3.202   0.690  -4.560  0.00  0.00     0.018 A 
ATOM     20  C   UNL d   1      -3.796   0.815  -5.817  0.00  0.00     0.025 A 
ATOM     21  C   UNL d   1      -4.910   0.043  -6.136  0.00  0.00     0.034 A 
ATOM     22  C   UNL d   1      -5.435  -0.850  -5.204  0.00  0.00     0.025 A 
ATOM     23 CL   UNL d   1      -5.618   0.177  -7.697  0.00  0.00    -0.084 Cl
ATOM     24  C   UNL d   1      -4.860  -0.947  -3.929  0.00  0.00     0.018 A 
ENDBRANCH   1  18
TORSDOF 3
