REMARK  4 active torsions:
REMARK  status: ('A' for Active; 'I' for Inactive)
REMARK    1  A    between atoms: C_4  and  N_1 
REMARK    2  A    between atoms: C_2  and  C_3 
REMARK    3  A    between atoms: C_3  and  S_9 
REMARK    4  A    between atoms: S_9  and  C_12 
ROOT
ATOM      1  S   UNL d   1      -2.310   4.680  -1.847  0.00  0.00    -0.125 SA
ENDROOT
BRANCH   1   2
ATOM      2  C   UNL d   1      -1.580   5.413  -3.349  0.00  0.00     0.123 C 
BRANCH   2   3
ATOM      3  C   UNL d   1      -2.312   6.638  -3.816  0.00  0.00     0.012 A 
ATOM      4  C   UNL d   1      -3.380   6.598  -4.724  0.00  0.00     0.044 A 
ATOM      5 CL   UNL d   1      -3.952   5.113  -5.399  0.00  0.00    -0.084 Cl
ATOM      6  C   UNL d   1      -4.012   7.778  -5.134  0.00  0.00     0.024 A 
ATOM      7  C   UNL d   1      -3.591   9.012  -4.639  0.00  0.00     0.005 A 
ATOM      8  C   UNL d   1      -2.533   9.067  -3.738  0.00  0.00     0.043 A 
ATOM      9  C   UNL d   1      -1.908   7.890  -3.337  0.00  0.00     0.125 A 
ATOM     10  F   UNL d   1      -0.878   7.975  -2.483  0.00  0.00    -0.205 F 
ENDBRANCH   2   3
ENDBRANCH   1   2
BRANCH   1  11
ATOM     11  C   UNL d   1      -1.262   3.254  -1.563  0.00  0.00     0.001 A 
ATOM     12  C   UNL d   1      -0.175   2.911  -2.378  0.00  0.00     0.021 A 
ATOM     13  C   UNL d   1       0.594   1.776  -2.119  0.00  0.00     0.037 A 
ATOM     14  C   UNL d   1       0.283   0.967  -1.024  0.00  0.00     0.102 A 
ATOM     15  C   UNL d   1      -0.792   1.292  -0.188  0.00  0.00     0.037 A 
ATOM     16  C   UNL d   1      -1.559   2.433  -0.463  0.00  0.00     0.021 A 
BRANCH  14  17
ATOM     17  N   UNL d   1       1.096  -0.225  -0.760  0.00  0.00    -0.116 N 
ATOM     18  O   UNL d   1       0.802  -0.912   0.227  0.00  0.00    -0.532 OA
ATOM     19  O   UNL d   1       2.027  -0.475  -1.538  0.00  0.00    -0.532 OA
ENDBRANCH  14  17
ENDBRANCH   1  11
TORSDOF 4
