REMARK  2 active torsions:
REMARK  status: ('A' for Active; 'I' for Inactive)
REMARK       I    between atoms: N_2  and  C_1 
REMARK    1  A    between atoms: O_3  and  C_1 
REMARK    2  A    between atoms: C_10  and  O_3 
ROOT
ATOM      1  C   UNL d   1       2.384  -0.110   0.226  0.00  0.00     0.368 C 
ATOM      2  N   UNL d   1       1.024  -0.071  -0.086  0.00  0.00    -0.324 N 
ATOM      3  N   UNL d   1      -1.925  -0.091  -0.001  0.00  0.00     0.087 N 
ATOM      4  O   UNL d   1       2.938  -1.150   0.576  0.00  0.00    -0.238 OA
ATOM      5  C   UNL d   1       0.287  -1.297   0.217  0.00  0.00     0.158 C 
ATOM      6  C   UNL d   1       0.281   1.190  -0.024  0.00  0.00     0.158 C 
ATOM      7  C   UNL d   1      -1.155  -1.309  -0.308  0.00  0.00     0.291 C 
ATOM      8  C   UNL d   1      -1.179   1.076  -0.512  0.00  0.00     0.291 C 
ATOM      9  C   UNL d   1      -2.206   0.021   1.430  0.00  0.00     0.310 C 
ENDROOT
BRANCH   1  10
ATOM     10  O   UNL d   1       3.014   1.135   0.131  0.00  0.00    -0.261 OA
BRANCH  10  11
ATOM     11  C   UNL d   1       4.355   1.298   0.552  0.00  0.00     0.081 A 
ATOM     12  C   UNL d   1       5.327   0.303   0.445  0.00  0.00     0.037 A 
ATOM     13  C   UNL d   1       6.607   0.524   0.957  0.00  0.00     0.003 A 
ATOM     14  C   UNL d   1       6.927   1.752   1.533  0.00  0.00     0.000 A 
ATOM     15  C   UNL d   1       5.972   2.769   1.582  0.00  0.00     0.003 A 
ATOM     16  C   UNL d   1       4.684   2.545   1.088  0.00  0.00     0.037 A 
ENDBRANCH  10  11
ENDBRANCH   1  10
TORSDOF 2
