REMARK  2 active torsions:
REMARK  status: ('A' for Active; 'I' for Inactive)
REMARK    1  A    between atoms: C_2  and  C_1 
REMARK       I    between atoms: N_4  and  C_2 
REMARK    2  A    between atoms: C_8  and  N_4 
ROOT
ATOM      1  C   UNL d   1      -2.898  -0.672   0.249  0.00  0.00     0.265 C 
ATOM      2  N   UNL d   1      -3.687   0.467   0.199  0.00  0.00    -0.322 N 
ATOM      3  O   UNL d   1      -3.311  -1.816   0.110  0.00  0.00    -0.267 OA
ATOM      4  H   UNL d   1      -3.183   1.346   0.231  0.00  0.00     0.169 HD
ENDROOT
BRANCH   1   5
ATOM      5  C   UNL d   1      -1.414  -0.396   0.399  0.00  0.00     0.097 C 
ATOM      6  C   UNL d   1      -0.557  -1.328   0.880  0.00  0.00     0.064 C 
ATOM      7  O   UNL d   1       0.823  -1.241   0.855  0.00  0.00    -0.353 OA
ATOM      8  C   UNL d   1      -0.966  -2.623   1.538  0.00  0.00     0.078 C 
ATOM      9  C   UNL d   1       1.497  -0.165   0.202  0.00  0.00     0.185 C 
ATOM     10  C   UNL d   1       0.711   0.568  -0.871  0.00  0.00     0.106 C 
ATOM     11  S   UNL d   1      -0.849   1.151  -0.180  0.00  0.00    -0.120 SA
ENDBRANCH   1   5
BRANCH   2  12
ATOM     12  C   UNL d   1      -5.081   0.538  -0.004  0.00  0.00     0.035 A 
ATOM     13  C   UNL d   1      -5.920  -0.578  -0.057  0.00  0.00     0.029 A 
ATOM     14  C   UNL d   1      -7.293  -0.427  -0.278  0.00  0.00     0.002 A 
ATOM     15  C   UNL d   1      -7.841   0.841  -0.447  0.00  0.00     0.000 A 
ATOM     16  C   UNL d   1      -7.017   1.962  -0.390  0.00  0.00     0.002 A 
ATOM     17  C   UNL d   1      -5.644   1.811  -0.166  0.00  0.00     0.029 A 
ENDBRANCH   2  12
TORSDOF 2
