REMARK  4 active torsions:
REMARK  status: ('A' for Active; 'I' for Inactive)
REMARK    1  A    between atoms: C_3  and  N_1 
REMARK    2  A    between atoms: C_2  and  N_10 
REMARK    3  A    between atoms: N_10  and  N_6 
REMARK    4  A    between atoms: C_13  and  C_8 
ROOT
ATOM      1  C   UNL d   1      -1.235  -2.898   4.750  0.00  0.00     0.042 A 
ATOM      2  C   UNL d   1      -2.303  -2.248   4.064  0.00  0.00     0.007 A 
ATOM      3  C   UNL d   1      -1.490  -3.433   6.029  0.00  0.00     0.030 A 
ATOM      4  C   UNL d   1      -3.543  -2.115   4.707  0.00  0.00     0.015 A 
ATOM      5  C   UNL d   1      -2.737  -3.317   6.638  0.00  0.00     0.002 A 
ATOM      6  C   UNL d   1      -3.760  -2.649   5.981  0.00  0.00     0.001 A 
ENDROOT
BRANCH   2   7
ATOM      7  C   UNL d   1      -2.050  -1.688   2.702  0.00  0.00     0.115 C 
ATOM      8  N   UNL d   1      -2.751  -1.004   1.838  0.00  0.00    -0.327 N 
ATOM      9  HN  UNL d   1      -2.313  -0.736   0.957  1.00  0.00     0.180 HD
BRANCH   8  10
ATOM     10  N   UNL d   1      -4.034  -0.635   2.062  0.00  0.00    -0.205 NA
ATOM     11  H   UNL d   1      -4.684  -1.367   2.351  0.00  0.00     0.153 HD
BRANCH  10  12
ATOM     12  C   UNL d   1      -4.660   0.159   1.054  0.00  0.00     0.051 A 
ATOM     13  C   UNL d   1      -3.912   0.804   0.053  0.00  0.00     0.050 A 
ATOM     14  C   UNL d   1      -4.539   1.592  -0.913  0.00  0.00     0.035 A 
ATOM     15 CL   UNL d   1      -3.605   2.323  -2.163  0.00  0.00    -0.084 Cl
ATOM     16  C   UNL d   1      -5.918   1.791  -0.885  0.00  0.00     0.026 A 
ATOM     17  C   UNL d   1      -6.673   1.207   0.131  0.00  0.00     0.027 A 
ATOM     18  C   UNL d   1      -6.048   0.407   1.096  0.00  0.00     0.057 A 
ATOM     19 CL   UNL d   1      -7.033  -0.287   2.338  0.00  0.00    -0.082 Cl
ENDBRANCH  10  12
ENDBRANCH   8  10
ENDBRANCH   2   7
BRANCH   1  20
ATOM     20  N   UNL d   1       0.062  -2.971   4.248  0.00  0.00    -0.377 N 
ATOM     21  C   UNL d   1       1.173  -2.420   5.046  0.00  0.00     0.153 C 
ATOM     22  C   UNL d   1       2.205  -3.494   5.447  0.00  0.00     0.291 C 
ATOM     23  N   UNL d   1       2.687  -4.243   4.269  0.00  0.00     0.087 N 
ATOM     24  C   UNL d   1       1.530  -4.935   3.660  0.00  0.00     0.291 C 
ATOM     25  C   UNL d   1       3.750  -5.173   4.624  0.00  0.00     0.310 C 
ATOM     26  C   UNL d   1       0.407  -3.962   3.215  0.00  0.00     0.153 C 
ENDBRANCH   1  20
TORSDOF 4
