REMARK  3 active torsions:
REMARK  status: ('A' for Active; 'I' for Inactive)
REMARK       I    between atoms: N_3  and  C_1 
REMARK    1  A    between atoms: C_4  and  C_1 
REMARK    2  A    between atoms: C_2  and  N_3 
REMARK    3  A    between atoms: C_8  and  C_4 
ROOT
ATOM      1  C   UNL d   1       1.227   1.587  -1.907  0.00  0.00     0.058 A 
ATOM      2  C   UNL d   1       2.560   1.286  -2.214  0.00  0.00     0.055 A 
ATOM      3  C   UNL d   1       0.574   2.574  -2.668  0.00  0.00     0.060 A 
ATOM      4  C   UNL d   1       1.253   3.270  -3.676  0.00  0.00     0.028 A 
ATOM      5  C   UNL d   1       3.234   1.984  -3.218  0.00  0.00     0.036 A 
ATOM      6 CL   UNL d   1      -1.080   2.988  -2.376  0.00  0.00    -0.082 Cl
ATOM      7  C   UNL d   1       2.590   2.979  -3.946  0.00  0.00     0.026 A 
ATOM      8 CL   UNL d   1       4.880   1.611  -3.556  0.00  0.00    -0.084 Cl
ENDROOT
BRANCH   1   9
ATOM      9  N   UNL d   1       0.521   0.921  -0.869  0.00  0.00    -0.325 N 
ATOM     10  C   UNL d   1       1.071   0.173   0.147  0.00  0.00     0.229 C 
ATOM     11  O   UNL d   1       2.280   0.013   0.330  0.00  0.00    -0.273 OA
ATOM     12  H   UNL d   1      -0.467   1.180  -0.768  0.00  0.00     0.169 HD
BRANCH  10  13
ATOM     13  C   UNL d   1       0.116  -0.570   1.047  0.00  0.00     0.180 C 
BRANCH  13  14
ATOM     14  C   UNL d   1      -1.261  -0.014   1.264  0.00  0.00     0.131 C 
ATOM     15  O   UNL d   1      -1.708   0.928   0.611  0.00  0.00    -0.298 OA
ATOM     16  C   UNL d   1      -2.108  -0.702   2.307  0.00  0.00     0.091 C 
ENDBRANCH  13  14
ENDBRANCH  10  13
ENDBRANCH   1   9
TORSDOF 3
