REMARK  3 active torsions:
REMARK  status: ('A' for Active; 'I' for Inactive)
REMARK    1  A    between atoms: C_9  and  C_3 
REMARK    2  A    between atoms: C_10  and  C_6 
REMARK    3  A    between atoms: N_8  and  C_10 
ROOT
ATOM      1  N   UNL d   1       0.070  -0.163   0.989  0.00  0.00    -0.321 N 
ATOM      2  HN  UNL d   1       0.164  -0.365   1.984  1.00  0.00     0.169 HD
ATOM      3  C   UNL d   1      -0.505   0.932   0.382  0.00  0.00     0.137 A 
ATOM      4  N   UNL d   1      -0.477   0.889  -0.960  0.00  0.00    -0.242 N 
ATOM      5  HN  UNL d   1      -0.843   1.575  -1.620  1.00  0.00     0.196 HD
ATOM      6  C   UNL d   1       0.468  -0.883  -0.035  0.00  0.00     0.177 A 
ATOM      7  O   UNL d   1       0.172  -0.316  -1.239  0.00  0.00    -0.221 OA
ENDROOT
BRANCH   3   8
ATOM      8  C   UNL d   1      -1.098   2.009   1.168  0.00  0.00     0.010 A 
ATOM      9  C   UNL d   1      -1.096   1.925   2.573  0.00  0.00     0.017 A 
ATOM     10  C   UNL d   1      -1.653   2.942   3.353  0.00  0.00     0.025 A 
ATOM     11  C   UNL d   1      -2.212   4.055   2.734  0.00  0.00     0.034 A 
ATOM     12  C   UNL d   1      -2.227   4.156   1.343  0.00  0.00     0.025 A 
ATOM     13 CL   UNL d   1      -2.889   5.312   3.692  0.00  0.00    -0.084 Cl
ATOM     14  C   UNL d   1      -1.671   3.135   0.561  0.00  0.00     0.017 A 
ENDBRANCH   3   8
BRANCH   6  15
ATOM     15  C   UNL d   1       1.115  -2.227  -0.041  0.00  0.00     0.358 C 
BRANCH  15  16
ATOM     16  N   UNL d   1       2.599  -2.212  -0.015  0.00  0.00     0.096 N 
ATOM     17  C   UNL d   1       3.104  -1.546   1.201  0.00  0.00     0.273 C 
ATOM     18  C   UNL d   1       4.630  -1.603   1.306  0.00  0.00     0.030 C 
ATOM     19  C   UNL d   1       5.133  -3.037   1.234  0.00  0.00     0.003 C 
ATOM     20  C   UNL d   1       4.608  -3.699  -0.032  0.00  0.00     0.030 C 
ATOM     21  C   UNL d   1       3.085  -3.601  -0.108  0.00  0.00     0.273 C 
ENDBRANCH  15  16
ENDBRANCH   6  15
TORSDOF 3
