REMARK  4 active torsions:
REMARK  status: ('A' for Active; 'I' for Inactive)
REMARK    1  A    between atoms: C_5  and  C_1 
REMARK    2  A    between atoms: C_7  and  C_2 
REMARK       I    between atoms: N_13  and  C_7 
REMARK    3  A    between atoms: C_8  and  C_17 
REMARK    4  A    between atoms: C_17  and  N_13 
ROOT
ATOM      1  C   UNL d   1      -0.080  -0.137   0.787  0.00  0.00     0.086 A 
ATOM      2  C   UNL d   1      -0.332  -1.258  -0.072  0.00  0.00     0.092 A 
ATOM      3  N   UNL d   1      -1.025   0.802   0.602  0.00  0.00    -0.259 N 
ATOM      4  HN  UNL d   1      -1.138   1.664   1.136  1.00  0.00     0.195 HD
ATOM      5  O   UNL d   1      -1.808   0.378  -0.440  0.00  0.00    -0.241 OA
ATOM      6  C   UNL d   1      -1.387  -0.839  -0.861  0.00  0.00     0.090 A 
ATOM      7  C   UNL d   1      -2.095  -1.367  -2.043  0.00  0.00     0.080 C 
ENDROOT
BRANCH   2   8
ATOM      8  C   UNL d   1       0.368  -2.521  -0.182  0.00  0.00     0.256 C 
ATOM      9  N   UNL d   1      -0.458  -3.614  -0.336  0.00  0.00    -0.352 N 
ATOM     10  H   UNL d   1      -1.458  -3.494  -0.337  0.00  0.00     0.163 HD
ATOM     11  O   UNL d   1       1.591  -2.597  -0.116  0.00  0.00    -0.267 OA
BRANCH   9  12
ATOM     12  C   UNL d   1       0.074  -4.937  -0.564  0.00  0.00     0.162 C 
BRANCH  12  13
ATOM     13  C   UNL d   1      -0.921  -5.973  -0.118  0.00  0.00    -0.022 A 
ATOM     14  C   UNL d   1      -1.415  -6.049   1.172  0.00  0.00     0.060 A 
ATOM     15  S   UNL d   1      -2.465  -7.365   1.413  0.00  0.00    -0.101 SA
ATOM     16  C   UNL d   1      -2.279  -7.906  -0.207  0.00  0.00     0.015 A 
ATOM     17  C   UNL d   1      -1.442  -7.055  -0.940  0.00  0.00    -0.011 A 
ATOM     18  C   UNL d   1      -2.865  -9.054  -0.780  0.00  0.00     0.019 A 
ATOM     19  C   UNL d   1      -1.220  -7.383  -2.305  0.00  0.00     0.013 A 
ATOM     20  C   UNL d   1      -1.805  -8.519  -2.879  0.00  0.00     0.001 A 
ATOM     21  C   UNL d   1      -2.614  -9.349  -2.120  0.00  0.00     0.001 A 
ENDBRANCH  12  13
ENDBRANCH   9  12
ENDBRANCH   2   8
BRANCH   1  22
ATOM     22  C   UNL d   1       0.962   0.096   1.793  0.00  0.00     0.037 A 
ATOM     23  C   UNL d   1       1.751   1.270   1.747  0.00  0.00     0.048 A 
ATOM     24 CL   UNL d   1       1.677   2.410   0.440  0.00  0.00    -0.083 Cl
ATOM     25  C   UNL d   1       2.665   1.572   2.767  0.00  0.00     0.025 A 
ATOM     26  C   UNL d   1       2.837   0.700   3.835  0.00  0.00     0.003 A 
ATOM     27  C   UNL d   1       2.095  -0.475   3.885  0.00  0.00     0.025 A 
ATOM     28  C   UNL d   1       1.154  -0.772   2.884  0.00  0.00     0.048 A 
ATOM     29 CL   UNL d   1       0.218  -2.212   3.122  0.00  0.00    -0.083 Cl
ENDBRANCH   1  22
TORSDOF 4
