REMARK  4 active torsions:
REMARK  status: ('A' for Active; 'I' for Inactive)
REMARK    1  A    between atoms: N_8  and  C_2 
REMARK    2  A    between atoms: C_9  and  N_8 
REMARK    3  A    between atoms: C_10  and  C_9 
REMARK    4  A    between atoms: O_16  and  C_11 
ROOT
ATOM      1  N   UNL d   1       3.118  -2.030  -1.437  0.00  0.00    -0.365 N 
ATOM      2  H   UNL d   1       3.766  -1.847  -2.194  0.00  0.00     0.162 HD
ENDROOT
BRANCH   1   3
ATOM      3  C   UNL d   1       1.797  -1.856  -1.697  0.00  0.00     0.162 A 
ATOM      4  S   UNL d   1       1.341  -1.693  -3.378  0.00  0.00    -0.022 SA
ATOM      5  C   UNL d   1      -0.316  -1.555  -2.862  0.00  0.00     0.160 A 
ATOM      6  N   UNL d   1      -0.354  -1.617  -1.496  0.00  0.00    -0.282 N 
ATOM      7  S   UNL d   1      -1.651  -1.375  -3.825  0.00  0.00    -0.051 SA
ATOM      8  N   UNL d   1       0.828  -1.793  -0.839  0.00  0.00    -0.278 N 
ATOM      9  H   UNL d   1      -1.215  -1.563  -0.965  0.00  0.00     0.188 HD
ATOM     10  HN  UNL d   1       0.933  -1.864   0.174  1.00  0.00     0.189 HD
ENDBRANCH   1   3
BRANCH   1  11
ATOM     11  C   UNL d   1       3.642  -1.970  -0.095  0.00  0.00     0.160 C 
BRANCH  11  12
ATOM     12  C   UNL d   1       5.136  -2.174  -0.108  0.00  0.00    -0.040 A 
ATOM     13  C   UNL d   1       6.008  -1.076  -0.119  0.00  0.00     0.011 A 
ATOM     14  C   UNL d   1       7.395  -1.264  -0.107  0.00  0.00     0.037 A 
ATOM     15  C   UNL d   1       7.929  -2.552  -0.094  0.00  0.00     0.068 A 
ATOM     16  C   UNL d   1       7.064  -3.648  -0.108  0.00  0.00     0.037 A 
ATOM     17  C   UNL d   1       5.679  -3.465  -0.120  0.00  0.00     0.011 A 
BRANCH  15  18
ATOM     18  O   UNL d   1       9.258  -2.873  -0.070  0.00  0.00    -0.356 OA
ATOM     19  C   UNL d   1      10.181  -1.793  -0.010  0.00  0.00     0.210 C 
ENDBRANCH  15  18
ENDBRANCH  11  12
ENDBRANCH   1  11
TORSDOF 4
