REMARK  4 active torsions:
REMARK  status: ('A' for Active; 'I' for Inactive)
REMARK    1  A    between atoms: N_2  and  S_1 
REMARK    2  A    between atoms: C_3  and  S_1 
REMARK    3  A    between atoms: N_4  and  C_15 
REMARK    4  A    between atoms: C_15  and  C_21 
ROOT
ATOM      1  N   UNL d   1       0.422  -0.158   1.552  0.00  0.00    -0.206 NA
ATOM      2  C   UNL d   1      -0.060  -1.542   1.816  0.00  0.00     0.108 C 
ATOM      3  C   UNL d   1      -0.503   0.923   1.986  0.00  0.00     0.108 C 
ATOM      4  C   UNL d   1      -0.892   0.726   3.449  0.00  0.00     0.022 C 
ATOM      5  C   UNL d   1      -0.533  -1.713   3.259  0.00  0.00     0.022 C 
ATOM      6  C   UNL d   1      -1.549  -0.639   3.684  0.00  0.00     0.006 C 
ENDROOT
BRANCH   1   7
ATOM      7  S   UNL d   1       1.062   0.059  -0.029  0.00  0.00     0.243 S 
ATOM      8  O   UNL d   1       1.018   1.467  -0.367  0.00  0.00    -0.206 OA
ATOM      9  O   UNL d   1       0.485  -0.947  -0.895  0.00  0.00    -0.206 OA
BRANCH   7  10
ATOM     10  C   UNL d   1       2.787  -0.330   0.205  0.00  0.00     0.074 A 
ATOM     11  C   UNL d   1       3.381  -1.367  -0.522  0.00  0.00     0.026 A 
ATOM     12  C   UNL d   1       4.746  -1.622  -0.366  0.00  0.00     0.025 A 
ATOM     13  C   UNL d   1       5.507  -0.840   0.505  0.00  0.00     0.034 A 
ATOM     14  C   UNL d   1       4.917   0.204   1.219  0.00  0.00     0.025 A 
ATOM     15 CL   UNL d   1       7.186  -1.162   0.693  0.00  0.00    -0.084 Cl
ATOM     16  C   UNL d   1       3.553   0.465   1.069  0.00  0.00     0.026 A 
ENDBRANCH   7  10
ENDBRANCH   1   7
BRANCH   6  17
ATOM     17  C   UNL d   1      -2.901  -0.821   2.956  0.00  0.00     0.132 C 
BRANCH  17  18
ATOM     18  N   UNL d   1      -3.922   0.150   3.320  0.00  0.00    -0.366 N 
ATOM     19  C   UNL d   1      -4.491   1.058   2.464  0.00  0.00     0.090 A 
ATOM     20  C   UNL d   1      -5.402   1.804   3.180  0.00  0.00     0.019 A 
ATOM     21  C   UNL d   1      -5.415   1.297   4.500  0.00  0.00     0.019 A 
ATOM     22  C   UNL d   1      -4.510   0.260   4.552  0.00  0.00     0.090 A 
ENDBRANCH  17  18
ENDBRANCH   6  17
TORSDOF 4
