REMARK  5 active torsions:
REMARK  status: ('A' for Active; 'I' for Inactive)
REMARK    1  A    between atoms: C_8  and  C_3 
REMARK    2  A    between atoms: C_9  and  N_4 
REMARK    3  A    between atoms: C_12  and  C_9 
REMARK    4  A    between atoms: C_10  and  C_11 
REMARK       I    between atoms: C_11  and  N_15 
REMARK       I    between atoms: N_16  and  C_12 
REMARK    5  A    between atoms: N_15  and  N_16 
ROOT
ATOM      1  N   UNL d   1      -0.071  -0.935   0.109  0.00  0.00    -0.268 N 
ATOM      2  HN  UNL d   1      -0.217  -1.935   0.246  1.00  0.00     0.190 HD
ATOM      3  C   UNL d   1       1.071  -0.254  -0.097  0.00  0.00     0.144 A 
ATOM      4  N   UNL d   1      -0.966   0.068   0.083  0.00  0.00    -0.207 N 
ATOM      5  N   UNL d   1       0.864   1.100  -0.184  0.00  0.00    -0.266 N 
ATOM      6  HN  UNL d   1       1.578   1.817  -0.320  1.00  0.00     0.186 HD
ATOM      7  N   UNL d   1      -0.440   1.298  -0.058  0.00  0.00    -0.002 NA
ENDROOT
BRANCH   4   8
ATOM      8  C   UNL d   1      -2.401  -0.119   0.083  0.00  0.00     0.271 C 
BRANCH   8   9
ATOM      9  C   UNL d   1      -2.949  -1.526   0.043  0.00  0.00     0.257 C 
ATOM     10  N   UNL d   1      -2.120  -2.599   0.261  0.00  0.00    -0.266 N 
ATOM     11  H   UNL d   1      -1.098  -2.516   0.211  0.00  0.00     0.190 HD
ATOM     12  O   UNL d   1      -4.163  -1.704  -0.140  0.00  0.00    -0.270 OA
BRANCH  10  13
ATOM     13  N   UNL d   1      -2.667  -3.883   0.115  0.00  0.00    -0.267 N 
ATOM     14  C   UNL d   1      -1.850  -4.943  -0.214  0.00  0.00     0.240 C 
ATOM     15  O   UNL d   1      -0.631  -4.873  -0.304  0.00  0.00    -0.271 OA
ATOM     16  H   UNL d   1      -3.680  -3.929   0.009  0.00  0.00     0.190 HD
BRANCH  14  17
ATOM     17  C   UNL d   1      -2.601  -6.202  -0.497  0.00  0.00     0.080 A 
ATOM     18  C   UNL d   1      -1.896  -7.507  -0.784  0.00  0.00     0.015 A 
ATOM     19  C   UNL d   1      -2.584  -6.772  -1.897  0.00  0.00     0.015 A 
ENDBRANCH  14  17
ENDBRANCH  10  13
ENDBRANCH   8   9
ENDBRANCH   4   8
BRANCH   3  20
ATOM     20  C   UNL d   1       2.360  -0.892  -0.309  0.00  0.00     0.014 A 
ATOM     21  C   UNL d   1       2.494  -2.278  -0.132  0.00  0.00     0.039 A 
ATOM     22  C   UNL d   1       3.698  -2.913  -0.431  0.00  0.00     0.036 A 
ATOM     23 CL   UNL d   1       3.833  -4.616  -0.238  0.00  0.00    -0.084 Cl
ATOM     24  C   UNL d   1       4.783  -2.182  -0.903  0.00  0.00     0.047 A 
ATOM     25  C   UNL d   1       4.661  -0.803  -1.059  0.00  0.00     0.036 A 
ATOM     26  C   UNL d   1       3.462  -0.153  -0.760  0.00  0.00     0.039 A 
ATOM     27 CL   UNL d   1       5.997   0.104  -1.655  0.00  0.00    -0.084 Cl
ENDBRANCH   3  20
TORSDOF 5
