REMARK  4 active torsions:
REMARK  status: ('A' for Active; 'I' for Inactive)
REMARK       I    between atoms: N_2  and  C_1 
REMARK    1  A    between atoms: C_3  and  C_1 
REMARK       I    between atoms: C_4  and  N_2 
REMARK       I    between atoms: N_11  and  C_4 
REMARK    2  A    between atoms: C_14  and  N_11 
REMARK    3  A    between atoms: C_21  and  C_14 
REMARK    4  A    between atoms: C_15  and  C_21 
ROOT
ATOM      1  C   UNL d   1      -1.088   1.035  -0.611  0.00  0.00     0.263 C 
ATOM      2  N   UNL d   1       0.271   1.274  -0.495  0.00  0.00    -0.275 N 
ATOM      3  C   UNL d   1       1.040   2.130  -1.247  0.00  0.00     0.323 C 
ATOM      4  O   UNL d   1      -1.808   1.605  -1.429  0.00  0.00    -0.267 OA
ATOM      5  O   UNL d   1       2.264   2.062  -1.199  0.00  0.00    -0.247 OA
ATOM      6  N   UNL d   1       0.353   3.031  -2.004  0.00  0.00    -0.342 N 
ATOM      7  H   UNL d   1       0.834   0.651   0.067  0.00  0.00     0.173 HD
ATOM      8  H   UNL d   1      -0.633   2.815  -2.150  0.00  0.00     0.164 HD
ENDROOT
BRANCH   6   9
ATOM      9  C   UNL d   1       1.012   3.955  -2.904  0.00  0.00     0.129 C 
BRANCH   9  10
ATOM     10  C   UNL d   1       0.004   4.888  -3.578  0.00  0.00     0.058 C 
BRANCH  10  11
ATOM     11  C   UNL d   1       0.668   5.935  -4.432  0.00  0.00    -0.054 A 
ATOM     12  C   UNL d   1       0.974   5.681  -5.770  0.00  0.00     0.024 A 
ATOM     13  C   UNL d   1       1.588   6.680  -6.513  0.00  0.00     0.088 A 
ATOM     14  N   UNL d   1       1.915   7.893  -6.016  0.00  0.00    -0.375 N 
ATOM     15  C   UNL d   1       1.616   8.114  -4.720  0.00  0.00     0.088 A 
ATOM     16  HN  UNL d   1       2.364   8.605  -6.592  1.00  0.00     0.164 HD
ATOM     17  C   UNL d   1       1.004   7.181  -3.896  0.00  0.00     0.024 A 
ENDBRANCH  10  11
ENDBRANCH   9  10
ENDBRANCH   6   9
BRANCH   1  18
ATOM     18  C   UNL d   1      -1.683   0.020   0.291  0.00  0.00     0.075 A 
ATOM     19  C   UNL d   1      -2.878   0.315   0.972  0.00  0.00     0.051 A 
ATOM     20 CL   UNL d   1      -3.594   1.892   0.990  0.00  0.00    -0.083 Cl
ATOM     21  C   UNL d   1      -3.529  -0.669   1.728  0.00  0.00     0.025 A 
ATOM     22  C   UNL d   1      -2.991  -1.949   1.827  0.00  0.00     0.003 A 
ATOM     23  C   UNL d   1      -1.792  -2.244   1.184  0.00  0.00     0.025 A 
ATOM     24  C   UNL d   1      -1.140  -1.270   0.414  0.00  0.00     0.051 A 
ATOM     25 CL   UNL d   1       0.317  -1.764  -0.374  0.00  0.00    -0.083 Cl
ENDBRANCH   1  18
TORSDOF 4
