REMARK  6 active torsions:
REMARK  status: ('A' for Active; 'I' for Inactive)
REMARK    1  A    between atoms: C_6  and  N_1 
REMARK    2  A    between atoms: S_7  and  C_4 
REMARK    3  A    between atoms: C_12  and  S_7 
REMARK    4  A    between atoms: O_9  and  C_8 
REMARK    5  A    between atoms: C_10  and  O_9 
REMARK    6  A    between atoms: N_20  and  C_16 
ROOT
ATOM      1  N   UNL d   1       0.208   0.969  -0.189  0.00  0.00    -0.248 N 
ATOM      2  C   UNL d   1      -0.939   0.238  -0.040  0.00  0.00     0.232 C 
ATOM      3  C   UNL d   1       1.250   0.217  -0.693  0.00  0.00     0.246 C 
ATOM      4  C   UNL d   1       0.864  -1.237  -0.559  0.00  0.00     0.154 C 
ATOM      5  C   UNL d   1      -0.659  -1.183  -0.446  0.00  0.00     0.129 C 
ATOM      6  O   UNL d   1      -2.068   0.642   0.223  0.00  0.00    -0.273 OA
ATOM      7  O   UNL d   1       2.318   0.642  -1.110  0.00  0.00    -0.271 OA
ENDROOT
BRANCH   1   8
ATOM      8  C   UNL d   1       0.221   2.378  -0.150  0.00  0.00     0.079 A 
ATOM      9  C   UNL d   1      -0.078   3.085   1.028  0.00  0.00     0.103 A 
ATOM     10  C   UNL d   1       0.049   4.484   1.037  0.00  0.00     0.039 A 
ATOM     11  C   UNL d   1       0.364   5.174  -0.135  0.00  0.00     0.003 A 
ATOM     12  C   UNL d   1       0.606   4.476  -1.313  0.00  0.00     0.002 A 
ATOM     13  C   UNL d   1       0.567   3.086  -1.312  0.00  0.00     0.033 A 
BRANCH   9  14
ATOM     14  O   UNL d   1      -0.363   2.358   2.171  0.00  0.00    -0.307 OA
BRANCH  14  15
ATOM     15  C   UNL d   1      -1.155   2.934   3.143  0.00  0.00     0.098 A 
ATOM     16  C   UNL d   1      -0.767   2.828   4.486  0.00  0.00     0.069 A 
ATOM     17  C   UNL d   1      -1.543   3.408   5.493  0.00  0.00     0.050 A 
ATOM     18 CL   UNL d   1       0.677   2.000   4.941  0.00  0.00    -0.081 Cl
ATOM     19  C   UNL d   1      -2.714   4.084   5.155  0.00  0.00     0.035 A 
ATOM     20  C   UNL d   1      -3.130   4.163   3.827  0.00  0.00     0.026 A 
ATOM     21 CL   UNL d   1      -3.660   4.823   6.388  0.00  0.00    -0.084 Cl
ATOM     22  C   UNL d   1      -2.362   3.568   2.823  0.00  0.00     0.041 A 
ENDBRANCH  14  15
ENDBRANCH   9  14
ENDBRANCH   1   8
BRANCH   4  23
ATOM     23  S   UNL d   1       1.359  -2.259  -1.990  0.00  0.00    -0.113 SA
BRANCH  23  24
ATOM     24  C   UNL d   1       3.153  -2.243  -1.860  0.00  0.00     0.022 A 
ATOM     25  C   UNL d   1       3.859  -2.762  -0.755  0.00  0.00     0.022 A 
ATOM     26  C   UNL d   1       5.259  -2.681  -0.739  0.00  0.00     0.024 A 
ATOM     27  C   UNL d   1       5.961  -2.187  -1.842  0.00  0.00     0.002 A 
ATOM     28  C   UNL d   1       5.267  -1.727  -2.954  0.00  0.00     0.001 A 
ATOM     29  C   UNL d   1       3.871  -1.748  -2.962  0.00  0.00     0.020 A 
BRANCH  25  30
ATOM     30  N   UNL d   1       3.196  -3.283   0.376  0.00  0.00    -0.302 NA
ATOM     31  H   UNL d   1       2.449  -3.912   0.085  0.00  0.00     0.124 HD
ATOM     32  H   UNL d   1       3.821  -3.722   1.045  0.00  0.00     0.124 HD
ENDBRANCH  25  30
ENDBRANCH  23  24
ENDBRANCH   4  23
TORSDOF 6
