REMARK  6 active torsions:
REMARK  status: ('A' for Active; 'I' for Inactive)
REMARK    1  A    between atoms: N_7  and  C_1 
REMARK    2  A    between atoms: N_5  and  C_2 
REMARK    3  A    between atoms: C_3  and  C_14 
REMARK    4  A    between atoms: C_4  and  C_13 
REMARK    5  A    between atoms: O_27  and  C_11 
REMARK    6  A    between atoms: O_28  and  C_12 
ROOT
ATOM      1  C   UNL d   1      -0.583   1.348   0.140  0.00  0.00     0.151 C 
ATOM      2  C   UNL d   1       0.772   1.231   0.280  0.00  0.00     0.151 C 
ATOM      3  C   UNL d   1      -1.360   0.156  -0.117  0.00  0.00     0.120 C 
ATOM      4  C   UNL d   1       1.386  -0.074   0.178  0.00  0.00     0.120 C 
ATOM      5  N   UNL d   1       1.922  -1.095   0.119  0.00  0.00    -0.190 NA
ATOM      6  N   UNL d   1      -1.967  -0.813  -0.317  0.00  0.00    -0.190 NA
ENDROOT
BRANCH   1   7
ATOM      7  N   UNL d   1      -1.316   2.539   0.139  0.00  0.00    -0.354 N 
ATOM      8  C   UNL d   1      -0.960   3.472   0.967  0.00  0.00     0.103 C 
ATOM      9  HN  UNL d   1      -2.107   2.669  -0.492  1.00  0.00     0.166 HD
BRANCH   8  10
ATOM     10  C   UNL d   1      -1.649   4.773   1.071  0.00  0.00     0.016 A 
ATOM     11  C   UNL d   1      -1.140   5.738   1.948  0.00  0.00     0.099 A 
ATOM     12  C   UNL d   1      -1.771   6.980   2.062  0.00  0.00     0.069 A 
ATOM     13 CL   UNL d   1      -1.139   8.179   3.130  0.00  0.00    -0.081 Cl
ATOM     14  C   UNL d   1      -2.910   7.262   1.313  0.00  0.00     0.050 A 
ATOM     15  C   UNL d   1      -3.416   6.293   0.447  0.00  0.00     0.036 A 
ATOM     16  C   UNL d   1      -2.794   5.049   0.316  0.00  0.00     0.039 A 
ATOM     17 CL   UNL d   1      -4.829   6.643  -0.472  0.00  0.00    -0.084 Cl
BRANCH  11  18
ATOM     18  O   UNL d   1      -0.017   5.462   2.688  0.00  0.00    -0.358 OA
ATOM     19  H   UNL d   1       0.194   6.256   3.217  0.00  0.00     0.217 HD
ENDBRANCH  11  18
ENDBRANCH   8  10
ENDBRANCH   1   7
BRANCH   2  20
ATOM     20  N   UNL d   1       1.586   2.351   0.416  0.00  0.00    -0.354 N 
ATOM     21  C   UNL d   1       2.640   2.277   1.171  0.00  0.00     0.103 C 
ATOM     22  HN  UNL d   1       1.358   3.218  -0.070  1.00  0.00     0.166 HD
BRANCH  21  23
ATOM     23  C   UNL d   1       3.536   3.448   1.324  0.00  0.00     0.016 A 
ATOM     24  C   UNL d   1       4.702   3.358   2.090  0.00  0.00     0.099 A 
ATOM     25  C   UNL d   1       5.564   4.458   2.172  0.00  0.00     0.069 A 
ATOM     26 CL   UNL d   1       7.022   4.354   3.090  0.00  0.00    -0.081 Cl
ATOM     27  C   UNL d   1       5.269   5.644   1.502  0.00  0.00     0.050 A 
ATOM     28  C   UNL d   1       4.102   5.728   0.747  0.00  0.00     0.036 A 
ATOM     29  C   UNL d   1       3.233   4.642   0.656  0.00  0.00     0.039 A 
ATOM     30 CL   UNL d   1       3.737   7.181  -0.099  0.00  0.00    -0.084 Cl
BRANCH  24  31
ATOM     31  O   UNL d   1       4.998   2.188   2.739  0.00  0.00    -0.358 OA
ATOM     32  H   UNL d   1       5.870   2.293   3.167  0.00  0.00     0.217 HD
ENDBRANCH  24  31
ENDBRANCH  21  23
ENDBRANCH   2  20
TORSDOF 6
