REMARK  3 active torsions:
REMARK  status: ('A' for Active; 'I' for Inactive)
REMARK    1  A    between atoms: C_5  and  N_1 
REMARK    2  A    between atoms: C_7  and  C_2 
REMARK    3  A    between atoms: C_11  and  C_5 
ROOT
ATOM      1  N   UNL d   1      -0.552  -1.225   0.152  0.00  0.00    -0.330 N 
ATOM      2  C   UNL d   1       0.816  -1.370  -0.290  0.00  0.00     0.183 A 
ATOM      3  S   UNL d   1       1.402   0.274  -0.771  0.00  0.00    -0.130 SA
ATOM      4  C   UNL d   1      -1.092   0.046   0.170  0.00  0.00     0.230 A 
ATOM      5  C   UNL d   1      -0.138   1.100  -0.337  0.00  0.00     0.179 A 
ATOM      6  O   UNL d   1      -2.227   0.312   0.550  0.00  0.00    -0.272 OA
ENDROOT
BRANCH   1   7
ATOM      7  C   UNL d   1      -1.364  -2.393   0.456  0.00  0.00     0.166 C 
BRANCH   7   8
ATOM      8  C   UNL d   1      -2.187  -2.864  -0.720  0.00  0.00    -0.040 A 
ATOM      9  C   UNL d   1      -1.681  -3.811  -1.624  0.00  0.00     0.012 A 
ATOM     10  C   UNL d   1      -2.467  -4.258  -2.689  0.00  0.00     0.043 A 
ATOM     11  C   UNL d   1      -3.754  -3.757  -2.854  0.00  0.00     0.116 A 
ATOM     12  C   UNL d   1      -4.268  -2.810  -1.980  0.00  0.00     0.043 A 
ATOM     13  F   UNL d   1      -4.509  -4.199  -3.869  0.00  0.00    -0.206 F 
ATOM     14  C   UNL d   1      -3.485  -2.360  -0.917  0.00  0.00     0.012 A 
ENDBRANCH   7   8
ENDBRANCH   1   7
BRANCH   2  15
ATOM     15  C   UNL d   1       1.742  -1.981   0.745  0.00  0.00    -0.023 A 
ATOM     16  C   UNL d   1       2.864  -2.711   0.330  0.00  0.00     0.027 A 
ATOM     17  C   UNL d   1       3.704  -3.257   1.288  0.00  0.00     0.088 A 
ATOM     18  N   UNL d   1       3.507  -3.134   2.616  0.00  0.00    -0.375 N 
ATOM     19  C   UNL d   1       2.436  -2.412   3.006  0.00  0.00     0.088 A 
ATOM     20  HN  UNL d   1       4.137  -3.564   3.293  1.00  0.00     0.164 HD
ATOM     21  C   UNL d   1       1.545  -1.817   2.124  0.00  0.00     0.027 A 
ENDBRANCH   2  15
TORSDOF 3
