REMARK  3 active torsions:
REMARK  status: ('A' for Active; 'I' for Inactive)
REMARK    1  A    between atoms: C_3  and  C_1 
REMARK    2  A    between atoms: C_2  and  C_3 
REMARK    3  A    between atoms: N_10  and  C_5 
ROOT
ATOM      1  C   UNL d   1       0.260   0.647  -1.313  0.00  0.00     0.190 C 
ATOM      2  O   UNL d   1       0.910   1.479  -1.942  0.00  0.00    -0.287 OA
ENDROOT
BRANCH   1   3
ATOM      3  C   UNL d   1      -1.097   0.226  -1.672  0.00  0.00     0.054 A 
ATOM      4  S   UNL d   1      -1.857   0.957  -3.033  0.00  0.00    -0.098 SA
ATOM      5  C   UNL d   1      -3.243  -0.031  -2.887  0.00  0.00     0.050 A 
ATOM      6  C   UNL d   1      -3.157  -0.884  -1.812  0.00  0.00     0.009 A 
ATOM      7  C   UNL d   1      -1.927  -0.728  -1.106  0.00  0.00     0.023 A 
ENDBRANCH   1   3
BRANCH   1   8
ATOM      8  C   UNL d   1       0.877  -0.000  -0.111  0.00  0.00     0.073 C 
ATOM      9  C   UNL d   1       2.204   0.004   0.080  0.00  0.00     0.088 C 
BRANCH   9  10
ATOM     10  N   UNL d   1       2.947  -0.570   1.103  0.00  0.00    -0.398 N 
ATOM     11  C   UNL d   1       2.382  -1.298   2.237  0.00  0.00     0.148 C 
ATOM     12  C   UNL d   1       4.403  -0.416   1.169  0.00  0.00     0.148 C 
ENDBRANCH   9  10
ENDBRANCH   1   8
TORSDOF 3
