REMARK  13 active torsions:
REMARK  status: ('A' for Active; 'I' for Inactive)
REMARK    1  A    between atoms: C_6  and  N_1 
REMARK    2  A    between atoms: S_9  and  C_5 
REMARK    3  A    between atoms: C_12  and  S_9 
REMARK    4  A    between atoms: C_13  and  C_12 
REMARK    5  A    between atoms: C_21  and  C_13 
REMARK    6  A    between atoms: C_14  and  C_15 
REMARK    7  A    between atoms: C_15  and  C_20 
REMARK    8  A    between atoms: C_16  and  C_22 
REMARK    9  A    between atoms: C_17  and  C_16 
REMARK   10  A    between atoms: C_18  and  C_17 
REMARK   11  A    between atoms: C_19  and  C_18 
REMARK   12  A    between atoms: C_20  and  C_19 
REMARK   13  A    between atoms: C_22  and  C_21 
ROOT
ATOM      1  N   UNL d   1       0.097   0.860  -0.030  0.00  0.00    -0.251 N 
ATOM      2  C   UNL d   1      -1.058   0.120   0.034  0.00  0.00     0.232 C 
ATOM      3  C   UNL d   1       1.210   0.051   0.001  0.00  0.00     0.245 C 
ATOM      4  C   UNL d   1      -0.721  -1.345   0.022  0.00  0.00     0.128 C 
ATOM      5  C   UNL d   1       0.784  -1.391  -0.117  0.00  0.00     0.149 C 
ATOM      6  O   UNL d   1      -2.219   0.494   0.103  0.00  0.00    -0.273 OA
ATOM      7  O   UNL d   1       2.383   0.382   0.143  0.00  0.00    -0.271 OA
ENDROOT
BRANCH   5   8
ATOM      8  S   UNL d   1       1.348  -2.021  -1.733  0.00  0.00    -0.154 SA
BRANCH   8   9
ATOM      9  C   UNL d   1       0.867  -3.767  -1.580  0.00  0.00     0.075 C 
BRANCH   9  10
ATOM     10  C   UNL d   1       1.333  -4.475  -2.845  0.00  0.00     0.010 C 
BRANCH  10  11
ATOM     11  C   UNL d   1       0.922  -5.943  -2.854  0.00  0.00     0.001 C 
BRANCH  11  12
ATOM     12  C   UNL d   1       1.398  -6.607  -4.143  0.00  0.00     0.000 C 
BRANCH  12  13
ATOM     13  C   UNL d   1       0.995  -8.074  -4.179  0.00  0.00     0.000 C 
BRANCH  13  14
ATOM     14  C   UNL d   1       1.474  -8.731  -5.468  0.00  0.00     0.000 C 
BRANCH  14  15
ATOM     15  C   UNL d   1       1.070 -10.200  -5.499  0.00  0.00     0.000 C 
BRANCH  15  16
ATOM     16  C   UNL d   1       1.548 -10.864  -6.784  0.00  0.00     0.000 C 
BRANCH  16  17
ATOM     17  C   UNL d   1       1.142 -12.333  -6.812  0.00  0.00     0.000 C 
BRANCH  17  18
ATOM     18  C   UNL d   1       1.620 -12.999  -8.098  0.00  0.00    -0.000 C 
BRANCH  18  19
ATOM     19  C   UNL d   1       1.220 -14.470  -8.134  0.00  0.00    -0.005 C 
ATOM     20  C   UNL d   1       1.697 -15.131  -9.416  0.00  0.00     0.005 C 
ENDBRANCH  18  19
ENDBRANCH  17  18
ENDBRANCH  16  17
ENDBRANCH  15  16
ENDBRANCH  14  15
ENDBRANCH  13  14
ENDBRANCH  12  13
ENDBRANCH  11  12
ENDBRANCH  10  11
ENDBRANCH   9  10
ENDBRANCH   8   9
ENDBRANCH   5   8
BRANCH   1  21
ATOM     21  C   UNL d   1       0.155   2.282  -0.036  0.00  0.00     0.045 A 
ATOM     22  C   UNL d   1      -0.889   3.067   0.473  0.00  0.00     0.030 A 
ATOM     23  C   UNL d   1      -0.789   4.463   0.516  0.00  0.00     0.002 A 
ATOM     24  C   UNL d   1       0.346   5.101   0.026  0.00  0.00     0.000 A 
ATOM     25  C   UNL d   1       1.376   4.345  -0.519  0.00  0.00     0.002 A 
ATOM     26  C   UNL d   1       1.279   2.950  -0.550  0.00  0.00     0.030 A 
ENDBRANCH   1  21
TORSDOF 13
