REMARK  5 active torsions:
REMARK  status: ('A' for Active; 'I' for Inactive)
REMARK    1  A    between atoms: C_8  and  N_1 
REMARK    2  A    between atoms: C_9  and  C_2 
REMARK    3  A    between atoms: S_14  and  C_5 
REMARK    4  A    between atoms: C_12  and  C_13 
REMARK    5  A    between atoms: C_25  and  S_14 
ROOT
ATOM      1  C   UNL d   1      -4.798   1.805  -1.230  0.00  0.00    -0.107 C 
ATOM      2  C   UNL d   1      -5.954   1.994  -1.495  0.00  0.00     0.013 C 
ATOM      3  C   UNL d   1      -3.362   1.613  -0.907  0.00  0.00     0.175 C 
ENDROOT
BRANCH   3   4
ATOM      4  S   UNL d   1      -2.982  -0.132  -0.533  0.00  0.00    -0.080 SA
BRANCH   4   5
ATOM      5  C   UNL d   1      -1.257  -0.087  -0.274  0.00  0.00     0.168 A 
ATOM      6  N   UNL d   1      -0.368  -1.156  -0.413  0.00  0.00    -0.275 N 
ATOM      7  C   UNL d   1       0.867  -0.620   0.009  0.00  0.00     0.139 A 
ATOM      8  N   UNL d   1       0.659   0.605   0.463  0.00  0.00    -0.282 N 
ATOM      9  N   UNL d   1      -0.648   0.945   0.259  0.00  0.00    -0.278 N 
ATOM     10  HN  UNL d   1       1.364   1.202   0.897  1.00  0.00     0.188 HD
ATOM     11  HN  UNL d   1      -1.076   1.844   0.483  1.00  0.00     0.189 HD
BRANCH   6  12
ATOM     12  C   UNL d   1      -0.620  -2.487  -0.886  0.00  0.00     0.043 A 
ATOM     13  C   UNL d   1       0.130  -3.571  -0.396  0.00  0.00     0.032 A 
ATOM     14  C   UNL d   1      -0.009  -4.848  -0.950  0.00  0.00     0.026 A 
ATOM     15  C   UNL d   1      -0.948  -5.070  -1.951  0.00  0.00     0.034 A 
ATOM     16  C   UNL d   1      -1.743  -4.023  -2.405  0.00  0.00     0.026 A 
ATOM     17 CL   UNL d   1      -1.118  -6.637  -2.637  0.00  0.00    -0.084 Cl
ATOM     18  C   UNL d   1      -1.570  -2.733  -1.887  0.00  0.00     0.032 A 
ENDBRANCH   6  12
BRANCH   7  19
ATOM     19  C   UNL d   1       2.216  -1.226  -0.068  0.00  0.00     0.010 A 
ATOM     20  C   UNL d   1       2.638  -2.010  -1.147  0.00  0.00     0.016 A 
ATOM     21  C   UNL d   1       3.897  -2.636  -1.147  0.00  0.00     0.009 A 
ATOM     22  C   UNL d   1       4.816  -2.447  -0.100  0.00  0.00    -0.051 A 
ATOM     23  C   UNL d   1       4.417  -1.591   0.938  0.00  0.00     0.009 A 
ATOM     24  C   UNL d   1       3.142  -0.997   0.957  0.00  0.00     0.016 A 
BRANCH  22  25
ATOM     25  C   UNL d   1       6.180  -3.166  -0.120  0.00  0.00    -0.024 C 
ATOM     26  C   UNL d   1       7.084  -2.799   1.079  0.00  0.00     0.019 C 
ATOM     27  C   UNL d   1       5.966  -4.696  -0.081  0.00  0.00     0.019 C 
ATOM     28  C   UNL d   1       6.965  -2.813  -1.403  0.00  0.00     0.019 C 
ENDBRANCH  22  25
ENDBRANCH   7  19
ENDBRANCH   4   5
ENDBRANCH   3   4
TORSDOF 5
