REMARK  6 active torsions:
REMARK  status: ('A' for Active; 'I' for Inactive)
REMARK    1  A    between atoms: C_7  and  N_1 
REMARK    2  A    between atoms: C_2  and  C_17 
REMARK    3  A    between atoms: C_15  and  C_3 
REMARK    4  A    between atoms: C_8  and  C_9 
REMARK       I    between atoms: N_18  and  C_8 
REMARK    5  A    between atoms: N_12  and  N_18 
REMARK    6  A    between atoms: O_25  and  C_22 
ROOT
ATOM      1  N   UNL d   1      -1.299  -1.846  -6.019  0.00  0.00    -0.308 N 
ATOM      2  HN  UNL d   1      -1.370  -0.900  -5.644  1.00  0.00     0.186 HD
ATOM      3  C   UNL d   1      -2.180  -2.303  -6.853  0.00  0.00     0.122 C 
ENDROOT
BRANCH   3   4
ATOM      4  C   UNL d   1      -3.366  -1.530  -7.148  0.00  0.00     0.026 A 
ATOM      5  C   UNL d   1      -4.652  -2.013  -7.557  0.00  0.00     0.071 A 
ATOM      6  N   UNL d   1      -5.483  -0.987  -7.811  0.00  0.00    -0.299 N 
ATOM      7  N   UNL d   1      -4.777   0.106  -7.493  0.00  0.00    -0.310 N 
ATOM      8  HN  UNL d   1      -6.438  -1.030  -8.168  1.00  0.00     0.187 HD
ATOM      9  C   UNL d   1      -3.509  -0.160  -7.081  0.00  0.00     0.122 A 
ATOM     10  H   UNL d   1      -5.230   1.010  -7.582  0.00  0.00     0.186 HD
BRANCH   5  11
ATOM     11  C   UNL d   1      -5.106  -3.404  -7.669  0.00  0.00    -0.007 A 
ATOM     12  C   UNL d   1      -4.615  -4.379  -6.792  0.00  0.00     0.016 A 
ATOM     13  C   UNL d   1      -4.998  -5.718  -6.908  0.00  0.00     0.037 A 
ATOM     14  C   UNL d   1      -5.913  -6.101  -7.884  0.00  0.00     0.068 A 
ATOM     15  C   UNL d   1      -6.444  -5.128  -8.734  0.00  0.00     0.037 A 
ATOM     16  C   UNL d   1      -6.046  -3.789  -8.630  0.00  0.00     0.016 A 
BRANCH  14  17
ATOM     17  O   UNL d   1      -6.360  -7.377  -8.096  0.00  0.00    -0.356 OA
ATOM     18  C   UNL d   1      -5.813  -8.385  -7.252  0.00  0.00     0.210 C 
ENDBRANCH  14  17
ENDBRANCH   5  11
ENDBRANCH   3   4
BRANCH   1  19
ATOM     19  N   UNL d   1      -0.260  -2.683  -5.657  0.00  0.00    -0.266 N 
ATOM     20  C   UNL d   1      -0.378  -4.065  -5.500  0.00  0.00     0.270 C 
ATOM     21  O   UNL d   1      -1.388  -4.712  -5.770  0.00  0.00    -0.266 OA
ATOM     22  H   UNL d   1       0.482  -2.185  -5.184  0.00  0.00     0.190 HD
BRANCH  20  23
ATOM     23  C   UNL d   1       0.801  -4.813  -4.950  0.00  0.00     0.036 A 
ATOM     24  C   UNL d   1       0.710  -6.217  -4.906  0.00  0.00     0.053 A 
ATOM     25  C   UNL d   1       1.765  -6.980  -4.388  0.00  0.00     0.103 A 
ATOM     26  C   UNL d   1       2.924  -6.357  -3.915  0.00  0.00     0.036 A 
ATOM     27  C   UNL d   1       3.020  -4.966  -3.960  0.00  0.00     0.003 A 
ATOM     28  C   UNL d   1       1.967  -4.196  -4.473  0.00  0.00     0.017 A 
BRANCH  25  29
ATOM     29  N   UNL d   1       1.652  -8.443  -4.330  0.00  0.00    -0.116 N 
ATOM     30  O   UNL d   1       0.607  -8.958  -4.753  0.00  0.00    -0.532 OA
ATOM     31  O   UNL d   1       2.606  -9.076  -3.859  0.00  0.00    -0.532 OA
ENDBRANCH  25  29
ENDBRANCH  20  23
ENDBRANCH   1  19
TORSDOF 6
