REMARK  4 active torsions:
REMARK  status: ('A' for Active; 'I' for Inactive)
REMARK    1  A    between atoms: C_7  and  C_2 
REMARK    2  A    between atoms: O_9  and  C_8 
REMARK    3  A    between atoms: C_10  and  O_9 
REMARK    4  A    between atoms: C_11  and  C_10 
ROOT
ATOM      1  C   UNL d   1      -1.072  -1.948   0.218  0.00  0.00     0.125 C 
ATOM      2  C   UNL d   1       0.148  -1.746  -0.308  0.00  0.00     0.048 C 
ATOM      3  N   UNL d   1      -1.490  -3.700   2.076  0.00  0.00    -0.191 NA
ATOM      4  N   UNL d   1      -3.109  -0.709  -0.787  0.00  0.00    -0.191 NA
ATOM      5  C   UNL d   1      -1.303  -2.915   1.240  0.00  0.00     0.111 C 
ATOM      6  C   UNL d   1      -2.198  -1.246  -0.312  0.00  0.00     0.111 C 
ENDROOT
BRANCH   2   7
ATOM      7  C   UNL d   1       1.344  -2.571  -0.054  0.00  0.00    -0.001 A 
ATOM      8  C   UNL d   1       2.372  -2.253   0.856  0.00  0.00     0.079 A 
ATOM      9  C   UNL d   1       3.505  -3.076   0.920  0.00  0.00     0.037 A 
ATOM     10  C   UNL d   1       3.585  -4.246   0.162  0.00  0.00     0.003 A 
ATOM     11  C   UNL d   1       2.552  -4.590  -0.698  0.00  0.00     0.001 A 
ATOM     12  C   UNL d   1       1.445  -3.749  -0.817  0.00  0.00     0.014 A 
BRANCH   8  13
ATOM     13  O   UNL d   1       2.266  -1.111   1.615  0.00  0.00    -0.346 OA
BRANCH  13  14
ATOM     14  C   UNL d   1       2.806  -1.201   2.950  0.00  0.00     0.214 C 
BRANCH  14  15
ATOM     15  C   UNL d   1       3.996  -0.292   3.203  0.00  0.00    -0.034 A 
ATOM     16  C   UNL d   1       4.098   0.966   2.594  0.00  0.00     0.009 A 
ATOM     17  C   UNL d   1       5.101   1.865   2.974  0.00  0.00     0.001 A 
ATOM     18  C   UNL d   1       6.018   1.518   3.965  0.00  0.00     0.000 A 
ATOM     19  C   UNL d   1       5.951   0.260   4.557  0.00  0.00     0.001 A 
ATOM     20  C   UNL d   1       4.949  -0.639   4.178  0.00  0.00     0.009 A 
ENDBRANCH  14  15
ENDBRANCH  13  14
ENDBRANCH   8  13
ENDBRANCH   2   7
TORSDOF 4
