REMARK  3 active torsions:
REMARK  status: ('A' for Active; 'I' for Inactive)
REMARK    1  A    between atoms: C_5  and  C_1 
REMARK    2  A    between atoms: C_6  and  C_2 
REMARK    3  A    between atoms: O_7  and  N_3 
ROOT
ATOM      1  C   UNL d   1       3.297  -0.869   0.845  0.00  0.00     0.027 C 
ATOM      2  C   UNL d   1       2.709  -1.687   1.732  0.00  0.00     0.013 C 
ENDROOT
BRANCH   1   3
ATOM      3  C   UNL d   1       2.560   0.004  -0.119  0.00  0.00     0.028 C 
ATOM      4  N   UNL d   1       3.290   0.747  -0.906  0.00  0.00    -0.274 N 
ATOM      5  HN  UNL d   1       4.310   0.748  -0.900  1.00  0.00     0.193 HD
ATOM      6  C   UNL d   1       1.045  -0.012  -0.113  0.00  0.00     0.070 C 
BRANCH   4   7
ATOM      7  O   UNL d   1       2.517   1.540  -1.758  0.00  0.00    -0.290 OA
ATOM      8  H   UNL d   1       3.195   2.033  -2.256  0.00  0.00     0.244 HD
ENDBRANCH   4   7
ENDBRANCH   1   3
BRANCH   2   9
ATOM      9  C   UNL d   1       3.440  -2.504   2.714  0.00  0.00    -0.036 A 
ATOM     10  C   UNL d   1       4.663  -2.101   3.268  0.00  0.00     0.011 A 
ATOM     11  C   UNL d   1       5.296  -2.876   4.243  0.00  0.00     0.001 A 
ATOM     12  C   UNL d   1       4.708  -4.058   4.686  0.00  0.00     0.000 A 
ATOM     13  C   UNL d   1       3.487  -4.466   4.154  0.00  0.00     0.001 A 
ATOM     14  C   UNL d   1       2.856  -3.692   3.177  0.00  0.00     0.011 A 
ENDBRANCH   2   9
TORSDOF 3
