REMARK  2 active torsions:
REMARK  status: ('A' for Active; 'I' for Inactive)
REMARK    1  A    between atoms: C_3  and  N_1 
REMARK    2  A    between atoms: S_11  and  C_10 
ROOT
ATOM      1  C   UNL d   1       0.697  -2.425  -0.142  0.00  0.00     0.047 A 
ATOM      2  C   UNL d   1       0.178  -3.191  -1.206  0.00  0.00     0.048 A 
ATOM      3  C   UNL d   1       0.494  -4.548  -1.379  0.00  0.00     0.002 A 
ATOM      4  C   UNL d   1       1.536  -3.083   0.770  0.00  0.00     0.030 A 
ATOM      5  C   UNL d   1       1.853  -4.435   0.620  0.00  0.00     0.004 A 
ATOM      6  C   UNL d   1       1.339  -5.160  -0.450  0.00  0.00     0.018 A 
ENDROOT
BRANCH   1   7
ATOM      7  N   UNL d   1       0.400  -1.020  -0.023  0.00  0.00    -0.242 N 
ATOM      8  C   UNL d   1      -0.738  -0.461  -0.574  0.00  0.00     0.293 A 
ATOM      9  S   UNL d   1      -0.780   1.274  -0.337  0.00  0.00    -0.059 SA
ATOM     10  O   UNL d   1      -1.673  -1.010  -1.135  0.00  0.00    -0.259 OA
ATOM     11  C   UNL d   1       0.772   1.290   0.546  0.00  0.00     0.187 A 
ATOM     12  C   UNL d   1       1.243  -0.136   0.636  0.00  0.00     0.241 A 
ATOM     13  O   UNL d   1       2.300  -0.389   1.208  0.00  0.00    -0.272 OA
ENDBRANCH   1   7
BRANCH   3  14
ATOM     14  S   UNL d   1      -0.084  -5.567  -2.734  0.00  0.00    -0.134 SA
ATOM     15  C   UNL d   1      -1.108  -4.435  -3.715  0.00  0.00     0.095 C 
ENDBRANCH   3  14
TORSDOF 2
