REMARK  12 active torsions:
REMARK  status: ('A' for Active; 'I' for Inactive)
REMARK       I    between atoms: C_9  and  N_1 
REMARK    1  A    between atoms: C_2  and  C_5 
REMARK    2  A    between atoms: C_3  and  C_4 
REMARK    3  A    between atoms: C_4  and  O_24 
REMARK    4  A    between atoms: C_7  and  C_4 
REMARK       I    between atoms: N_13  and  C_5 
REMARK    5  A    between atoms: C_7  and  O_11 
REMARK    6  A    between atoms: C_7  and  C_10 
REMARK    7  A    between atoms: C_10  and  O_12 
REMARK    8  A    between atoms: C_18  and  C_10 
REMARK    9  A    between atoms: C_14  and  O_11 
REMARK   10  A    between atoms: C_15  and  O_12 
REMARK   11  A    between atoms: C_16  and  O_20 
REMARK   12  A    between atoms: O_20  and  C_18 
ROOT
ATOM      1  C   UNL d   1       1.044  -2.176  -3.975  0.00  0.00     0.183 C 
ENDROOT
BRANCH   1   2
ATOM      2  C   UNL d   1      -0.209  -1.914  -4.895  0.00  0.00     0.181 C 
ATOM      3  N   UNL d   1      -0.049  -2.458  -6.257  0.00  0.00    -0.322 N 
ATOM      4  C   UNL d   1       0.656  -1.538  -7.183  0.00  0.00     0.190 C 
ATOM      5  C   UNL d   1      -0.895  -3.380  -6.854  0.00  0.00     0.217 C 
ATOM      6  C   UNL d   1       0.847  -0.177  -6.514  0.00  0.00     0.111 C 
ATOM      7  S   UNL d   1      -0.476  -0.145  -5.300  0.00  0.00    -0.138 SA
ATOM      8  O   UNL d   1      -0.983  -3.478  -8.083  0.00  0.00    -0.274 OA
ATOM      9  C   UNL d   1      -1.766  -4.262  -5.998  0.00  0.00     0.117 C 
BRANCH   4  10
ATOM     10  C   UNL d   1       2.044  -2.041  -7.630  0.00  0.00     0.242 C 
ATOM     11  N   UNL d   1       2.577  -1.512  -8.812  0.00  0.00    -0.359 N 
ATOM     12  C   UNL d   1       3.928  -1.906  -9.181  0.00  0.00     0.152 C 
ATOM     13  C   UNL d   1       1.769  -0.984  -9.902  0.00  0.00     0.152 C 
ATOM     14  O   UNL d   1       2.719  -2.762  -6.891  0.00  0.00    -0.271 OA
ENDBRANCH   4  10
ENDBRANCH   1   2
BRANCH   1  15
ATOM     15  O   UNL d   1       1.313  -3.602  -3.970  0.00  0.00    -0.390 OA
ATOM     16  H   UNL d   1       0.636  -4.062  -3.446  0.00  0.00     0.210 HD
ENDBRANCH   1  15
BRANCH   1  17
ATOM     17  C   UNL d   1       0.946  -1.728  -2.481  0.00  0.00     0.195 C 
BRANCH  17  18
ATOM     18  O   UNL d   1       2.249  -1.981  -1.888  0.00  0.00    -0.311 OA
BRANCH  18  19
ATOM     19  C   UNL d   1       2.331  -2.915  -0.913  0.00  0.00     0.255 C 
ATOM     20  O   UNL d   1       1.395  -3.611  -0.517  0.00  0.00    -0.266 OA
ATOM     21  C   UNL d   1       3.735  -3.024  -0.392  0.00  0.00     0.126 C 
ENDBRANCH  18  19
ENDBRANCH  17  18
BRANCH  17  22
ATOM     22  C   UNL d   1       0.590  -0.247  -2.197  0.00  0.00     0.188 C 
BRANCH  22  23
ATOM     23  O   UNL d   1       1.591   0.694  -2.670  0.00  0.00    -0.311 OA
BRANCH  23  24
ATOM     24  C   UNL d   1       2.685   0.986  -1.917  0.00  0.00     0.255 C 
ATOM     25  O   UNL d   1       2.970   0.485  -0.838  0.00  0.00    -0.266 OA
ATOM     26  C   UNL d   1       3.508   2.068  -2.554  0.00  0.00     0.126 C 
ENDBRANCH  23  24
ENDBRANCH  22  23
BRANCH  22  27
ATOM     27  C   UNL d   1       0.074   0.049  -0.772  0.00  0.00     0.213 C 
BRANCH  27  28
ATOM     28  O   UNL d   1      -0.892  -0.899  -0.275  0.00  0.00    -0.319 OA
BRANCH  28  29
ATOM     29  C   UNL d   1      -2.105  -0.948  -0.884  0.00  0.00     0.254 C 
ATOM     30  O   UNL d   1      -2.413  -0.340  -1.897  0.00  0.00    -0.266 OA
ATOM     31  C   UNL d   1      -3.003  -1.913  -0.175  0.00  0.00     0.126 C 
ENDBRANCH  28  29
ENDBRANCH  27  28
ENDBRANCH  22  27
ENDBRANCH  17  22
ENDBRANCH   1  17
TORSDOF 12
