REMARK  9 active torsions:
REMARK  status: ('A' for Active; 'I' for Inactive)
REMARK    1  A    between atoms: C_3  and  N_1 
REMARK    2  A    between atoms: N_14  and  C_24 
REMARK    3  A    between atoms: C_25  and  N_14 
REMARK    4  A    between atoms: O_15  and  C_16 
REMARK    5  A    between atoms: C_19  and  O_15 
REMARK    6  A    between atoms: C_17  and  C_25 
REMARK    7  A    between atoms: C_18  and  C_19 
REMARK    8  A    between atoms: O_23  and  C_18 
REMARK    9  A    between atoms: C_24  and  C_18 
ROOT
ATOM      1  C   UNL d   1      -2.908   5.196   4.575  0.00  0.00     0.170 C 
ENDROOT
BRANCH   1   2
ATOM      2  C   UNL d   1      -4.280   5.189   3.876  0.00  0.00     0.209 C 
BRANCH   2   3
ATOM      3  O   UNL d   1      -4.657   3.842   3.575  0.00  0.00    -0.349 OA
BRANCH   3   4
ATOM      4  C   UNL d   1      -5.861   3.697   2.942  0.00  0.00     0.069 A 
ATOM      5  C   UNL d   1      -5.963   2.566   2.125  0.00  0.00     0.039 A 
ATOM      6  C   UNL d   1      -7.147   2.286   1.444  0.00  0.00     0.039 A 
ATOM      7  C   UNL d   1      -8.247   3.138   1.599  0.00  0.00     0.103 A 
ATOM      8  C   UNL d   1      -8.161   4.267   2.425  0.00  0.00     0.039 A 
ATOM      9  C   UNL d   1      -6.964   4.542   3.095  0.00  0.00     0.039 A 
BRANCH   7  10
ATOM     10  N   UNL d   1      -9.506   2.839   0.906  0.00  0.00    -0.116 N 
ATOM     11  O   UNL d   1     -10.463   3.600   1.094  0.00  0.00    -0.532 OA
ATOM     12  O   UNL d   1      -9.534   1.843   0.169  0.00  0.00    -0.532 OA
ENDBRANCH   7  10
ENDBRANCH   3   4
ENDBRANCH   2   3
ENDBRANCH   1   2
BRANCH   1  13
ATOM     13  O   UNL d   1      -1.885   4.634   3.741  0.00  0.00    -0.392 OA
ATOM     14  H   UNL d   1      -1.998   4.986   2.842  0.00  0.00     0.210 HD
ENDBRANCH   1  13
BRANCH   1  15
ATOM     15  C   UNL d   1      -2.496   6.631   4.960  0.00  0.00     0.303 C 
BRANCH  15  16
ATOM     16  N   UNL d   1      -3.478   7.253   5.850  0.00  0.00     0.090 N 
ATOM     17  H   UNL d   1      -3.535   6.725   6.722  0.00  0.00     0.316 HD
BRANCH  16  18
ATOM     18  C   UNL d   1      -3.126   8.635   6.165  0.00  0.00     0.308 C 
BRANCH  18  19
ATOM     19  C   UNL d   1      -4.174   9.264   7.055  0.00  0.00    -0.028 A 
ATOM     20  C   UNL d   1      -3.836   9.727   8.337  0.00  0.00     0.048 A 
ATOM     21  C   UNL d   1      -4.820  10.335   9.091  0.00  0.00     0.105 A 
ATOM     22  O   UNL d   1      -4.655  10.858  10.336  0.00  0.00    -0.323 OA
ATOM     23  C   UNL d   1      -6.105  10.483   8.626  0.00  0.00     0.105 A 
ATOM     24  C   UNL d   1      -5.974  11.390  10.582  0.00  0.00     0.352 A 
ATOM     25  O   UNL d   1      -6.910  11.119   9.518  0.00  0.00    -0.323 OA
ATOM     26  C   UNL d   1      -6.482  10.028   7.383  0.00  0.00     0.040 A 
ATOM     27  C   UNL d   1      -5.505   9.415   6.592  0.00  0.00     0.012 A 
ENDBRANCH  18  19
ENDBRANCH  16  18
ENDBRANCH  15  16
ENDBRANCH   1  15
TORSDOF 9
