REMARK  5 active torsions:
REMARK  status: ('A' for Active; 'I' for Inactive)
REMARK    1  A    between atoms: C_9  and  C_3 
REMARK    2  A    between atoms: C_11  and  N_4 
REMARK    3  A    between atoms: C_8  and  C_10 
REMARK       I    between atoms: C_10  and  N_14 
REMARK    4  A    between atoms: C_13  and  C_11 
REMARK       I    between atoms: N_17  and  C_13 
REMARK    5  A    between atoms: N_14  and  N_17 
ROOT
ATOM      1  C   UNL d   1      -2.452  -0.075  -0.156  0.00  0.00     0.271 C 
ENDROOT
BRANCH   1   2
ATOM      2  N   UNL d   1      -1.156   0.130   0.456  0.00  0.00    -0.207 N 
ATOM      3  N   UNL d   1      -0.438  -0.818   1.089  0.00  0.00    -0.268 N 
ATOM      4  C   UNL d   1       0.541  -0.062   1.626  0.00  0.00     0.144 A 
ATOM      5  HN  UNL d   1      -0.592  -1.824   1.147  1.00  0.00     0.190 HD
ATOM      6  N   UNL d   1       0.431   1.263   1.283  0.00  0.00    -0.266 N 
ATOM      7  N   UNL d   1      -0.650   1.376   0.530  0.00  0.00    -0.002 NA
ATOM      8  HN  UNL d   1       1.063   2.016   1.556  1.00  0.00     0.186 HD
BRANCH   4   9
ATOM      9  C   UNL d   1       1.545  -0.554   2.557  0.00  0.00     0.014 A 
ATOM     10  C   UNL d   1       1.659  -1.927   2.816  0.00  0.00     0.039 A 
ATOM     11  C   UNL d   1       2.551  -2.386   3.785  0.00  0.00     0.036 A 
ATOM     12 CL   UNL d   1       2.652  -4.071   4.115  0.00  0.00    -0.084 Cl
ATOM     13  C   UNL d   1       3.342  -1.493   4.502  0.00  0.00     0.047 A 
ATOM     14  C   UNL d   1       3.249  -0.132   4.230  0.00  0.00     0.036 A 
ATOM     15  C   UNL d   1       2.364   0.343   3.261  0.00  0.00     0.039 A 
ATOM     16 CL   UNL d   1       4.214   0.981   5.122  0.00  0.00    -0.084 Cl
ENDBRANCH   4   9
ENDBRANCH   1   2
BRANCH   1  17
ATOM     17  C   UNL d   1      -3.091  -1.439  -0.119  0.00  0.00     0.257 C 
ATOM     18  N   UNL d   1      -2.361  -2.547   0.238  0.00  0.00    -0.266 N 
ATOM     19  H   UNL d   1      -1.470  -2.476   0.745  0.00  0.00     0.190 HD
ATOM     20  O   UNL d   1      -4.266  -1.562  -0.476  0.00  0.00    -0.270 OA
BRANCH  18  21
ATOM     21  N   UNL d   1      -3.054  -3.772   0.328  0.00  0.00    -0.263 N 
ATOM     22  C   UNL d   1      -2.578  -4.755   1.171  0.00  0.00     0.271 C 
ATOM     23  O   UNL d   1      -1.499  -4.645   1.751  0.00  0.00    -0.266 OA
ATOM     24  H   UNL d   1      -4.004  -3.775  -0.046  0.00  0.00     0.190 HD
BRANCH  22  25
ATOM     25  C   UNL d   1      -3.393  -6.001   1.339  0.00  0.00     0.055 A 
ATOM     26  C   UNL d   1      -4.788  -6.105   1.200  0.00  0.00     0.051 A 
ATOM     27  C   UNL d   1      -5.436  -7.330   1.430  0.00  0.00     0.048 A 
ATOM     28 CL   UNL d   1      -5.813  -4.775   0.793  0.00  0.00    -0.083 Cl
ATOM     29  C   UNL d   1      -4.702  -8.456   1.794  0.00  0.00     0.035 A 
ATOM     30  C   UNL d   1      -3.321  -8.378   1.924  0.00  0.00     0.025 A 
ATOM     31 CL   UNL d   1      -5.507  -9.945   2.099  0.00  0.00    -0.084 Cl
ATOM     32  C   UNL d   1      -2.673  -7.157   1.703  0.00  0.00     0.020 A 
ENDBRANCH  22  25
ENDBRANCH  18  21
ENDBRANCH   1  17
TORSDOF 5
