REMARK  6 active torsions:
REMARK  status: ('A' for Active; 'I' for Inactive)
REMARK    1  A    between atoms: S_2  and  C_1 
REMARK    2  A    between atoms: C_8  and  S_2 
REMARK    3  A    between atoms: C_7  and  C_4 
REMARK    4  A    between atoms: O_17  and  C_7 
REMARK    5  A    between atoms: C_14  and  C_22 
REMARK    6  A    between atoms: C_22  and  O_17 
ROOT
ATOM      1  C   UNL d   1       0.708   1.246  -0.006  0.00  0.00     0.078 A 
ATOM      2  C   UNL d   1       1.331  -0.067  -0.046  0.00  0.00    -0.016 A 
ATOM      3  C   UNL d   1       0.358  -1.077  -0.053  0.00  0.00     0.087 A 
ATOM      4  S   UNL d   1      -1.233  -0.427  -0.098  0.00  0.00    -0.094 SA
ATOM      5  C   UNL d   1      -0.669   1.170  -0.027  0.00  0.00     0.075 A 
ATOM      6  C   UNL d   1       2.806  -0.344  -0.040  0.00  0.00     0.051 C 
ENDROOT
BRANCH   1   7
ATOM      7  S   UNL d   1       1.496   2.806   0.061  0.00  0.00     0.207 S 
ATOM      8  O   UNL d   1       0.498   3.705   0.603  0.00  0.00    -0.217 OA
ATOM      9  O   UNL d   1       2.765   2.593   0.725  0.00  0.00    -0.217 OA
BRANCH   7  10
ATOM     10  C   UNL d   1       1.786   3.252  -1.633  0.00  0.00     0.064 A 
ATOM     11  C   UNL d   1       0.851   4.050  -2.303  0.00  0.00     0.025 A 
ATOM     12  C   UNL d   1       1.083   4.418  -3.630  0.00  0.00     0.025 A 
ATOM     13  C   UNL d   1       2.247   3.998  -4.273  0.00  0.00     0.034 A 
ATOM     14  C   UNL d   1       3.191   3.224  -3.596  0.00  0.00     0.025 A 
ATOM     15 CL   UNL d   1       2.524   4.441  -5.912  0.00  0.00    -0.084 Cl
ATOM     16  C   UNL d   1       2.967   2.856  -2.267  0.00  0.00     0.025 A 
ENDBRANCH   7  10
ENDBRANCH   1   7
BRANCH   3  17
ATOM     17  C   UNL d   1       0.467  -2.537   0.011  0.00  0.00     0.301 C 
ATOM     18  O   UNL d   1      -0.469  -3.328   0.009  0.00  0.00    -0.259 OA
BRANCH  17  19
ATOM     19  O   UNL d   1       1.769  -2.910   0.155  0.00  0.00    -0.313 OA
BRANCH  19  20
ATOM     20  C   UNL d   1       2.001  -4.232   0.654  0.00  0.00     0.206 C 
BRANCH  20  21
ATOM     21  C   UNL d   1       2.647  -5.072  -0.403  0.00  0.00    -0.011 C 
ATOM     22  C   UNL d   1       3.862  -5.626  -0.286  0.00  0.00     0.009 C 
ENDBRANCH  20  21
ENDBRANCH  19  20
ENDBRANCH  17  19
ENDBRANCH   3  17
TORSDOF 6
