REMARK  5 active torsions:
REMARK  status: ('A' for Active; 'I' for Inactive)
REMARK    1  A    between atoms: C_8  and  C_1 
REMARK    2  A    between atoms: N_6  and  C_2 
REMARK    3  A    between atoms: C_5  and  N_3 
REMARK    4  A    between atoms: O_18  and  C_8 
REMARK    5  A    between atoms: O_19  and  C_13 
ROOT
ATOM      1  N   UNL d   1       2.703   2.577   0.221  0.00  0.00    -0.297 N 
ATOM      2  HN  UNL d   1       1.758   2.957   0.267  1.00  0.00     0.187 HD
ATOM      3  N   UNL d   1       2.952   1.350   0.224  0.00  0.00    -0.299 N 
ATOM      4  HN  UNL d   1       3.889   0.961   0.118  1.00  0.00     0.187 HD
ENDROOT
BRANCH   1   5
ATOM      5  C   UNL d   1       3.867   3.387   0.149  0.00  0.00     0.092 A 
ATOM      6  C   UNL d   1       3.966   4.544   0.978  0.00  0.00     0.005 A 
ATOM      7  C   UNL d   1       5.096   5.397   0.855  0.00  0.00    -0.024 A 
ATOM      8  C   UNL d   1       2.979   4.907   1.924  0.00  0.00     0.014 A 
ATOM      9  C   UNL d   1       5.201   6.550   1.650  0.00  0.00     0.012 A 
ATOM     10  C   UNL d   1       6.101   5.091  -0.074  0.00  0.00     0.015 A 
ATOM     11  C   UNL d   1       4.205   6.885   2.566  0.00  0.00     0.001 A 
ATOM     12  C   UNL d   1       3.095   6.061   2.705  0.00  0.00     0.001 A 
ATOM     13  C   UNL d   1       5.998   3.972  -0.893  0.00  0.00     0.040 A 
ATOM     14  C   UNL d   1       4.890   3.140  -0.787  0.00  0.00     0.094 A 
BRANCH  14  15
ATOM     15  O   UNL d   1       4.840   2.084  -1.659  0.00  0.00    -0.358 OA
ATOM     16  H   UNL d   1       4.047   1.562  -1.425  0.00  0.00     0.217 HD
ENDBRANCH  14  15
ENDBRANCH   1   5
BRANCH   3  17
ATOM     17  C   UNL d   1       1.790   0.567   0.391  0.00  0.00     0.071 A 
ATOM     18  C   UNL d   1       1.525  -0.609  -0.288  0.00  0.00     0.108 A 
ATOM     19  S   UNL d   1       0.024  -1.280   0.240  0.00  0.00    -0.094 SA
ATOM     20  C   UNL d   1      -0.237  -0.027   1.366  0.00  0.00     0.053 A 
ATOM     21  C   UNL d   1       0.787   0.891   1.355  0.00  0.00     0.039 A 
BRANCH  18  22
ATOM     22  C   UNL d   1       2.254  -1.335  -1.313  0.00  0.00     0.302 C 
ATOM     23  O   UNL d   1       1.950  -2.431  -1.769  0.00  0.00    -0.259 OA
BRANCH  22  24
ATOM     24  O   UNL d   1       3.347  -0.626  -1.728  0.00  0.00    -0.322 OA
ATOM     25  C   UNL d   1       4.115  -1.300  -2.729  0.00  0.00     0.213 C 
ENDBRANCH  22  24
ENDBRANCH  18  22
ENDBRANCH   3  17
TORSDOF 5
