REMARK  7 active torsions:
REMARK  status: ('A' for Active; 'I' for Inactive)
REMARK    1  A    between atoms: C_3  and  C_1 
REMARK    2  A    between atoms: C_7  and  C_2 
REMARK       I    between atoms: N_6  and  C_3 
REMARK    3  A    between atoms: C_10  and  N_6 
REMARK    4  A    between atoms: C_11  and  N_6 
REMARK    5  A    between atoms: C_13  and  C_10 
REMARK    6  A    between atoms: O_22  and  C_13 
REMARK    7  A    between atoms: C_27  and  O_22 
ROOT
ATOM      1  C   UNL d   1       0.143  -2.445   0.331  0.00  0.00     0.263 C 
ATOM      2  N   UNL d   1      -0.527  -3.647   0.009  0.00  0.00    -0.304 N 
ATOM      3  O   UNL d   1       1.284  -2.529   0.805  0.00  0.00    -0.267 OA
ENDROOT
BRANCH   1   4
ATOM      4  C   UNL d   1      -0.364  -1.082   0.155  0.00  0.00     0.093 A 
ATOM      5  C   UNL d   1      -1.077  -0.313  -0.844  0.00  0.00     0.085 A 
ATOM      6  N   UNL d   1      -1.069   0.988  -0.501  0.00  0.00    -0.259 N 
ATOM      7  O   UNL d   1      -0.486   1.089   0.726  0.00  0.00    -0.241 OA
ATOM      8  HN  UNL d   1      -1.434   1.760  -1.059  1.00  0.00     0.195 HD
ATOM      9  C   UNL d   1      -0.066  -0.127   1.122  0.00  0.00     0.090 A 
ATOM     10  C   UNL d   1       0.608  -0.172   2.438  0.00  0.00     0.080 C 
BRANCH   5  11
ATOM     11  C   UNL d   1      -1.767  -0.679  -2.093  0.00  0.00     0.015 A 
ATOM     12  C   UNL d   1      -3.013  -0.104  -2.457  0.00  0.00     0.046 A 
ATOM     13 CL   UNL d   1      -3.876   1.049  -1.491  0.00  0.00    -0.083 Cl
ATOM     14  C   UNL d   1      -3.681  -0.510  -3.623  0.00  0.00     0.025 A 
ATOM     15  C   UNL d   1      -3.141  -1.506  -4.428  0.00  0.00     0.002 A 
ATOM     16  C   UNL d   1      -1.918  -2.077  -4.087  0.00  0.00     0.001 A 
ATOM     17  C   UNL d   1      -1.224  -1.661  -2.938  0.00  0.00     0.015 A 
ENDBRANCH   5  11
ENDBRANCH   1   4
BRANCH   2  18
ATOM     18  C   UNL d   1       0.321  -4.862   0.161  0.00  0.00     0.243 C 
BRANCH  18  19
ATOM     19  C   UNL d   1       0.077  -5.727   1.393  0.00  0.00     0.277 C 
ATOM     20  O   UNL d   1       0.629  -6.806   1.574  0.00  0.00    -0.263 OA
BRANCH  19  21
ATOM     21  O   UNL d   1      -0.812  -5.156   2.267  0.00  0.00    -0.321 OA
BRANCH  21  22
ATOM     22  C   UNL d   1      -1.089  -5.900   3.465  0.00  0.00     0.174 C 
ATOM     23  C   UNL d   1      -2.175  -6.931   3.217  0.00  0.00     0.034 C 
ENDBRANCH  21  22
ENDBRANCH  19  21
ENDBRANCH  18  19
ENDBRANCH   2  18
BRANCH   2  24
ATOM     24  C   UNL d   1      -1.905  -3.850  -0.358  0.00  0.00     0.038 C 
ATOM     25  C   UNL d   1      -2.888  -2.873  -0.200  0.00  0.00     0.033 C 
ATOM     26  C   UNL d   1      -4.148  -3.002  -0.802  0.00  0.00     0.044 C 
ATOM     27  C   UNL d   1      -4.475  -4.165  -1.475  0.00  0.00     0.116 C 
ATOM     28  C   UNL d   1      -3.594  -5.228  -1.490  0.00  0.00     0.044 C 
ATOM     29  F   UNL d   1      -5.653  -4.270  -2.101  0.00  0.00    -0.206 F 
ATOM     30  C   UNL d   1      -2.324  -5.074  -0.925  0.00  0.00     0.033 C 
ENDBRANCH   2  24
TORSDOF 7
