REMARK  3 active torsions:
REMARK  status: ('A' for Active; 'I' for Inactive)
REMARK    1  A    between atoms: C_2  and  S_1 
REMARK    2  A    between atoms: N_4  and  S_1 
REMARK    3  A    between atoms: C_19  and  N_11 
ROOT
ATOM      1  N   UNL d   1      -0.660  -9.250  -5.117  0.00  0.00    -0.191 NA
ATOM      2  C   UNL d   1      -0.359  -8.357  -4.439  0.00  0.00     0.099 C 
ATOM      3  C   UNL d   1       0.444  -4.993  -1.938  0.00  0.00     0.030 A 
ATOM      4  C   UNL d   1       0.459  -4.878  -3.335  0.00  0.00     0.031 A 
ATOM      5  C   UNL d   1       0.292  -6.277  -1.395  0.00  0.00     0.031 A 
ATOM      6  C   UNL d   1      -0.013  -7.242  -3.602  0.00  0.00     0.044 A 
ATOM      7  C   UNL d   1       0.227  -5.986  -4.162  0.00  0.00     0.025 A 
ATOM      8  C   UNL d   1       0.047  -7.390  -2.215  0.00  0.00     0.025 A 
ENDROOT
BRANCH   3   9
ATOM      9  N   UNL d   1       0.396  -3.892  -1.090  0.00  0.00    -0.379 N 
ATOM     10  C   UNL d   1      -0.374  -2.725  -1.554  0.00  0.00     0.138 C 
ATOM     11  C   UNL d   1      -0.892  -1.987  -0.309  0.00  0.00     0.127 C 
ATOM     12  N   UNL d   1       0.254  -1.470   0.507  0.00  0.00    -0.203 NA
ATOM     13  C   UNL d   1       1.180  -2.600   0.903  0.00  0.00     0.127 C 
ATOM     14  C   UNL d   1       1.583  -3.529  -0.285  0.00  0.00     0.138 C 
BRANCH  12  15
ATOM     15  S   UNL d   1       0.981  -0.047  -0.075  0.00  0.00     0.246 S 
ATOM     16  O   UNL d   1       2.370  -0.301  -0.358  0.00  0.00    -0.206 OA
ATOM     17  O   UNL d   1       0.110   0.496  -1.099  0.00  0.00    -0.206 OA
BRANCH  15  18
ATOM     18  C   UNL d   1       0.901   1.084   1.272  0.00  0.00     0.105 A 
ATOM     19  C   UNL d   1       1.638   0.940   2.457  0.00  0.00     0.108 A 
ATOM     20  C   UNL d   1       1.680   2.003   3.464  0.00  0.00     0.086 A 
ATOM     21  N   UNL d   1       2.402  -0.066   2.905  0.00  0.00    -0.238 N 
ATOM     22  N   UNL d   1       2.463   1.603   4.471  0.00  0.00    -0.239 N 
ATOM     23  C   UNL d   1       0.993   3.223   3.318  0.00  0.00     0.034 A 
ATOM     24  O   UNL d   1       2.899   0.337   4.130  0.00  0.00    -0.156 OA
ATOM     25  HN  UNL d   1       2.692   2.125   5.317  1.00  0.00     0.197 HD
ATOM     26  C   UNL d   1       0.233   3.331   2.142  0.00  0.00     0.004 A 
ATOM     27  C   UNL d   1       0.184   2.305   1.160  0.00  0.00     0.027 A 
ATOM     28  HN  UNL d   1       2.581  -0.953   2.435  1.00  0.00     0.197 HD
ENDBRANCH  15  18
ENDBRANCH  12  15
ENDBRANCH   3   9
TORSDOF 3
