REMARK  9 active torsions:
REMARK  status: ('A' for Active; 'I' for Inactive)
REMARK    1  A    between atoms: N_4  and  S_1 
REMARK    2  A    between atoms: C_13  and  S_1 
REMARK    3  A    between atoms: C_8  and  C_2 
REMARK    4  A    between atoms: C_3  and  O_9 
REMARK    5  A    between atoms: C_5  and  N_4 
REMARK    6  A    between atoms: C_6  and  C_12 
REMARK    7  A    between atoms: C_7  and  C_19 
REMARK    8  A    between atoms: O_33  and  C_8 
REMARK    9  A    between atoms: O_9  and  C_11 
ROOT
ATOM      1  C   UNL d   1       0.621  -2.524   1.345  0.00  0.00     0.057 A 
ATOM      2  C   UNL d   1       1.958  -2.869   1.079  0.00  0.00     0.098 A 
ATOM      3  C   UNL d   1       0.125  -4.844   1.855  0.00  0.00     0.049 A 
ATOM      4  C   UNL d   1      -0.294  -3.508   1.726  0.00  0.00     0.043 A 
ATOM      5  C   UNL d   1       2.349  -4.207   1.099  0.00  0.00     0.040 A 
ATOM      6  C   UNL d   1       1.443  -5.186   1.512  0.00  0.00     0.019 A 
ENDROOT
BRANCH   1   7
ATOM      7  N   UNL d   1       0.195  -1.182   1.070  0.00  0.00    -0.179 NA
ATOM      8  H   UNL d   1      -0.554  -1.212   0.373  0.00  0.00     0.146 HD
BRANCH   7   9
ATOM      9  S   UNL d   1      -0.406  -0.192   2.296  0.00  0.00     0.245 S 
ATOM     10  O   UNL d   1      -1.848  -0.346   2.212  0.00  0.00    -0.206 OA
ATOM     11  O   UNL d   1       0.194   1.113   2.133  0.00  0.00    -0.206 OA
BRANCH   9  12
ATOM     12  C   UNL d   1       0.104  -0.832   3.868  0.00  0.00     0.074 A 
ATOM     13  C   UNL d   1       1.406  -0.596   4.311  0.00  0.00     0.025 A 
ATOM     14  C   UNL d   1       1.768  -0.959   5.612  0.00  0.00     0.018 A 
ATOM     15  C   UNL d   1       0.832  -1.540   6.483  0.00  0.00     0.048 A 
ATOM     16  C   UNL d   1      -0.476  -1.764   6.024  0.00  0.00     0.018 A 
ATOM     17  C   UNL d   1      -0.841  -1.407   4.724  0.00  0.00     0.025 A 
BRANCH  15  18
ATOM     18  C   UNL d   1       1.237  -1.897   7.893  0.00  0.00     0.417 C 
ATOM     19  F   UNL d   1       0.216  -2.389   8.649  0.00  0.00    -0.166 F 
ATOM     20  F   UNL d   1       2.219  -2.842   7.931  0.00  0.00    -0.166 F 
ATOM     21  F   UNL d   1       1.726  -0.827   8.580  0.00  0.00    -0.166 F 
ENDBRANCH  15  18
ENDBRANCH   9  12
ENDBRANCH   7   9
ENDBRANCH   1   7
BRANCH   2  22
ATOM     22  O   UNL d   1       2.817  -1.843   0.766  0.00  0.00    -0.307 OA
BRANCH  22  23
ATOM     23  C   UNL d   1       4.154  -1.851   0.998  0.00  0.00     0.099 A 
ATOM     24  C   UNL d   1       4.825  -2.287   2.137  0.00  0.00     0.114 A 
ATOM     25  S   UNL d   1       6.529  -2.030   1.950  0.00  0.00    -0.093 SA
ATOM     26  C   UNL d   1       6.344  -1.285   0.433  0.00  0.00     0.053 A 
ATOM     27  C   UNL d   1       5.028  -1.248   0.043  0.00  0.00     0.046 A 
BRANCH  24  28
ATOM     28  C   UNL d   1       4.317  -2.864   3.377  0.00  0.00     0.302 C 
ATOM     29  O   UNL d   1       3.139  -3.000   3.679  0.00  0.00    -0.259 OA
BRANCH  28  30
ATOM     30  O   UNL d   1       5.331  -3.263   4.205  0.00  0.00    -0.322 OA
ATOM     31  C   UNL d   1       4.892  -3.841   5.435  0.00  0.00     0.213 C 
ENDBRANCH  28  30
ENDBRANCH  24  28
ENDBRANCH  22  23
ENDBRANCH   2  22
BRANCH   3  32
ATOM     32  C   UNL d   1      -0.809  -5.913   2.369  0.00  0.00     0.417 C 
ATOM     33  F   UNL d   1      -2.080  -5.470   2.577  0.00  0.00    -0.166 F 
ATOM     34  F   UNL d   1      -0.914  -6.968   1.515  0.00  0.00    -0.166 F 
ATOM     35  F   UNL d   1      -0.395  -6.432   3.557  0.00  0.00    -0.166 F 
ENDBRANCH   3  32
TORSDOF 9
