REMARK  1 active torsions:
REMARK  status: ('A' for Active; 'I' for Inactive)
REMARK    1  A    between atoms: C_7  and  C_5 
ROOT
ATOM      1  N   UNL d   1       0.061  -0.900   0.579  0.00  0.00    -0.007 NA
ATOM      2  N   UNL d   1       0.187  -0.899  -0.740  0.00  0.00    -0.007 NA
ATOM      3  N   UNL d   1      -0.247   0.355   1.045  0.00  0.00    -0.270 N 
ATOM      4  HN  UNL d   1      -0.410   0.622   2.016  1.00  0.00     0.185 HD
ATOM      5  C   UNL d   1      -0.291   1.148  -0.010  0.00  0.00     0.141 A 
ATOM      6  N   UNL d   1      -0.039   0.368  -1.106  0.00  0.00    -0.270 N 
ATOM      7  H   UNL d   1      -0.030   0.612  -2.087  0.00  0.00     0.185 HD
ENDROOT
BRANCH   5   8
ATOM      8  C   UNL d   1      -0.588   2.576  -0.039  0.00  0.00     0.010 A 
ATOM      9  C   UNL d   1      -0.135   3.408  -1.075  0.00  0.00     0.017 A 
ATOM     10  C   UNL d   1      -0.438   4.774  -1.074  0.00  0.00     0.025 A 
ATOM     11  C   UNL d   1      -1.195   5.318  -0.040  0.00  0.00     0.034 A 
ATOM     12  C   UNL d   1      -1.647   4.510   1.000  0.00  0.00     0.025 A 
ATOM     13 CL   UNL d   1      -1.568   6.997  -0.045  0.00  0.00    -0.084 Cl
ATOM     14  C   UNL d   1      -1.339   3.145   1.001  0.00  0.00     0.017 A 
ENDBRANCH   5   8
TORSDOF 1
