REMARK  5 active torsions:
REMARK  status: ('A' for Active; 'I' for Inactive)
REMARK    1  A    between atoms: S_10  and  C_3 
REMARK    2  A    between atoms: N_11  and  C_4 
REMARK    3  A    between atoms: C_5  and  C_9 
REMARK    4  A    between atoms: C_9  and  S_10 
REMARK    5  A    between atoms: C_15  and  N_11 
ROOT
ATOM      1  N   UNL d   1       1.668   0.038  -0.335  0.00  0.00    -0.323 N 
ATOM      2  HN  UNL d   1       2.674   0.106  -0.490  1.00  0.00     0.169 HD
ATOM      3  C   UNL d   1       0.880   1.124  -0.387  0.00  0.00     0.146 A 
ATOM      4  C   UNL d   1       1.079  -1.141  -0.070  0.00  0.00     0.109 A 
ATOM      5  N   UNL d   1      -0.451   1.107  -0.226  0.00  0.00    -0.341 N 
ATOM      6  HN  UNL d   1      -1.004   1.962  -0.275  1.00  0.00     0.167 HD
ATOM      7  C   UNL d   1      -0.287  -1.242   0.121  0.00  0.00     0.073 A 
ATOM      8  C   UNL d   1      -1.026  -0.086   0.003  0.00  0.00     0.011 A 
ATOM      9  C   UNL d   1      -2.519  -0.101   0.111  0.00  0.00     0.068 C 
ENDROOT
BRANCH   3  10
ATOM     10  S   UNL d   1       1.666   2.684  -0.728  0.00  0.00    -0.089 SA
BRANCH  10  11
ATOM     11  C   UNL d   1       0.215   3.783  -0.640  0.00  0.00     0.124 C 
BRANCH  11  12
ATOM     12  C   UNL d   1       0.548   5.214  -1.004  0.00  0.00    -0.005 A 
ATOM     13  C   UNL d   1       0.462   5.669  -2.333  0.00  0.00     0.042 A 
ATOM     14 CL   UNL d   1      -0.021   4.633  -3.634  0.00  0.00    -0.084 Cl
ATOM     15  C   UNL d   1       0.751   6.998  -2.671  0.00  0.00     0.024 A 
ATOM     16  C   UNL d   1       1.143   7.901  -1.685  0.00  0.00     0.003 A 
ATOM     17  C   UNL d   1       1.247   7.472  -0.367  0.00  0.00     0.024 A 
ATOM     18  C   UNL d   1       0.958   6.144  -0.027  0.00  0.00     0.042 A 
ATOM     19 CL   UNL d   1       1.117   5.719   1.643  0.00  0.00    -0.084 Cl
ENDBRANCH  11  12
ENDBRANCH  10  11
ENDBRANCH   3  10
BRANCH   4  20
ATOM     20  N   UNL d   1       1.828  -2.338  -0.012  0.00  0.00    -0.342 N 
ATOM     21  H   UNL d   1       1.677  -2.827   0.862  0.00  0.00     0.167 HD
BRANCH  20  22
ATOM     22  C   UNL d   1       3.062  -2.626  -0.626  0.00  0.00     0.033 A 
ATOM     23  C   UNL d   1       3.921  -3.576  -0.050  0.00  0.00     0.032 A 
ATOM     24  C   UNL d   1       5.113  -3.940  -0.684  0.00  0.00     0.044 A 
ATOM     25  C   UNL d   1       5.441  -3.368  -1.906  0.00  0.00     0.116 A 
ATOM     26  C   UNL d   1       4.608  -2.429  -2.498  0.00  0.00     0.044 A 
ATOM     27  F   UNL d   1       6.570  -3.734  -2.525  0.00  0.00    -0.206 F 
ATOM     28  C   UNL d   1       3.425  -2.057  -1.855  0.00  0.00     0.032 A 
ENDBRANCH  20  22
ENDBRANCH   4  20
TORSDOF 5
