REMARK  4 active torsions:
REMARK  status: ('A' for Active; 'I' for Inactive)
REMARK    1  A    between atoms: C_5  and  C_1 
REMARK    2  A    between atoms: C_10  and  C_2 
REMARK    3  A    between atoms: N_7  and  O_14 
REMARK    4  A    between atoms: O_14  and  C_10 
ROOT
ATOM      1  C   UNL d   1       1.936  -3.236   1.981  0.00  0.00     0.088 A 
ATOM      2  C   UNL d   1       1.164  -2.530   1.000  0.00  0.00     0.102 A 
ATOM      3  N   UNL d   1       2.787  -2.391   2.587  0.00  0.00    -0.259 N 
ATOM      4  HN  UNL d   1       3.467  -2.632   3.307  1.00  0.00     0.195 HD
ATOM      5  O   UNL d   1       2.572  -1.150   2.059  0.00  0.00    -0.241 OA
ATOM      6  C   UNL d   1       1.620  -1.224   1.103  0.00  0.00     0.091 A 
ATOM      7  C   UNL d   1       1.312   0.060   0.441  0.00  0.00     0.080 C 
ENDROOT
BRANCH   2   8
ATOM      8  C   UNL d   1       0.140  -2.936   0.053  0.00  0.00     0.320 C 
ATOM      9  O   UNL d   1      -0.020  -2.353  -1.017  0.00  0.00    -0.257 OA
BRANCH   8  10
ATOM     10  O   UNL d   1      -0.704  -3.939   0.503  0.00  0.00    -0.195 OA
BRANCH  10  11
ATOM     11  N   UNL d   1      -2.024  -3.509   0.230  0.00  0.00    -0.265 N 
ATOM     12  C   UNL d   1      -2.897  -4.446   0.028  0.00  0.00     0.019 C 
ATOM     13  C   UNL d   1      -4.352  -4.008  -0.113  0.00  0.00     0.034 C 
ATOM     14  C   UNL d   1      -2.688  -5.950   0.013  0.00  0.00     0.034 C 
ATOM     15  C   UNL d   1      -4.920  -4.598  -1.405  0.00  0.00     0.015 C 
ATOM     16  C   UNL d   1      -5.076  -4.574   1.118  0.00  0.00     0.015 C 
ATOM     17  C   UNL d   1      -4.805  -6.131  -1.379  0.00  0.00    -0.013 C 
ATOM     18  C   UNL d   1      -3.312  -6.508  -1.281  0.00  0.00     0.015 C 
ATOM     19  C   UNL d   1      -5.563  -6.676  -0.156  0.00  0.00     0.009 C 
ATOM     20  C   UNL d   1      -4.954  -6.111   1.137  0.00  0.00    -0.013 C 
ATOM     21  C   UNL d   1      -3.461  -6.507   1.221  0.00  0.00     0.015 C 
ATOM     22  HN  UNL d   1      -2.274  -2.520   0.195  1.00  0.00     0.194 HD
ENDBRANCH  10  11
ENDBRANCH   8  10
ENDBRANCH   2   8
BRANCH   1  23
ATOM     23  C   UNL d   1       2.037  -4.661   2.304  0.00  0.00     0.054 A 
ATOM     24  C   UNL d   1       2.099  -5.597   1.264  0.00  0.00     0.130 A 
ATOM     25  F   UNL d   1       1.935  -5.210  -0.010  0.00  0.00    -0.205 F 
ATOM     26  C   UNL d   1       2.372  -6.944   1.498  0.00  0.00     0.043 A 
ATOM     27  C   UNL d   1       2.609  -7.389   2.795  0.00  0.00     0.005 A 
ATOM     28  C   UNL d   1       2.531  -6.487   3.852  0.00  0.00     0.025 A 
ATOM     29  C   UNL d   1       2.233  -5.135   3.616  0.00  0.00     0.049 A 
ATOM     30 CL   UNL d   1       2.101  -4.133   5.025  0.00  0.00    -0.083 Cl
ENDBRANCH   1  23
TORSDOF 4
