REMARK  3 active torsions:
REMARK  status: ('A' for Active; 'I' for Inactive)
REMARK    1  A    between atoms: S_13  and  C_7 
REMARK    2  A    between atoms: C_14  and  S_13 
REMARK    3  A    between atoms: C_16  and  C_14 
ROOT
ATOM      1  C   UNL d   1       0.547  -0.930  -0.069  0.00  0.00     0.706 A 
ATOM      2  N   UNL d   1       0.803   0.449  -0.033  0.00  0.00    -0.089 N 
ATOM      3  N   UNL d   1       1.693  -1.579  -0.085  0.00  0.00    -0.167 N 
ATOM      4  HN  UNL d   1       1.849  -2.586  -0.129  1.00  0.00     0.186 HD
ATOM      5  N   UNL d   1       2.136   0.656  -0.011  0.00  0.00    -0.258 N 
ATOM      6  HN  UNL d   1       2.645   1.540   0.013  1.00  0.00     0.190 HD
ATOM      7  C   UNL d   1       2.619  -0.584  -0.028  0.00  0.00     0.175 A 
ATOM      8  N   UNL d   1      -0.728  -1.421  -0.067  0.00  0.00    -0.194 N 
ATOM      9  HN  UNL d   1      -0.915  -2.423  -0.091  1.00  0.00     0.184 HD
ATOM     10  C   UNL d   1      -0.236   1.385  -0.015  0.00  0.00     0.050 A 
ATOM     11  C   UNL d   1      -1.505   0.940  -0.014  0.00  0.00     0.052 A 
ATOM     12  C   UNL d   1      -1.692  -0.547  -0.034  0.00  0.00     0.024 A 
ATOM     13  C   UNL d   1       0.091   2.847   0.004  0.00  0.00     0.071 C 
ATOM     14  C   UNL d   1      -3.113  -1.053  -0.000  0.00  0.00     0.068 C 
ENDROOT
BRANCH   7  15
ATOM     15  S   UNL d   1       4.336  -0.837   0.084  0.00  0.00    -0.087 SA
BRANCH  15  16
ATOM     16  C   UNL d   1       4.518  -2.405  -0.804  0.00  0.00     0.121 C 
BRANCH  16  17
ATOM     17  C   UNL d   1       5.984  -2.750  -0.958  0.00  0.00    -0.048 A 
ATOM     18  C   UNL d   1       6.653  -3.482   0.036  0.00  0.00     0.009 A 
ATOM     19  C   UNL d   1       8.021  -3.744  -0.074  0.00  0.00     0.024 A 
ATOM     20  C   UNL d   1       8.730  -3.274  -1.177  0.00  0.00     0.034 A 
ATOM     21  C   UNL d   1       8.083  -2.545  -2.173  0.00  0.00     0.024 A 
ATOM     22 CL   UNL d   1      10.418  -3.583  -1.305  0.00  0.00    -0.084 Cl
ATOM     23  C   UNL d   1       6.715  -2.283  -2.063  0.00  0.00     0.009 A 
ENDBRANCH  16  17
ENDBRANCH  15  16
ENDBRANCH   7  15
TORSDOF 3
