REMARK  5 active torsions:
REMARK  status: ('A' for Active; 'I' for Inactive)
REMARK    1  A    between atoms: C_8  and  C_1 
REMARK    2  A    between atoms: C_7  and  C_2 
REMARK    3  A    between atoms: C_9  and  C_3 
REMARK    4  A    between atoms: O_14  and  C_7 
REMARK    5  A    between atoms: O_15  and  C_8 
ROOT
ATOM      1  C   UNL d   1      -1.239  -1.050   0.114  0.00  0.00     0.054 C 
ATOM      2  C   UNL d   1       1.319  -1.007   0.083  0.00  0.00     0.054 C 
ATOM      3  C   UNL d   1       0.057  -1.846  -0.102  0.00  0.00     0.117 C 
ATOM      4  C   UNL d   1      -1.212   0.304   0.058  0.00  0.00     0.018 C 
ATOM      5  C   UNL d   1       1.247   0.343   0.040  0.00  0.00     0.018 C 
ATOM      6  N   UNL d   1       0.009   0.955  -0.097  0.00  0.00    -0.362 N 
ATOM      7  C   UNL d   1      -2.395   1.235   0.158  0.00  0.00     0.069 C 
ATOM      8  C   UNL d   1       2.438   1.260   0.140  0.00  0.00     0.069 C 
ATOM      9  H   UNL d   1      -0.010   1.972  -0.056  0.00  0.00     0.165 HD
ENDROOT
BRANCH   3  10
ATOM     10  C   UNL d   1       0.046  -2.493  -1.493  0.00  0.00     0.022 A 
ATOM     11  N   UNL d   1      -0.016  -3.846  -1.557  0.00  0.00    -0.368 N 
ATOM     12  C   UNL d   1      -0.045  -4.413  -2.784  0.00  0.00     0.088 A 
ATOM     13  HN  UNL d   1      -0.041  -4.415  -0.711  1.00  0.00     0.165 HD
ATOM     14  C   UNL d   1      -0.013  -3.700  -3.970  0.00  0.00     0.017 A 
ATOM     15  C   UNL d   1       0.049  -2.317  -3.899  0.00  0.00     0.003 A 
ATOM     16  C   UNL d   1       0.076  -1.704  -2.652  0.00  0.00     0.026 A 
ENDBRANCH   3  10
BRANCH   2  17
ATOM     17  C   UNL d   1       2.608  -1.718   0.279  0.00  0.00     0.291 C 
ATOM     18  O   UNL d   1       3.703  -1.275  -0.042  0.00  0.00    -0.260 OA
BRANCH  17  19
ATOM     19  O   UNL d   1       2.405  -2.899   0.912  0.00  0.00    -0.323 OA
ATOM     20  C   UNL d   1       3.598  -3.639   1.176  0.00  0.00     0.213 C 
ENDBRANCH  17  19
ENDBRANCH   2  17
BRANCH   1  21
ATOM     21  C   UNL d   1      -2.477  -1.849   0.336  0.00  0.00     0.291 C 
ATOM     22  O   UNL d   1      -3.608  -1.495   0.042  0.00  0.00    -0.260 OA
BRANCH  21  23
ATOM     23  O   UNL d   1      -2.164  -3.022   0.941  0.00  0.00    -0.323 OA
ATOM     24  C   UNL d   1      -3.262  -3.911   1.151  0.00  0.00     0.213 C 
ENDBRANCH  21  23
ENDBRANCH   1  21
TORSDOF 5
