REMARK  1 active torsions:
REMARK  status: ('A' for Active; 'I' for Inactive)
REMARK    1  A    between atoms: C_4  and  C_3 
ROOT
ATOM      1  N   UNL d   1       0.110   1.809   0.340  0.00  0.00    -0.353 N 
ATOM      2  HN  UNL d   1      -0.220   2.607   0.884  1.00  0.00     0.166 HD
ATOM      3  C   UNL d   1       1.334   1.813  -0.101  0.00  0.00     0.102 C 
ATOM      4  N   UNL d   1       0.854  -1.137   0.288  0.00  0.00    -0.325 N 
ATOM      5  C   UNL d   1       2.012  -0.547  -0.134  0.00  0.00     0.227 C 
ATOM      6  C   UNL d   1       1.887   0.707  -0.939  0.00  0.00     0.165 C 
ATOM      7  C   UNL d   1      -0.777   0.742   0.094  0.00  0.00     0.059 A 
ATOM      8  C   UNL d   1      -0.455  -0.633   0.159  0.00  0.00     0.061 A 
ATOM      9  O   UNL d   1       3.098  -1.083   0.072  0.00  0.00    -0.273 OA
ATOM     10  C   UNL d   1      -2.121   1.103  -0.073  0.00  0.00     0.032 A 
ATOM     11  C   UNL d   1      -1.478  -1.593   0.103  0.00  0.00     0.032 A 
ATOM     12  C   UNL d   1      -3.127   0.141  -0.178  0.00  0.00     0.002 A 
ATOM     13  C   UNL d   1      -2.806  -1.207  -0.081  0.00  0.00     0.002 A 
ATOM     14  H   UNL d   1       0.978  -2.084   0.624  0.00  0.00     0.169 HD
ENDROOT
BRANCH   3  15
ATOM     15  C   UNL d   1       2.273   2.954   0.256  0.00  0.00     0.429 C 
ATOM     16  F   UNL d   1       3.513   2.814  -0.285  0.00  0.00    -0.165 F 
ATOM     17  F   UNL d   1       1.807   4.155  -0.182  0.00  0.00    -0.165 F 
ATOM     18  F   UNL d   1       2.457   3.071   1.599  0.00  0.00    -0.165 F 
ENDBRANCH   3  15
TORSDOF 1
