REMARK  2 active torsions:
REMARK  status: ('A' for Active; 'I' for Inactive)
REMARK    1  A    between atoms: N_4  and  C_1 
REMARK    2  A    between atoms: C_6  and  N_4 
ROOT
ATOM      1  C   UNL d   1       2.505  -3.567   2.581  0.00  0.00     0.058 A 
ATOM      2  C   UNL d   1       1.969  -2.402   2.023  0.00  0.00     0.055 A 
ATOM      3  C   UNL d   1       0.944  -2.482   1.074  0.00  0.00     0.035 A 
ATOM      4  C   UNL d   1       2.016  -4.816   2.190  0.00  0.00     0.055 A 
ATOM      5  C   UNL d   1       0.959  -4.893   1.278  0.00  0.00     0.028 A 
ATOM      6 CL   UNL d   1       3.766  -3.393   3.751  0.00  0.00    -0.082 Cl
ATOM      7  C   UNL d   1       0.409  -3.725   0.740  0.00  0.00     0.031 A 
ATOM      8 CL   UNL d   1       2.674  -6.300   2.782  0.00  0.00    -0.083 Cl
ENDROOT
BRANCH   3   9
ATOM      9  N   UNL d   1       0.398  -1.340   0.459  0.00  0.00    -0.333 N 
ATOM     10  H   UNL d   1      -0.586  -1.389   0.214  0.00  0.00     0.168 HD
BRANCH   9  11
ATOM     11  C   UNL d   1       0.950  -0.110   0.312  0.00  0.00     0.171 C 
ATOM     12  S   UNL d   1      -0.027   1.241   0.252  0.00  0.00    -0.041 SA
ATOM     13  N   UNL d   1       2.286   0.034   0.120  0.00  0.00    -0.371 N 
ATOM     14  C   UNL d   1       3.141  -0.916  -0.569  0.00  0.00     0.148 C 
ATOM     15  H   UNL d   1       2.571   1.004   0.039  0.00  0.00     0.161 HD
ENDBRANCH   9  11
ENDBRANCH   3   9
TORSDOF 2
