REMARK  5 active torsions:
REMARK  status: ('A' for Active; 'I' for Inactive)
REMARK    1  A    between atoms: C_2  and  C_1 
REMARK    2  A    between atoms: N_4  and  C_3 
REMARK       I    between atoms: C_5  and  N_4 
REMARK    3  A    between atoms: C_6  and  C_5 
REMARK    4  A    between atoms: C_7  and  C_8 
REMARK    5  A    between atoms: O_14  and  C_7 
ROOT
ATOM      1  C   UNL d   1       0.719  -0.415   1.897  0.00  0.00     0.074 A 
ATOM      2  C   UNL d   1       0.535  -1.805   1.812  0.00  0.00     0.050 A 
ATOM      3  C   UNL d   1       0.345   0.238   3.094  0.00  0.00     0.018 A 
ATOM      4  C   UNL d   1       0.108  -2.518   2.944  0.00  0.00     0.030 A 
ATOM      5  C   UNL d   1      -0.142  -0.472   4.190  0.00  0.00     0.001 A 
ATOM      6  C   UNL d   1      -0.237  -1.855   4.122  0.00  0.00     0.002 A 
ENDROOT
BRANCH   2   7
ATOM      7  N   UNL d   1       0.775  -2.575   0.654  0.00  0.00    -0.323 N 
ATOM      8  C   UNL d   1       0.188  -2.286  -0.567  0.00  0.00     0.245 C 
ATOM      9  O   UNL d   1      -0.587  -1.365  -0.794  0.00  0.00    -0.268 OA
ATOM     10  H   UNL d   1       1.008  -3.550   0.800  0.00  0.00     0.169 HD
BRANCH   8  11
ATOM     11  C   UNL d   1       0.557  -3.276  -1.612  0.00  0.00     0.081 C 
ATOM     12  C   UNL d   1      -0.011  -3.219  -2.825  0.00  0.00     0.086 C 
BRANCH  12  13
ATOM     13  C   UNL d   1       0.452  -4.166  -3.849  0.00  0.00     0.165 C 
ATOM     14  O   UNL d   1       1.042  -5.208  -3.603  0.00  0.00    -0.647 OA
BRANCH  13  15
ATOM     15  O   UNL d   1       0.182  -3.739  -5.095  0.00  0.00    -0.773 OA
ATOM     16  H   UNL d   1      -0.211  -2.849  -5.154  0.00  0.00     0.167 HD
ENDBRANCH  13  15
ENDBRANCH  12  13
ENDBRANCH   8  11
ENDBRANCH   2   7
BRANCH   1  17
ATOM     17  C   UNL d   1       1.482   0.419   0.892  0.00  0.00     0.419 C 
ATOM     18  F   UNL d   1       1.754  -0.154  -0.310  0.00  0.00    -0.166 F 
ATOM     19  F   UNL d   1       2.711   0.762   1.392  0.00  0.00    -0.166 F 
ATOM     20  F   UNL d   1       0.873   1.607   0.617  0.00  0.00    -0.166 F 
ENDBRANCH   1  17
TORSDOF 5
