REMARK  7 active torsions:
REMARK  status: ('A' for Active; 'I' for Inactive)
REMARK    1  A    between atoms: C_25  and  C_2 
REMARK    2  A    between atoms: C_6  and  C_15 
REMARK    3  A    between atoms: C_8  and  C_20 
REMARK       I    between atoms: N_16  and  C_8 
REMARK    4  A    between atoms: N_10  and  N_16 
REMARK    5  A    between atoms: O_21  and  C_19 
REMARK    6  A    between atoms: C_20  and  O_21 
REMARK    7  A    between atoms: C_29  and  C_25 
ROOT
ATOM      1  C   UNL d   1       3.509   3.316   0.138  0.00  0.00     0.280 C 
ENDROOT
BRANCH   1   2
ATOM      2  C   UNL d   1       4.772   4.172   0.198  0.00  0.00     0.260 C 
ATOM      3  N   UNL d   1       5.953   3.459   0.330  0.00  0.00    -0.269 N 
ATOM      4  H   UNL d   1       5.931   2.445   0.390  0.00  0.00     0.190 HD
ATOM      5  O   UNL d   1       4.691   5.400   0.133  0.00  0.00    -0.269 OA
BRANCH   3   6
ATOM      6  N   UNL d   1       7.126   4.145   0.389  0.00  0.00    -0.308 N 
ATOM      7  C   UNL d   1       8.215   3.471   0.566  0.00  0.00     0.122 C 
ATOM      8  HN  UNL d   1       7.146   5.161   0.297  1.00  0.00     0.186 HD
BRANCH   7   9
ATOM      9  C   UNL d   1       9.529   4.158   0.623  0.00  0.00     0.024 A 
ATOM     10  C   UNL d   1       9.680   5.436   1.189  0.00  0.00     0.047 A 
ATOM     11 CL   UNL d   1       8.429   6.263   2.053  0.00  0.00    -0.083 Cl
ATOM     12  C   UNL d   1      10.920   6.089   1.142  0.00  0.00     0.025 A 
ATOM     13  C   UNL d   1      12.022   5.473   0.556  0.00  0.00     0.003 A 
ATOM     14  C   UNL d   1      11.892   4.191   0.030  0.00  0.00     0.025 A 
ATOM     15  C   UNL d   1      10.655   3.533   0.063  0.00  0.00     0.047 A 
ATOM     16 CL   UNL d   1      10.596   1.952  -0.641  0.00  0.00    -0.083 Cl
ENDBRANCH   7   9
ENDBRANCH   3   6
ENDBRANCH   1   2
BRANCH   1  17
ATOM     17  O   UNL d   1       3.755   1.915   0.181  0.00  0.00    -0.342 OA
BRANCH  17  18
ATOM     18  C   UNL d   1       2.648   1.107   0.129  0.00  0.00     0.072 A 
ATOM     19  C   UNL d   1       1.323   1.525   0.027  0.00  0.00     0.075 A 
ATOM     20  C   UNL d   1       0.299   0.571  -0.011  0.00  0.00     0.092 A 
ATOM     21  O   UNL d   1      -1.014   1.077  -0.090  0.00  0.00    -0.275 OA
ATOM     22  C   UNL d   1       0.547  -0.803   0.037  0.00  0.00     0.004 A 
ATOM     23  C   UNL d   1      -2.109   0.231  -0.110  0.00  0.00     0.288 A 
ATOM     24  O   UNL d   1      -3.261   0.644  -0.143  0.00  0.00    -0.260 OA
ATOM     25  C   UNL d   1      -1.828  -1.214  -0.108  0.00  0.00     0.090 A 
ATOM     26  C   UNL d   1      -0.593  -1.733  -0.036  0.00  0.00    -0.039 A 
ATOM     27  C   UNL d   1       1.881  -1.207   0.144  0.00  0.00     0.017 A 
ATOM     28  C   UNL d   1       2.917  -0.262   0.190  0.00  0.00     0.038 A 
BRANCH  26  29
ATOM     29  C   UNL d   1      -0.384  -3.228  -0.087  0.00  0.00     0.039 C 
BRANCH  29  30
ATOM     30  C   UNL d   1      -0.270  -3.854   1.306  0.00  0.00     0.000 C 
ATOM     31  C   UNL d   1      -0.000  -5.349   1.217  0.00  0.00     0.005 C 
ENDBRANCH  29  30
ENDBRANCH  26  29
ENDBRANCH  17  18
ENDBRANCH   1  17
TORSDOF 7
