REMARK  5 active torsions:
REMARK  status: ('A' for Active; 'I' for Inactive)
REMARK    1  A    between atoms: C_8  and  C_1 
REMARK    2  A    between atoms: N_7  and  C_2 
REMARK    3  A    between atoms: C_11  and  C_4 
REMARK       I    between atoms: C_6  and  N_7 
REMARK       I    between atoms: N_10  and  C_6 
REMARK    4  A    between atoms: O_19  and  C_8 
REMARK    5  A    between atoms: C_9  and  N_10 
ROOT
ATOM      1  C   UNL d   1       2.890   2.707  -0.267  0.00  0.00     0.325 C 
ATOM      2  N   UNL d   1       2.326   1.493  -0.122  0.00  0.00    -0.307 N 
ATOM      3  N   UNL d   1       2.145   3.831  -0.378  0.00  0.00    -0.309 N 
ATOM      4  O   UNL d   1       4.127   2.695  -0.299  0.00  0.00    -0.247 OA
ATOM      5  H   UNL d   1       3.100   0.838  -0.091  0.00  0.00     0.170 HD
ATOM      6  H   UNL d   1       1.290   3.831   0.173  0.00  0.00     0.170 HD
ENDROOT
BRANCH   2   7
ATOM      7  C   UNL d   1       1.085   0.873  -0.139  0.00  0.00     0.060 C 
ATOM      8  C   UNL d   1      -0.235   1.305  -0.100  0.00  0.00     0.107 C 
ATOM      9  S   UNL d   1      -1.318  -0.041  -0.299  0.00  0.00    -0.086 SA
ATOM     10  C   UNL d   1      -0.087  -1.206  -0.205  0.00  0.00    -0.007 C 
ATOM     11  C   UNL d   1       1.134  -0.571  -0.167  0.00  0.00     0.046 C 
BRANCH   8  12
ATOM     12  C   UNL d   1      -0.838   2.604   0.163  0.00  0.00     0.302 C 
ATOM     13  O   UNL d   1      -0.243   3.583   0.607  0.00  0.00    -0.259 OA
BRANCH  12  14
ATOM     14  O   UNL d   1      -2.185   2.595  -0.071  0.00  0.00    -0.322 OA
ATOM     15  C   UNL d   1      -2.902   3.745   0.375  0.00  0.00     0.213 C 
ENDBRANCH  12  14
ENDBRANCH   8  12
BRANCH  10  16
ATOM     16  C   UNL d   1      -0.341  -2.715  -0.140  0.00  0.00    -0.018 C 
ATOM     17  C   UNL d   1       0.459  -3.430  -1.249  0.00  0.00     0.020 C 
ATOM     18  C   UNL d   1       0.140  -3.227   1.236  0.00  0.00     0.020 C 
ATOM     19  C   UNL d   1      -1.823  -3.105  -0.304  0.00  0.00     0.020 C 
ENDBRANCH  10  16
ENDBRANCH   2   7
BRANCH   3  20
ATOM     20  C   UNL d   1       2.748   5.098  -0.597  0.00  0.00     0.039 A 
ATOM     21  C   UNL d   1       3.844   5.253  -1.455  0.00  0.00     0.053 A 
ATOM     22  C   UNL d   1       4.481   6.489  -1.567  0.00  0.00     0.037 A 
ATOM     23 CL   UNL d   1       5.839   6.659  -2.611  0.00  0.00    -0.084 Cl
ATOM     24  C   UNL d   1       4.035   7.581  -0.832  0.00  0.00     0.048 A 
ATOM     25  C   UNL d   1       2.921   7.433  -0.008  0.00  0.00     0.037 A 
ATOM     26  C   UNL d   1       2.258   6.206   0.095  0.00  0.00     0.053 A 
ATOM     27 CL   UNL d   1       2.378   8.774   0.926  0.00  0.00    -0.084 Cl
ENDBRANCH   3  20
TORSDOF 5
