REMARK  5 active torsions:
REMARK  status: ('A' for Active; 'I' for Inactive)
REMARK    1  A    between atoms: C_5  and  C_1 
REMARK    2  A    between atoms: N_9  and  C_2 
REMARK       I    between atoms: C_8  and  N_9 
REMARK       I    between atoms: N_16  and  C_8 
REMARK    3  A    between atoms: C_13  and  O_22 
REMARK    4  A    between atoms: C_24  and  N_16 
REMARK    5  A    between atoms: O_22  and  C_17 
ROOT
ATOM      1  C   UNL d   1       3.123  -2.384  -1.310  0.00  0.00     0.325 C 
ATOM      2  N   UNL d   1       3.162  -3.720  -1.540  0.00  0.00    -0.304 N 
ATOM      3  N   UNL d   1       2.642  -1.938  -0.106  0.00  0.00    -0.307 N 
ATOM      4  O   UNL d   1       3.615  -1.671  -2.176  0.00  0.00    -0.247 OA
ATOM      5  H   UNL d   1       3.775  -3.906  -2.324  0.00  0.00     0.171 HD
ATOM      6  H   UNL d   1       2.142  -2.593   0.479  0.00  0.00     0.170 HD
ENDROOT
BRANCH   2   7
ATOM      7  C   UNL d   1       2.572  -4.831  -0.967  0.00  0.00     0.097 C 
ATOM      8  C   UNL d   1       3.109  -6.165  -1.031  0.00  0.00     0.097 C 
ATOM      9  N   UNL d   1       2.301  -7.022  -0.391  0.00  0.00    -0.258 N 
ATOM     10  O   UNL d   1       1.191  -6.302  -0.021  0.00  0.00    -0.240 OA
ATOM     11  HN  UNL d   1       2.476  -8.011  -0.213  1.00  0.00     0.195 HD
ATOM     12  C   UNL d   1       1.313  -5.014  -0.444  0.00  0.00     0.101 C 
ATOM     13  C   UNL d   1       0.044  -4.261  -0.436  0.00  0.00     0.081 C 
BRANCH   8  14
ATOM     14  C   UNL d   1       4.323  -6.640  -1.703  0.00  0.00     0.038 A 
ATOM     15  C   UNL d   1       5.308  -7.371  -1.013  0.00  0.00     0.048 A 
ATOM     16 CL   UNL d   1       5.242  -7.666   0.693  0.00  0.00    -0.083 Cl
ATOM     17  C   UNL d   1       6.428  -7.881  -1.687  0.00  0.00     0.025 A 
ATOM     18  C   UNL d   1       6.605  -7.645  -3.047  0.00  0.00     0.003 A 
ATOM     19  C   UNL d   1       5.657  -6.903  -3.741  0.00  0.00     0.025 A 
ATOM     20  C   UNL d   1       4.518  -6.421  -3.084  0.00  0.00     0.048 A 
ATOM     21 CL   UNL d   1       3.373  -5.589  -4.088  0.00  0.00    -0.083 Cl
ENDBRANCH   8  14
ENDBRANCH   2   7
BRANCH   3  22
ATOM     22  C   UNL d   1       2.636  -0.569   0.280  0.00  0.00     0.051 A 
ATOM     23  C   UNL d   1       3.389   0.432  -0.344  0.00  0.00     0.119 A 
ATOM     24  N   UNL d   1       3.265   1.765  -0.108  0.00  0.00    -0.344 N 
ATOM     25  C   UNL d   1       2.359   2.129   0.817  0.00  0.00     0.148 A 
ATOM     26  HN  UNL d   1       3.829   2.454  -0.606  1.00  0.00     0.167 HD
ATOM     27  C   UNL d   1       1.636   1.208   1.568  0.00  0.00     0.059 A 
ATOM     28  C   UNL d   1       1.794  -0.159   1.311  0.00  0.00     0.035 A 
BRANCH  25  29
ATOM     29  O   UNL d   1       2.003   3.462   0.995  0.00  0.00    -0.294 OA
BRANCH  29  30
ATOM     30  C   UNL d   1       2.748   4.467   0.422  0.00  0.00     0.079 A 
ATOM     31  C   UNL d   1       4.134   4.551   0.528  0.00  0.00     0.045 A 
ATOM     32  C   UNL d   1       4.822   5.687   0.064  0.00  0.00    -0.037 A 
ATOM     33  C   UNL d   1       6.319   5.736   0.213  0.00  0.00     0.050 C 
ATOM     34  C   UNL d   1       4.093   6.759  -0.493  0.00  0.00     0.046 A 
ATOM     35  C   UNL d   1       2.691   6.694  -0.594  0.00  0.00    -0.037 A 
ATOM     36 CL   UNL d   1       4.946   8.175  -1.026  0.00  0.00    -0.083 Cl
ATOM     37  C   UNL d   1       2.036   5.533  -0.136  0.00  0.00     0.045 A 
ATOM     38  C   UNL d   1       1.839   7.794  -1.169  0.00  0.00     0.050 C 
ENDBRANCH  29  30
ENDBRANCH  25  29
ENDBRANCH   3  22
TORSDOF 5
