REMARK  6 active torsions:
REMARK  status: ('A' for Active; 'I' for Inactive)
REMARK    1  A    between atoms: C_6  and  C_1 
REMARK    2  A    between atoms: N_4  and  C_2 
REMARK       I    between atoms: C_3  and  N_4 
REMARK    3  A    between atoms: C_10  and  C_3 
REMARK    4  A    between atoms: O_14  and  C_6 
REMARK    5  A    between atoms: O_15  and  C_8 
REMARK    6  A    between atoms: O_16  and  C_9 
ROOT
ATOM      1  C   UNL d   1       1.060  -0.112   0.263  0.00  0.00     0.063 C 
ATOM      2  C   UNL d   1       0.449  -1.163  -0.438  0.00  0.00     0.034 C 
ATOM      3  C   UNL d   1       0.342   1.075   0.469  0.00  0.00     0.059 C 
ATOM      4  C   UNL d   1      -0.931  -1.088  -0.681  0.00  0.00     0.064 C 
ATOM      5  C   UNL d   1      -1.005   1.195   0.108  0.00  0.00     0.102 C 
ATOM      6  C   UNL d   1      -1.669   0.082  -0.428  0.00  0.00     0.103 C 
ENDROOT
BRANCH   2   7
ATOM      7  N   UNL d   1       1.123  -2.374  -0.724  0.00  0.00    -0.224 NA
ATOM      8  C   UNL d   1       1.793  -2.682  -1.905  0.00  0.00     0.235 C 
ATOM      9  O   UNL d   1       2.841  -3.324  -1.771  0.00  0.00    -0.274 OA
ATOM     10  H   UNL d   1       1.829  -2.589  -0.009  0.00  0.00     0.137 HD
BRANCH   8  11
ATOM     11  C   UNL d   1       1.358  -2.363  -3.307  0.00  0.00     0.027 A 
ATOM     12  C   UNL d   1       0.111  -1.873  -3.698  0.00  0.00     0.023 A 
ATOM     13  C   UNL d   1      -0.231  -1.704  -5.054  0.00  0.00    -0.061 A 
ATOM     14  C   UNL d   1      -1.589  -1.199  -5.448  0.00  0.00     0.048 C 
ATOM     15  C   UNL d   1       0.698  -2.033  -6.043  0.00  0.00     0.007 A 
ATOM     16  C   UNL d   1       1.949  -2.519  -5.684  0.00  0.00     0.002 A 
ATOM     17  C   UNL d   1       2.273  -2.680  -4.332  0.00  0.00     0.016 A 
ENDBRANCH   8  11
ENDBRANCH   2   7
BRANCH   1  18
ATOM     18  C   UNL d   1       2.387  -0.287   0.923  0.00  0.00     0.294 C 
ATOM     19  O   UNL d   1       2.927  -1.370   1.072  0.00  0.00    -0.259 OA
BRANCH  18  20
ATOM     20  O   UNL d   1       2.814   0.893   1.436  0.00  0.00    -0.322 OA
ATOM     21  C   UNL d   1       3.869   0.804   2.392  0.00  0.00     0.213 C 
ENDBRANCH  18  20
ENDBRANCH   1  18
BRANCH   6  22
ATOM     22  O   UNL d   1      -3.002   0.191  -0.710  0.00  0.00    -0.353 OA
ATOM     23  C   UNL d   1      -3.752  -1.011  -0.837  0.00  0.00     0.210 C 
ENDBRANCH   6  22
BRANCH   5  24
ATOM     24  O   UNL d   1      -1.490   2.441   0.389  0.00  0.00    -0.353 OA
ATOM     25  C   UNL d   1      -2.884   2.681   0.294  0.00  0.00     0.210 C 
ENDBRANCH   5  24
TORSDOF 6
