REMARK  7 active torsions:
REMARK  status: ('A' for Active; 'I' for Inactive)
REMARK    1  A    between atoms: C_2  and  O_1 
REMARK    2  A    between atoms: C_4  and  O_1 
REMARK    3  A    between atoms: C_3  and  S_5 
REMARK    4  A    between atoms: N_8  and  C_3 
REMARK    5  A    between atoms: C_7  and  C_4 
REMARK    6  A    between atoms: S_5  and  C_14 
REMARK    7  A    between atoms: C_14  and  C_15 
ROOT
ATOM      1  C   UNL d   1       3.385  -0.086   1.078  0.00  0.00     0.040 A 
ATOM      2  C   UNL d   1       2.954  -0.984   2.063  0.00  0.00     0.018 A 
ATOM      3  C   UNL d   1       4.535   0.680   1.315  0.00  0.00     0.018 A 
ATOM      4  C   UNL d   1       4.746  -0.251   3.549  0.00  0.00    -0.049 A 
ATOM      5  C   UNL d   1       3.632  -1.066   3.289  0.00  0.00     0.009 A 
ATOM      6  C   UNL d   1       5.209   0.593   2.530  0.00  0.00     0.009 A 
ENDROOT
BRANCH   1   7
ATOM      7  C   UNL d   1       2.549   0.136  -0.142  0.00  0.00     0.298 C 
ATOM      8  O   UNL d   1       1.500  -0.432  -0.402  0.00  0.00    -0.259 OA
BRANCH   7   9
ATOM      9  O   UNL d   1       3.120   1.177  -0.855  0.00  0.00    -0.271 OA
BRANCH   9  10
ATOM     10  C   UNL d   1       2.292   2.106  -1.520  0.00  0.00     0.122 A 
ATOM     11  C   UNL d   1       1.335   2.859  -0.830  0.00  0.00     0.069 A 
ATOM     12 CL   UNL d   1       1.014   2.656   0.854  0.00  0.00    -0.081 Cl
ATOM     13  C   UNL d   1       0.667   3.899  -1.484  0.00  0.00     0.027 A 
ATOM     14  C   UNL d   1       0.975   4.212  -2.807  0.00  0.00     0.003 A 
ATOM     15  C   UNL d   1       1.951   3.482  -3.486  0.00  0.00     0.027 A 
ATOM     16  C   UNL d   1       2.611   2.429  -2.846  0.00  0.00     0.069 A 
ATOM     17 CL   UNL d   1       3.860   1.602  -3.704  0.00  0.00    -0.081 Cl
ENDBRANCH   9  10
ENDBRANCH   7   9
ENDBRANCH   1   7
BRANCH   4  18
ATOM     18  C   UNL d   1       5.443  -0.250   4.897  0.00  0.00     0.120 C 
BRANCH  18  19
ATOM     19  S   UNL d   1       5.353   1.401   5.666  0.00  0.00    -0.096 SA
BRANCH  19  20
ATOM     20  C   UNL d   1       6.194   1.246   7.216  0.00  0.00     0.136 C 
ATOM     21  S   UNL d   1       7.479   0.170   7.401  0.00  0.00    -0.053 SA
BRANCH  20  22
ATOM     22  N   UNL d   1       5.753   2.133   8.223  0.00  0.00    -0.375 N 
ATOM     23  C   UNL d   1       4.655   3.097   8.076  0.00  0.00     0.150 C 
ATOM     24  C   UNL d   1       6.385   2.209   9.545  0.00  0.00     0.150 C 
ENDBRANCH  20  22
ENDBRANCH  19  20
ENDBRANCH  18  19
ENDBRANCH   4  18
TORSDOF 7
