REMARK  4 active torsions:
REMARK  status: ('A' for Active; 'I' for Inactive)
REMARK    1  A    between atoms: C_6  and  N_1 
REMARK    2  A    between atoms: N_16  and  C_2 
REMARK    3  A    between atoms: S_17  and  C_7 
REMARK    4  A    between atoms: C_10  and  C_11 
ROOT
ATOM      1  N   UNL d   1       0.033  -1.219   0.019  0.00  0.00    -0.235 N 
ATOM      2  C   UNL d   1       1.326  -0.694  -0.138  0.00  0.00     0.145 A 
ATOM      3  N   UNL d   1      -0.894  -0.229   0.130  0.00  0.00    -0.284 N 
ATOM      4  HN  UNL d   1      -1.904  -0.330   0.230  1.00  0.00     0.188 HD
ATOM      5  C   UNL d   1       1.183   0.678  -0.061  0.00  0.00     0.124 A 
ATOM      6  C   UNL d   1      -0.193   0.903   0.080  0.00  0.00     0.109 A 
ATOM      7  C   UNL d   1       2.233   1.636  -0.149  0.00  0.00     0.106 C 
ATOM      8  N   UNL d   1       3.114   2.388  -0.212  0.00  0.00    -0.191 NA
ENDROOT
BRANCH   2   9
ATOM      9  N   UNL d   1       2.444  -1.431  -0.390  0.00  0.00    -0.383 N 
ATOM     10  H   UNL d   1       2.494  -2.423  -0.163  0.00  0.00     0.157 HD
ATOM     11  H   UNL d   1       3.366  -0.996  -0.332  0.00  0.00     0.157 HD
ENDBRANCH   2   9
BRANCH   6  12
ATOM     12  S   UNL d   1      -0.945   2.481   0.174  0.00  0.00    -0.114 SA
ATOM     13  C   UNL d   1      -2.693   2.086  -0.018  0.00  0.00     0.097 C 
ENDBRANCH   6  12
BRANCH   1  14
ATOM     14  C   UNL d   1      -0.366  -2.584   0.025  0.00  0.00     0.102 A 
ATOM     15  C   UNL d   1       0.335  -3.540   0.782  0.00  0.00     0.065 A 
ATOM     16  C   UNL d   1       0.028  -4.903   0.673  0.00  0.00     0.042 A 
ATOM     17 CL   UNL d   1       1.511  -3.143   1.991  0.00  0.00    -0.082 Cl
ATOM     18  C   UNL d   1      -1.012  -5.344  -0.153  0.00  0.00     0.051 A 
ATOM     19  C   UNL d   1      -1.764  -4.386  -0.842  0.00  0.00     0.042 A 
ATOM     20  C   UNL d   1      -1.452  -3.018  -0.759  0.00  0.00     0.065 A 
ATOM     21 CL   UNL d   1      -2.405  -1.985  -1.773  0.00  0.00    -0.082 Cl
BRANCH  18  22
ATOM     22  C   UNL d   1      -1.286  -6.822  -0.296  0.00  0.00     0.417 C 
ATOM     23  F   UNL d   1      -2.382  -7.102  -1.051  0.00  0.00    -0.166 F 
ATOM     24  F   UNL d   1      -0.247  -7.476  -0.883  0.00  0.00    -0.166 F 
ATOM     25  F   UNL d   1      -1.485  -7.431   0.903  0.00  0.00    -0.166 F 
ENDBRANCH  18  22
ENDBRANCH   1  14
TORSDOF 4
