REMARK  3 active torsions:
REMARK  status: ('A' for Active; 'I' for Inactive)
REMARK       I    between atoms: C_2  and  N_1 
REMARK    1  A    between atoms: C_3  and  N_1 
REMARK    2  A    between atoms: C_8  and  C_2 
REMARK    3  A    between atoms: N_5  and  C_8 
ROOT
ATOM      1  C   UNL d   1       0.568  -0.925   1.668  0.00  0.00     0.062 A 
ATOM      2  C   UNL d   1       0.991  -1.331   2.945  0.00  0.00     0.069 A 
ATOM      3  N   UNL d   1       1.831  -0.557   3.674  0.00  0.00    -0.363 N 
ATOM      4  HN  UNL d   1       2.199   0.316   3.297  1.00  0.00     0.165 HD
ATOM      5  C   UNL d   1       0.484  -2.551   3.454  0.00  0.00    -0.007 A 
ATOM      6  C   UNL d   1      -0.255  -1.754   0.891  0.00  0.00     0.032 A 
ATOM      7  C   UNL d   1      -0.720  -2.964   1.395  0.00  0.00     0.003 A 
ATOM      8  C   UNL d   1       2.169  -0.973   4.916  0.00  0.00     0.088 A 
ATOM      9  C   UNL d   1      -0.367  -3.354   2.679  0.00  0.00     0.014 A 
ATOM     10  C   UNL d   1       0.845  -2.934   4.753  0.00  0.00     0.015 A 
ATOM     11  C   UNL d   1       1.697  -2.135   5.498  0.00  0.00     0.018 A 
ENDROOT
BRANCH   1  12
ATOM     12  N   UNL d   1       1.004   0.344   1.200  0.00  0.00    -0.324 N 
ATOM     13  C   UNL d   1       0.389   1.094   0.220  0.00  0.00     0.250 C 
ATOM     14  O   UNL d   1      -0.661   0.808  -0.356  0.00  0.00    -0.271 OA
ATOM     15  H   UNL d   1       1.656   0.827   1.816  0.00  0.00     0.169 HD
BRANCH  13  16
ATOM     16  C   UNL d   1       1.128   2.379  -0.151  0.00  0.00     0.375 C 
BRANCH  16  17
ATOM     17  N   UNL d   1       1.221   3.345   0.967  0.00  0.00     0.101 N 
ATOM     18  C   UNL d   1      -0.102   3.728   1.522  0.00  0.00     0.299 C 
ATOM     19  C   UNL d   1      -0.949   4.627   0.605  0.00  0.00     0.198 C 
ATOM     20  O   UNL d   1      -0.232   5.811   0.234  0.00  0.00    -0.388 OA
ATOM     21  C   UNL d   1       1.003   5.475  -0.409  0.00  0.00     0.198 C 
ATOM     22  C   UNL d   1       1.883   4.590   0.496  0.00  0.00     0.299 C 
ENDBRANCH  16  17
ENDBRANCH  13  16
ENDBRANCH   1  12
TORSDOF 3
