REMARK  7 active torsions:
REMARK  status: ('A' for Active; 'I' for Inactive)
REMARK    1  A    between atoms: C_2  and  C_1 
REMARK    2  A    between atoms: N_3  and  C_1 
REMARK    3  A    between atoms: C_4  and  C_1 
REMARK    4  A    between atoms: O_9  and  C_1 
REMARK       I    between atoms: C_5  and  N_3 
REMARK    5  A    between atoms: O_15  and  C_4 
REMARK    6  A    between atoms: C_8  and  C_5 
REMARK    7  A    between atoms: C_16  and  O_15 
ROOT
ATOM      1  N   UNL d   1       0.762  -0.250  -4.779  0.00  0.00    -0.197 NA
ATOM      2  C   UNL d   1      -0.070  -0.722  -4.122  0.00  0.00     0.068 C 
ATOM      3  C   UNL d   1      -1.083  -1.341  -3.262  0.00  0.00     0.226 C 
ENDROOT
BRANCH   3   4
ATOM      4  C   UNL d   1      -0.969  -0.891  -1.821  0.00  0.00     0.233 C 
ATOM      5  N   UNL d   1       0.288  -0.815  -1.287  0.00  0.00    -0.313 N 
ATOM      6  H   UNL d   1       1.110  -0.853  -1.876  0.00  0.00     0.166 HD
ATOM      7  O   UNL d   1      -1.964  -0.670  -1.134  0.00  0.00    -0.272 OA
BRANCH   5   8
ATOM      8  C   UNL d   1       0.550  -0.218   0.019  0.00  0.00     0.325 C 
BRANCH   8   9
ATOM      9  C   UNL d   1      -0.191   1.117   0.342  0.00  0.00     0.448 C 
ATOM     10  F   UNL d   1      -0.470   1.819  -0.787  0.00  0.00    -0.166 F 
ATOM     11  F   UNL d   1      -1.345   0.958   1.022  0.00  0.00    -0.166 F 
ATOM     12  F   UNL d   1       0.610   1.920   1.095  0.00  0.00    -0.166 F 
ENDBRANCH   8   9
BRANCH   8  13
ATOM     13  C   UNL d   1       0.316  -1.095   1.265  0.00  0.00     0.325 C 
ATOM     14  O   UNL d   1       0.741  -0.781   2.375  0.00  0.00    -0.259 OA
BRANCH  13  15
ATOM     15  O   UNL d   1      -0.347  -2.253   0.996  0.00  0.00    -0.318 OA
BRANCH  15  16
ATOM     16  C   UNL d   1      -0.499  -3.173   2.091  0.00  0.00     0.174 C 
ATOM     17  C   UNL d   1      -1.891  -3.068   2.684  0.00  0.00     0.034 C 
ENDBRANCH  15  16
ENDBRANCH  13  15
ENDBRANCH   8  13
BRANCH   8  18
ATOM     18  O   UNL d   1       1.980  -0.012  -0.055  0.00  0.00    -0.356 OA
ATOM     19  H   UNL d   1       2.227   0.443   0.777  0.00  0.00     0.213 HD
ENDBRANCH   8  18
ENDBRANCH   5   8
ENDBRANCH   3   4
TORSDOF 7
