REMARK  2 active torsions:
REMARK  status: ('A' for Active; 'I' for Inactive)
REMARK    1  A    between atoms: S_3  and  C_1 
REMARK    2  A    between atoms: C_9  and  C_7 
ROOT
ATOM      1  C   UNL d   1       0.307   1.139   0.043  0.00  0.00     0.166 A 
ATOM      2  C   UNL d   1      -0.397  -0.045   0.017  0.00  0.00     0.113 A 
ATOM      3  N   UNL d   1       1.619   0.767   0.052  0.00  0.00    -0.288 N 
ATOM      4  N   UNL d   1       1.809  -0.561   0.081  0.00  0.00    -0.297 N 
ATOM      5  HN  UNL d   1       2.695  -1.062   0.147  1.00  0.00     0.187 HD
ATOM      6  C   UNL d   1       0.572  -1.086   0.003  0.00  0.00     0.082 A 
ATOM      7  C   UNL d   1      -1.815  -0.150   0.006  0.00  0.00     0.105 C 
ATOM      8  N   UNL d   1      -2.973  -0.227   0.022  0.00  0.00    -0.191 NA
ATOM      9  H   UNL d   1       2.429   1.384   0.041  0.00  0.00     0.188 HD
ENDROOT
BRANCH   1  10
ATOM     10  S   UNL d   1      -0.121   2.836   0.003  0.00  0.00     0.190 S 
ATOM     11  O   UNL d   1       1.149   3.512   0.147  0.00  0.00    -0.221 OA
ATOM     12  O   UNL d   1      -0.943   2.965  -1.178  0.00  0.00    -0.221 OA
ATOM     13  C   UNL d   1      -1.102   3.098   1.455  0.00  0.00     0.168 C 
ENDBRANCH   1  10
BRANCH   6  14
ATOM     14  C   UNL d   1       0.370  -2.537  -0.085  0.00  0.00    -0.006 A 
ATOM     15  C   UNL d   1       1.273  -3.417   0.532  0.00  0.00     0.020 A 
ATOM     16  C   UNL d   1       1.113  -4.807   0.428  0.00  0.00    -0.061 A 
ATOM     17  C   UNL d   1       2.091  -5.749   1.065  0.00  0.00     0.048 C 
ATOM     18  C   UNL d   1       0.031  -5.318  -0.298  0.00  0.00     0.007 A 
ATOM     19  C   UNL d   1      -0.874  -4.455  -0.912  0.00  0.00     0.001 A 
ATOM     20  C   UNL d   1      -0.702  -3.075  -0.811  0.00  0.00     0.014 A 
ENDBRANCH   6  14
TORSDOF 2
