REMARK  7 active torsions:
REMARK  status: ('A' for Active; 'I' for Inactive)
REMARK    1  A    between atoms: C_13  and  C_1 
REMARK    2  A    between atoms: C_2  and  N_12 
REMARK    3  A    between atoms: N_10  and  C_2 
REMARK    4  A    between atoms: O_17  and  C_4 
REMARK    5  A    between atoms: N_12  and  N_6 
REMARK    6  A    between atoms: C_16  and  N_10 
REMARK    7  A    between atoms: C_14  and  C_16 
ROOT
ATOM      1  N   UNL d   1      -1.152   4.820  -0.001  0.00  0.00    -0.309 N 
ATOM      2  HN  UNL d   1      -2.047   4.331  -0.001  1.00  0.00     0.186 HD
ATOM      3  C   UNL d   1      -0.028   4.178   0.001  0.00  0.00     0.121 C 
ENDROOT
BRANCH   1   4
ATOM      4  N   UNL d   1      -1.083   6.177  -0.001  0.00  0.00    -0.277 N 
ATOM      5  H   UNL d   1      -0.170   6.611   0.003  0.00  0.00     0.189 HD
BRANCH   4   6
ATOM      6  C   UNL d   1      -2.221   6.952   0.002  0.00  0.00     0.186 C 
ATOM      7  S   UNL d   1      -3.799   6.395   0.005  0.00  0.00    -0.040 SA
BRANCH   6   8
ATOM      8  N   UNL d   1      -2.030   8.306   0.001  0.00  0.00    -0.365 N 
ATOM      9  H   UNL d   1      -2.895   8.835   0.008  0.00  0.00     0.161 HD
BRANCH   8  10
ATOM     10  C   UNL d   1      -0.767   9.017  -0.015  0.00  0.00     0.130 C 
BRANCH  10  11
ATOM     11  C   UNL d   1      -0.885  10.556  -0.045  0.00  0.00    -0.035 C 
ATOM     12  C   UNL d   1      -1.591  11.079   1.217  0.00  0.00     0.016 C 
ATOM     13  C   UNL d   1       0.543  11.132  -0.088  0.00  0.00     0.016 C 
ATOM     14  C   UNL d   1      -1.646  11.028  -1.294  0.00  0.00     0.016 C 
ENDBRANCH  10  11
ENDBRANCH   8  10
ENDBRANCH   6   8
ENDBRANCH   4   6
ENDBRANCH   1   4
BRANCH   3  15
ATOM     15  C   UNL d   1      -0.020   2.701   0.002  0.00  0.00     0.016 A 
ATOM     16  C   UNL d   1       1.179   1.984   0.007  0.00  0.00     0.093 A 
ATOM     17  C   UNL d   1       1.145   0.583   0.009  0.00  0.00     0.041 A 
ATOM     18  I   UNL d   1       2.905  -0.546   0.017  0.00  0.00    -0.042 I 
ATOM     19  C   UNL d   1      -0.077  -0.097   0.005  0.00  0.00     0.039 A 
ATOM     20  C   UNL d   1      -1.267   0.627  -0.001  0.00  0.00     0.008 A 
ATOM     21  C   UNL d   1      -1.246   2.019  -0.002  0.00  0.00     0.034 A 
ATOM     22  I   UNL d   1      -3.090  -0.370  -0.006  0.00  0.00    -0.045 I 
BRANCH  16  23
ATOM     23  O   UNL d   1       2.369   2.668   0.010  0.00  0.00    -0.358 OA
ATOM     24  H   UNL d   1       3.089   2.009   0.014  0.00  0.00     0.217 HD
ENDBRANCH  16  23
ENDBRANCH   3  15
TORSDOF 7
