REMARK  5 active torsions:
REMARK  status: ('A' for Active; 'I' for Inactive)
REMARK    1  A    between atoms: C_5  and  C_1 
REMARK    2  A    between atoms: C_14  and  C_4 
REMARK       I    between atoms: N_16  and  C_5 
REMARK    3  A    between atoms: N_8  and  C_11 
REMARK    4  A    between atoms: C_10  and  C_21 
REMARK    5  A    between atoms: N_12  and  N_16 
ROOT
ATOM      1  C   UNL d   1       0.547  -1.032  -0.014  0.00  0.00     0.241 A 
ATOM      2  N   UNL d   1      -0.720  -0.663   0.036  0.00  0.00    -0.315 N 
ATOM      3  HN  UNL d   1      -1.554  -1.244   0.121  1.00  0.00     0.169 HD
ATOM      4  C   UNL d   1      -0.623   0.716  -0.055  0.00  0.00     0.138 A 
ATOM      5  N   UNL d   1       0.637   1.171  -0.141  0.00  0.00    -0.242 N 
ATOM      6  HN  UNL d   1       0.952   2.139  -0.210  1.00  0.00     0.196 HD
ATOM      7  O   UNL d   1       1.411   0.018  -0.113  0.00  0.00    -0.212 OA
ENDROOT
BRANCH   1   8
ATOM      8  C   UNL d   1       1.098  -2.371  -0.003  0.00  0.00     0.313 C 
ATOM      9  N   UNL d   1       0.145  -3.389   0.077  0.00  0.00    -0.263 N 
ATOM     10  H   UNL d   1      -0.841  -3.160   0.156  0.00  0.00     0.190 HD
ATOM     11  O   UNL d   1       2.310  -2.588  -0.067  0.00  0.00    -0.262 OA
BRANCH   9  12
ATOM     12  N   UNL d   1       0.570  -4.685   0.091  0.00  0.00    -0.308 N 
ATOM     13  C   UNL d   1      -0.320  -5.619   0.171  0.00  0.00     0.122 C 
ATOM     14  HN  UNL d   1       1.564  -4.911   0.040  1.00  0.00     0.186 HD
BRANCH  13  15
ATOM     15  C   UNL d   1       0.071  -7.053   0.206  0.00  0.00     0.024 A 
ATOM     16  C   UNL d   1       1.276  -7.489   0.788  0.00  0.00     0.047 A 
ATOM     17 CL   UNL d   1       2.364  -6.457   1.651  0.00  0.00    -0.083 Cl
ATOM     18  C   UNL d   1       1.629  -8.846   0.757  0.00  0.00     0.025 A 
ATOM     19  C   UNL d   1       0.787  -9.784   0.168  0.00  0.00     0.003 A 
ATOM     20  C   UNL d   1      -0.421  -9.369  -0.385  0.00  0.00     0.025 A 
ATOM     21  C   UNL d   1      -0.781  -8.013  -0.366  0.00  0.00     0.047 A 
ATOM     22 CL   UNL d   1      -2.295  -7.606  -1.101  0.00  0.00    -0.083 Cl
ENDBRANCH  13  15
ENDBRANCH   9  12
ENDBRANCH   1   8
BRANCH   4  23
ATOM     23  C   UNL d   1      -1.791   1.596  -0.081  0.00  0.00     0.010 A 
ATOM     24  C   UNL d   1      -3.083   1.064   0.042  0.00  0.00     0.018 A 
ATOM     25  C   UNL d   1      -4.208   1.896  -0.004  0.00  0.00     0.037 A 
ATOM     26  C   UNL d   1      -4.043   3.276  -0.174  0.00  0.00     0.102 A 
ATOM     27  C   UNL d   1      -2.763   3.827  -0.293  0.00  0.00     0.037 A 
ATOM     28  C   UNL d   1      -1.645   2.986  -0.243  0.00  0.00     0.018 A 
BRANCH  26  29
ATOM     29  N   UNL d   1      -5.223   4.151  -0.231  0.00  0.00    -0.116 N 
ATOM     30  O   UNL d   1      -6.338   3.621  -0.121  0.00  0.00    -0.532 OA
ATOM     31  O   UNL d   1      -5.033   5.365  -0.387  0.00  0.00    -0.532 OA
ENDBRANCH  26  29
ENDBRANCH   4  23
TORSDOF 5
