REMARK  4 active torsions:
REMARK  status: ('A' for Active; 'I' for Inactive)
REMARK    1  A    between atoms: C_7  and  N_1 
REMARK    2  A    between atoms: C_9  and  N_4 
REMARK    3  A    between atoms: C_14  and  C_7 
REMARK    4  A    between atoms: C_15  and  C_9 
ROOT
ATOM      1  N   UNL d   1       0.763   1.077  -0.276  0.00  0.00    -0.337 N 
ATOM      2  C   UNL d   1       1.599   0.183   0.364  0.00  0.00     0.140 C 
ATOM      3  S   UNL d   1       1.129  -1.470   0.059  0.00  0.00    -0.070 SA
ATOM      4  N   UNL d   1      -1.275  -0.162  -0.248  0.00  0.00     0.119 N 
ATOM      5  C   UNL d   1      -0.623   1.085   0.130  0.00  0.00     0.400 C 
ATOM      6  C   UNL d   1      -0.628  -1.315   0.381  0.00  0.00     0.356 C 
ATOM      7  S   UNL d   1       2.966   0.564   1.247  0.00  0.00    -0.053 SA
ENDROOT
BRANCH   1   8
ATOM      8  C   UNL d   1       1.280   2.276  -0.945  0.00  0.00     0.166 C 
BRANCH   8   9
ATOM      9  C   UNL d   1       0.980   2.288  -2.424  0.00  0.00    -0.025 A 
ATOM     10  C   UNL d   1       0.855   3.494  -3.104  0.00  0.00     0.096 A 
ATOM     11  N   UNL d   1       0.659   3.602  -4.440  0.00  0.00    -0.375 N 
ATOM     12  C   UNL d   1       0.597   2.448  -5.139  0.00  0.00     0.087 A 
ATOM     13  HN  UNL d   1       0.564   4.509  -4.895  1.00  0.00     0.164 HD
ATOM     14  C   UNL d   1       0.719   1.196  -4.567  0.00  0.00     0.018 A 
ATOM     15  C   UNL d   1       0.917   1.118  -3.191  0.00  0.00     0.011 A 
ENDBRANCH   8   9
ENDBRANCH   1   8
BRANCH   4  16
ATOM     16  C   UNL d   1      -2.684  -0.073   0.207  0.00  0.00     0.315 C 
BRANCH  16  17
ATOM     17  C   UNL d   1      -3.558  -1.232  -0.193  0.00  0.00    -0.015 A 
ATOM     18  C   UNL d   1      -4.130  -2.063   0.769  0.00  0.00     0.096 A 
ATOM     19  N   UNL d   1      -4.957  -3.094   0.488  0.00  0.00    -0.375 N 
ATOM     20  C   UNL d   1      -5.235  -3.308  -0.816  0.00  0.00     0.087 A 
ATOM     21  HN  UNL d   1      -5.352  -3.680   1.224  1.00  0.00     0.164 HD
ATOM     22  C   UNL d   1      -4.716  -2.546  -1.849  0.00  0.00     0.018 A 
ATOM     23  C   UNL d   1      -3.860  -1.495  -1.532  0.00  0.00     0.011 A 
ENDBRANCH  16  17
ENDBRANCH   4  16
TORSDOF 4
