REMARK  3 active torsions:
REMARK  status: ('A' for Active; 'I' for Inactive)
REMARK    1  A    between atoms: C_11  and  C_5 
REMARK    2  A    between atoms: O_20  and  C_12 
REMARK    3  A    between atoms: S_15  and  C_14 
ROOT
ATOM      1  C   UNL d   1      -2.086   0.249   0.067  0.00  0.00    -0.006 C 
ATOM      2  C   UNL d   1      -1.598   1.526   0.679  0.00  0.00     0.189 C 
ATOM      3  C   UNL d   1      -0.728   1.393   1.878  0.00  0.00     0.021 A 
ATOM      4  C   UNL d   1      -0.321   0.135   2.350  0.00  0.00    -0.041 A 
ATOM      5  C   UNL d   1      -3.275   0.144  -0.557  0.00  0.00     0.022 C 
ATOM      6  C   UNL d   1      -0.325   2.556   2.543  0.00  0.00     0.019 A 
ATOM      7  C   UNL d   1      -1.128  -0.901   0.205  0.00  0.00     0.047 C 
ATOM      8  O   UNL d   1      -1.846   2.631   0.211  0.00  0.00    -0.287 OA
ATOM      9  C   UNL d   1       0.476   0.072   3.505  0.00  0.00     0.044 A 
ATOM     10  C   UNL d   1      -0.769  -1.133   1.672  0.00  0.00     0.044 C 
ATOM     11  C   UNL d   1       0.879   1.236   4.171  0.00  0.00     0.068 A 
ATOM     12  C   UNL d   1       0.475   2.478   3.684  0.00  0.00     0.038 A 
ENDROOT
BRANCH   5  13
ATOM     13  C   UNL d   1      -4.266   1.214  -0.701  0.00  0.00    -0.035 A 
ATOM     14  C   UNL d   1      -4.221   2.071  -1.804  0.00  0.00     0.012 A 
ATOM     15  C   UNL d   1      -5.142   3.118  -1.926  0.00  0.00     0.019 A 
ATOM     16  C   UNL d   1      -6.118   3.326  -0.948  0.00  0.00    -0.000 A 
ATOM     17  C   UNL d   1      -6.177   2.444   0.139  0.00  0.00     0.019 A 
ATOM     18  C   UNL d   1      -5.255   1.399   0.267  0.00  0.00     0.012 A 
BRANCH  16  19
ATOM     19  S   UNL d   1      -7.336   4.632  -1.032  0.00  0.00    -0.134 SA
ATOM     20  C   UNL d   1      -6.412   5.966  -1.845  0.00  0.00     0.095 C 
ENDBRANCH  16  19
ENDBRANCH   5  13
BRANCH  11  21
ATOM     21  O   UNL d   1       1.657   1.028   5.278  0.00  0.00    -0.356 OA
ATOM     22  C   UNL d   1       2.087   2.188   5.983  0.00  0.00     0.210 C 
ENDBRANCH  11  21
TORSDOF 3
