REMARK  4 active torsions:
REMARK  status: ('A' for Active; 'I' for Inactive)
REMARK    1  A    between atoms: C_8  and  C_1 
REMARK    2  A    between atoms: C_12  and  C_2 
REMARK    3  A    between atoms: N_5  and  C_9 
REMARK    4  A    between atoms: C_16  and  C_8 
ROOT
ATOM      1  C   UNL d   1      -2.304  -0.347   0.062  0.00  0.00     0.032 A 
ATOM      2  C   UNL d   1      -1.798  -1.595  -0.036  0.00  0.00     0.097 A 
ATOM      3  C   UNL d   1      -1.329   0.774   0.164  0.00  0.00     0.194 A 
ATOM      4  O   UNL d   1      -0.454  -1.919  -0.003  0.00  0.00    -0.308 OA
ATOM      5  C   UNL d   1       0.099   0.433   0.092  0.00  0.00     0.048 A 
ATOM      6  C   UNL d   1       0.463  -0.905   0.026  0.00  0.00     0.090 A 
ATOM      7  O   UNL d   1      -1.684   1.940   0.291  0.00  0.00    -0.287 OA
ATOM      8  C   UNL d   1       1.078   1.433   0.085  0.00  0.00     0.018 A 
ATOM      9  C   UNL d   1       1.811  -1.259  -0.024  0.00  0.00     0.038 A 
ATOM     10  C   UNL d   1       2.426   1.080   0.021  0.00  0.00     0.001 A 
ATOM     11  C   UNL d   1       2.793  -0.266  -0.027  0.00  0.00     0.003 A 
ENDROOT
BRANCH   1  12
ATOM     12  C   UNL d   1      -3.764   0.041   0.027  0.00  0.00     0.084 C 
BRANCH  12  13
ATOM     13  C   UNL d   1      -4.633  -0.472   1.163  0.00  0.00    -0.054 A 
ATOM     14  C   UNL d   1      -4.145  -0.637   2.469  0.00  0.00     0.010 A 
ATOM     15  C   UNL d   1      -4.976  -1.119   3.486  0.00  0.00     0.036 A 
ATOM     16  C   UNL d   1      -6.319  -1.396   3.208  0.00  0.00     0.102 A 
ATOM     17  C   UNL d   1      -6.834  -1.200   1.923  0.00  0.00     0.036 A 
ATOM     18  C   UNL d   1      -5.990  -0.741   0.909  0.00  0.00     0.010 A 
BRANCH  16  19
ATOM     19  N   UNL d   1      -7.199  -1.886   4.276  0.00  0.00    -0.116 N 
ATOM     20  O   UNL d   1      -6.693  -2.086   5.393  0.00  0.00    -0.532 OA
ATOM     21  O   UNL d   1      -8.393  -2.075   4.004  0.00  0.00    -0.532 OA
ENDBRANCH  16  19
ENDBRANCH  12  13
ENDBRANCH   1  12
BRANCH   2  22
ATOM     22  C   UNL d   1      -2.648  -2.783  -0.195  0.00  0.00    -0.002 A 
ATOM     23  C   UNL d   1      -3.045  -3.197  -1.472  0.00  0.00     0.014 A 
ATOM     24  C   UNL d   1      -3.870  -4.313  -1.624  0.00  0.00     0.001 A 
ATOM     25  C   UNL d   1      -4.307  -5.017  -0.502  0.00  0.00     0.000 A 
ATOM     26  C   UNL d   1      -3.905  -4.619   0.771  0.00  0.00     0.001 A 
ATOM     27  C   UNL d   1      -3.066  -3.514   0.923  0.00  0.00     0.014 A 
ENDBRANCH   2  22
TORSDOF 4
