REMARK  3 active torsions:
REMARK  status: ('A' for Active; 'I' for Inactive)
REMARK    1  A    between atoms: N_2  and  C_1 
REMARK    2  A    between atoms: C_7  and  C_4 
REMARK    3  A    between atoms: O_11  and  C_7 
ROOT
ATOM      1  C   UNL d   1      -0.143   1.095  -0.013  0.00  0.00     0.215 A 
ATOM      2  O   UNL d   1      -1.032   0.062  -0.019  0.00  0.00    -0.282 OA
ATOM      3  C   UNL d   1      -0.282  -1.090  -0.010  0.00  0.00     0.151 A 
ATOM      4  C   UNL d   1       1.156   0.648   0.000  0.00  0.00     0.066 A 
ATOM      5  C   UNL d   1       1.065  -0.768   0.002  0.00  0.00     0.049 A 
ENDROOT
BRANCH   3   6
ATOM      6  C   UNL d   1      -0.958  -2.366  -0.015  0.00  0.00     0.201 C 
ATOM      7  O   UNL d   1      -0.416  -3.460  -0.008  0.00  0.00    -0.645 OA
BRANCH   6   8
ATOM      8  O   UNL d   1      -2.307  -2.213  -0.027  0.00  0.00    -0.771 OA
ATOM      9  H   UNL d   1      -2.559  -1.266  -0.031  0.00  0.00     0.167 HD
ENDBRANCH   6   8
ENDBRANCH   3   6
BRANCH   1  10
ATOM     10  N   UNL d   1      -0.700   2.411  -0.021  0.00  0.00    -0.090 N 
ATOM     11  O   UNL d   1       0.107   3.349  -0.015  0.00  0.00    -0.530 OA
ATOM     12  O   UNL d   1      -1.933   2.508  -0.033  0.00  0.00    -0.530 OA
ENDBRANCH   1  10
TORSDOF 3
