REMARK  3 active torsions:
REMARK  status: ('A' for Active; 'I' for Inactive)
REMARK    1  A    between atoms: N_4  and  C_8 
REMARK    2  A    between atoms: C_11  and  C_5 
REMARK    3  A    between atoms: C_19  and  N_9 
ROOT
ATOM      1  N   UNL d   1       1.466  -0.537  -0.063  0.00  0.00    -0.335 N 
ATOM      2  HN  UNL d   1       2.377  -0.985  -0.161  1.00  0.00     0.168 HD
ATOM      3  C   UNL d   1       0.327  -1.186   0.018  0.00  0.00     0.149 A 
ATOM      4  C   UNL d   1       1.273   0.828   0.002  0.00  0.00     0.051 A 
ATOM      5  S   UNL d   1      -1.052  -0.169   0.225  0.00  0.00    -0.064 SA
ATOM      6  C   UNL d   1      -0.044   1.217   0.130  0.00  0.00     0.083 A 
ATOM      7  N   UNL d   1       0.184  -2.532  -0.019  0.00  0.00    -0.337 N 
ATOM      8  H   UNL d   1      -0.720  -2.924   0.208  0.00  0.00     0.168 HD
ENDROOT
BRANCH   7   9
ATOM      9  C   UNL d   1       1.067  -3.432  -0.648  0.00  0.00     0.036 A 
ATOM     10  C   UNL d   1       1.117  -4.758  -0.213  0.00  0.00     0.046 A 
ATOM     11  C   UNL d   1       2.025  -5.624  -0.804  0.00  0.00     0.090 A 
ATOM     12  N   UNL d   1       2.870  -5.270  -1.794  0.00  0.00    -0.375 N 
ATOM     13  C   UNL d   1       2.819  -3.984  -2.193  0.00  0.00     0.090 A 
ATOM     14  HN  UNL d   1       3.513  -5.939  -2.217  1.00  0.00     0.164 HD
ATOM     15  C   UNL d   1       1.960  -3.044  -1.650  0.00  0.00     0.046 A 
ENDBRANCH   7   9
BRANCH   4  16
ATOM     16  C   UNL d   1       2.413   1.734  -0.045  0.00  0.00    -0.009 A 
ATOM     17  C   UNL d   1       2.324   3.008  -0.622  0.00  0.00     0.016 A 
ATOM     18  C   UNL d   1       3.444   3.846  -0.669  0.00  0.00     0.037 A 
ATOM     19  C   UNL d   1       4.663   3.407  -0.132  0.00  0.00     0.102 A 
ATOM     20  C   UNL d   1       4.768   2.139   0.446  0.00  0.00     0.037 A 
ATOM     21  C   UNL d   1       3.645   1.308   0.482  0.00  0.00     0.016 A 
BRANCH  19  22
ATOM     22  N   UNL d   1       5.839   4.286  -0.182  0.00  0.00    -0.116 N 
ATOM     23  O   UNL d   1       5.705   5.397  -0.717  0.00  0.00    -0.532 OA
ATOM     24  O   UNL d   1       6.893   3.867   0.313  0.00  0.00    -0.532 OA
ENDBRANCH  19  22
ENDBRANCH   4  16
TORSDOF 3
