REMARK  5 active torsions:
REMARK  status: ('A' for Active; 'I' for Inactive)
REMARK    1  A    between atoms: C_9  and  C_3 
REMARK    2  A    between atoms: C_12  and  C_4 
REMARK    3  A    between atoms: O_14  and  C_12 
REMARK    4  A    between atoms: C_15  and  O_14 
REMARK    5  A    between atoms: O_23  and  C_16 
ROOT
ATOM      1  N   UNL d   1       2.544   5.747  -5.183  0.00  0.00    -0.191 NA
ATOM      2  C   UNL d   1       2.227   4.926  -4.428  0.00  0.00     0.099 C 
ATOM      3  C   UNL d   1       1.102   1.952  -1.605  0.00  0.00    -0.009 A 
ATOM      4  C   UNL d   1       0.727   3.290  -1.420  0.00  0.00     0.015 A 
ATOM      5  C   UNL d   1       1.827   1.608  -2.756  0.00  0.00     0.015 A 
ATOM      6  C   UNL d   1       1.836   3.919  -3.483  0.00  0.00     0.044 A 
ATOM      7  C   UNL d   1       2.197   2.585  -3.687  0.00  0.00     0.023 A 
ATOM      8  C   UNL d   1       1.093   4.269  -2.352  0.00  0.00     0.023 A 
ENDROOT
BRANCH   3   9
ATOM      9  C   UNL d   1       0.768   0.918  -0.631  0.00  0.00     0.049 A 
ATOM     10  N   UNL d   1       0.597  -0.403  -1.013  0.00  0.00    -0.351 N 
ATOM     11  C   UNL d   1       0.337  -1.153   0.041  0.00  0.00     0.075 A 
ATOM     12  HN  UNL d   1       0.663  -0.746  -1.971  1.00  0.00     0.166 HD
ATOM     13  S   UNL d   1       0.287  -0.314   1.543  0.00  0.00    -0.084 SA
ATOM     14  C   UNL d   1       0.633   1.150   0.724  0.00  0.00     0.082 A 
BRANCH  11  15
ATOM     15  C   UNL d   1       0.042  -2.622  -0.003  0.00  0.00     0.240 C 
BRANCH  15  16
ATOM     16  O   UNL d   1       1.282  -3.320   0.131  0.00  0.00    -0.345 OA
BRANCH  16  17
ATOM     17  C   UNL d   1       1.214  -4.686   0.101  0.00  0.00     0.069 A 
ATOM     18  C   UNL d   1       0.046  -5.445   0.015  0.00  0.00     0.039 A 
ATOM     19  C   UNL d   1       0.105  -6.843   0.006  0.00  0.00     0.039 A 
ATOM     20  C   UNL d   1       1.332  -7.500   0.084  0.00  0.00     0.068 A 
ATOM     21  C   UNL d   1       2.501  -6.741   0.162  0.00  0.00     0.039 A 
ATOM     22  C   UNL d   1       2.443  -5.344   0.172  0.00  0.00     0.039 A 
BRANCH  20  23
ATOM     23  O   UNL d   1       1.517  -8.854   0.096  0.00  0.00    -0.356 OA
ATOM     24  C   UNL d   1       0.346  -9.660   0.028  0.00  0.00     0.210 C 
ENDBRANCH  20  23
ENDBRANCH  16  17
ENDBRANCH  15  16
ENDBRANCH  11  15
ENDBRANCH   3   9
TORSDOF 5
