REMARK  4 active torsions:
REMARK  status: ('A' for Active; 'I' for Inactive)
REMARK    1  A    between atoms: C_2  and  C_1 
REMARK    2  A    between atoms: N_3  and  C_1 
REMARK    3  A    between atoms: N_8  and  N_3 
REMARK    4  A    between atoms: O_11  and  N_4 
ROOT
ATOM      1  C   UNL d   1       0.873  -0.018   0.110  0.00  0.00     0.150 C 
ATOM      2  N   UNL d   1       2.079  -0.469   0.350  0.00  0.00    -0.251 N 
ATOM      3  HN  UNL d   1       2.546  -0.415   1.256  1.00  0.00     0.196 HD
ENDROOT
BRANCH   1   4
ATOM      4  C   UNL d   1       0.176   0.658   1.237  0.00  0.00     0.071 A 
ATOM      5  C   UNL d   1       0.867   1.675   1.906  0.00  0.00     0.132 A 
ATOM      6  F   UNL d   1       2.111   2.026   1.542  0.00  0.00    -0.205 F 
ATOM      7  C   UNL d   1       0.278   2.385   2.953  0.00  0.00     0.043 A 
ATOM      8  C   UNL d   1      -1.023   2.094   3.335  0.00  0.00     0.005 A 
ATOM      9  C   UNL d   1      -1.723   1.072   2.686  0.00  0.00     0.025 A 
ATOM     10  C   UNL d   1      -1.123   0.342   1.649  0.00  0.00     0.051 A 
ATOM     11 CL   UNL d   1      -2.032  -0.977   0.996  0.00  0.00    -0.083 Cl
ENDBRANCH   1   4
BRANCH   1  12
ATOM     12  N   UNL d   1       0.298  -0.146  -1.145  0.00  0.00    -0.303 N 
ATOM     13  H   UNL d   1       0.987  -0.473  -1.824  0.00  0.00     0.182 HD
BRANCH  12  14
ATOM     14  N   UNL d   1      -0.722   0.733  -1.576  0.00  0.00    -0.238 NA
ATOM     15  C   UNL d   1      -0.147   2.020  -1.975  0.00  0.00     0.135 C 
ATOM     16  C   UNL d   1      -1.398   0.102  -2.714  0.00  0.00     0.135 C 
ENDBRANCH  12  14
ENDBRANCH   1  12
BRANCH   2  17
ATOM     17  O   UNL d   1       2.646  -1.036  -0.804  0.00  0.00    -0.288 OA
ATOM     18  H   UNL d   1       3.534  -1.288  -0.487  0.00  0.00     0.244 HD
ENDBRANCH   2  17
TORSDOF 4
