REMARK  5 active torsions:
REMARK  status: ('A' for Active; 'I' for Inactive)
REMARK       I    between atoms: N_3  and  C_4 
REMARK    1  A    between atoms: C_13  and  N_3 
REMARK    2  A    between atoms: C_16  and  N_3 
REMARK    3  A    between atoms: C_4  and  C_11 
REMARK    4  A    between atoms: O_9  and  C_7 
REMARK    5  A    between atoms: C_11  and  O_9 
ROOT
ATOM      1  N   UNL d   1      -1.015  -5.675  -0.127  0.00  0.00    -0.311 N 
ATOM      2  C   UNL d   1      -2.170  -5.145   0.484  0.00  0.00     0.248 C 
ATOM      3  O   UNL d   1      -2.863  -5.845   1.243  0.00  0.00    -0.271 OA
ENDROOT
BRANCH   2   4
ATOM      4  C   UNL d   1      -2.679  -3.731   0.135  0.00  0.00     0.278 C 
BRANCH   4   5
ATOM      5  O   UNL d   1      -4.108  -3.813   0.308  0.00  0.00    -0.341 OA
BRANCH   5   6
ATOM      6  C   UNL d   1      -4.869  -2.857  -0.316  0.00  0.00     0.083 A 
ATOM      7  C   UNL d   1      -5.422  -3.050  -1.620  0.00  0.00     0.030 A 
ATOM      8  C   UNL d   1      -6.423  -2.111  -1.998  0.00  0.00     0.051 A 
ATOM      9  C   UNL d   1      -5.105  -4.104  -2.546  0.00  0.00    -0.047 A 
ATOM     10  N   UNL d   1      -6.818  -1.104  -1.189  0.00  0.00    -0.365 N 
ATOM     11  C   UNL d   1      -7.063  -2.234  -3.243  0.00  0.00    -0.034 A 
ATOM     12  C   UNL d   1      -6.273  -0.982   0.030  0.00  0.00     0.091 A 
ATOM     13  HN  UNL d   1      -7.527  -0.442  -1.503  1.00  0.00     0.165 HD
ATOM     14  C   UNL d   1      -5.303  -1.824   0.514  0.00  0.00     0.054 A 
ATOM     15  C   UNL d   1      -8.251  -1.380  -3.615  0.00  0.00     0.050 C 
ATOM     16  C   UNL d   1      -6.667  -3.210  -4.156  0.00  0.00     0.009 A 
ATOM     17  C   UNL d   1      -5.692  -4.127  -3.819  0.00  0.00     0.008 A 
ATOM     18  C   UNL d   1      -4.161  -5.233  -2.249  0.00  0.00     0.049 C 
ENDBRANCH   5   6
ENDBRANCH   4   5
ENDBRANCH   2   4
BRANCH   1  19
ATOM     19  C   UNL d   1      -0.890  -7.106   0.082  0.00  0.00     0.037 A 
ATOM     20  C   UNL d   1      -1.685  -7.965  -0.685  0.00  0.00     0.030 A 
ATOM     21  C   UNL d   1      -1.501  -9.348  -0.610  0.00  0.00     0.002 A 
ATOM     22  C   UNL d   1      -0.539  -9.882   0.246  0.00  0.00     0.000 A 
ATOM     23  C   UNL d   1       0.217  -9.037   1.056  0.00  0.00     0.002 A 
ATOM     24  C   UNL d   1       0.040  -7.654   0.980  0.00  0.00     0.030 A 
ENDBRANCH   1  19
BRANCH   1  25
ATOM     25  C   UNL d   1       0.314  -4.984  -0.312  0.00  0.00     0.093 C 
ATOM     26  C   UNL d   1       0.332  -3.500  -0.728  0.00  0.00     0.026 C 
ATOM     27  C   UNL d   1       0.009  -3.240  -2.198  0.00  0.00     0.002 C 
ATOM     28  C   UNL d   1       0.848  -4.088  -3.146  0.00  0.00     0.000 C 
ATOM     29  C   UNL d   1       0.781  -5.559  -2.764  0.00  0.00     0.002 C 
ATOM     30  C   UNL d   1       1.234  -5.745  -1.319  0.00  0.00     0.026 C 
ENDBRANCH   1  25
TORSDOF 5
