REMARK  6 active torsions:
REMARK  status: ('A' for Active; 'I' for Inactive)
REMARK    1  A    between atoms: C_9  and  N_1 
REMARK       I    between atoms: C_2  and  N_6 
REMARK    2  A    between atoms: C_3  and  C_2 
REMARK    3  A    between atoms: C_4  and  C_5 
REMARK    4  A    between atoms: O_15  and  C_4 
REMARK    5  A    between atoms: N_6  and  C_12 
REMARK    6  A    between atoms: C_16  and  C_9 
ROOT
ATOM      1  N   UNL d   1      -6.920   4.783   1.076  0.00  0.00     0.092 N 
ATOM      2  C   UNL d   1      -4.888   3.418   0.719  0.00  0.00     0.055 C 
ATOM      3  C   UNL d   1      -4.754   5.911   0.551  0.00  0.00     0.055 C 
ATOM      4  C   UNL d   1      -4.145   4.591   0.075  0.00  0.00     0.088 C 
ATOM      5  C   UNL d   1      -6.282   5.948   0.445  0.00  0.00     0.275 C 
ATOM      6  C   UNL d   1      -6.396   3.529   0.512  0.00  0.00     0.275 C 
ENDROOT
BRANCH   4   7
ATOM      7  N   UNL d   1      -4.113   4.491  -1.387  0.00  0.00    -0.353 N 
ATOM      8  C   UNL d   1      -3.306   3.578  -2.011  0.00  0.00     0.241 C 
ATOM      9  O   UNL d   1      -2.579   2.770  -1.455  0.00  0.00    -0.269 OA
ATOM     10  H   UNL d   1      -4.479   5.262  -1.931  0.00  0.00     0.163 HD
BRANCH   8  11
ATOM     11  C   UNL d   1      -3.288   3.694  -3.478  0.00  0.00     0.080 C 
ATOM     12  C   UNL d   1      -2.159   3.840  -4.185  0.00  0.00     0.086 C 
BRANCH  12  13
ATOM     13  C   UNL d   1      -0.759   4.023  -3.752  0.00  0.00     0.165 C 
ATOM     14  O   UNL d   1       0.061   4.486  -4.531  0.00  0.00    -0.647 OA
BRANCH  13  15
ATOM     15  O   UNL d   1      -0.439   3.677  -2.498  0.00  0.00    -0.773 OA
ATOM     16  H   UNL d   1      -1.115   3.163  -1.998  0.00  0.00     0.167 HD
ENDBRANCH  13  15
ENDBRANCH  12  13
ENDBRANCH   8  11
ENDBRANCH   4   7
BRANCH   1  17
ATOM     17  C   UNL d   1      -8.391   4.804   0.919  0.00  0.00     0.311 C 
BRANCH  17  18
ATOM     18  C   UNL d   1      -9.070   6.008   1.537  0.00  0.00    -0.030 A 
ATOM     19  C   UNL d   1      -9.780   6.912   0.733  0.00  0.00     0.009 A 
ATOM     20  C   UNL d   1     -10.383   8.039   1.294  0.00  0.00     0.001 A 
ATOM     21  C   UNL d   1     -10.291   8.268   2.666  0.00  0.00     0.000 A 
ATOM     22  C   UNL d   1      -9.607   7.366   3.478  0.00  0.00     0.001 A 
ATOM     23  C   UNL d   1      -8.999   6.241   2.918  0.00  0.00     0.009 A 
ENDBRANCH  17  18
ENDBRANCH   1  17
TORSDOF 6
