REMARK  4 active torsions:
REMARK  status: ('A' for Active; 'I' for Inactive)
REMARK    1  A    between atoms: C_7  and  C_2 
REMARK    2  A    between atoms: O_10  and  C_2 
REMARK    3  A    between atoms: C_9  and  C_5 
REMARK    4  A    between atoms: C_8  and  C_6 
ROOT
ATOM      1  N   UNL d   1       0.594   1.232  -0.200  0.00  0.00     0.103 N 
ATOM      2  C   UNL d   1      -0.971  -1.344   0.180  0.00  0.00     0.096 C 
ATOM      3  C   UNL d   1       0.562  -1.286  -0.053  0.00  0.00     0.059 C 
ATOM      4  C   UNL d   1      -1.659   0.006  -0.264  0.00  0.00     0.059 C 
ATOM      5  C   UNL d   1       1.214   0.047   0.438  0.00  0.00     0.263 C 
ATOM      6  C   UNL d   1      -0.858   1.314   0.048  0.00  0.00     0.263 C 
ATOM      7  C   UNL d   1       0.964   1.344  -1.616  0.00  0.00     0.311 C 
ATOM      8  C   UNL d   1      -3.078   0.120   0.345  0.00  0.00     0.016 C 
ATOM      9  C   UNL d   1       1.356  -2.489   0.483  0.00  0.00     0.016 C 
ENDROOT
BRANCH   2  10
ATOM     10  C   UNL d   1      -1.626  -2.577  -0.513  0.00  0.00    -0.023 A 
ATOM     11  C   UNL d   1      -2.225  -2.513  -1.786  0.00  0.00     0.013 A 
ATOM     12  C   UNL d   1      -2.974  -3.582  -2.290  0.00  0.00     0.043 A 
ATOM     13  C   UNL d   1      -3.097  -4.748  -1.550  0.00  0.00     0.116 A 
ATOM     14  C   UNL d   1      -2.452  -4.881  -0.332  0.00  0.00     0.043 A 
ATOM     15  F   UNL d   1      -3.847  -5.753  -2.018  0.00  0.00    -0.206 F 
ATOM     16  C   UNL d   1      -1.715  -3.809   0.177  0.00  0.00     0.013 A 
ENDBRANCH   2  10
BRANCH   2  17
ATOM     17  O   UNL d   1      -1.211  -1.530   1.581  0.00  0.00    -0.384 OA
ATOM     18  H   UNL d   1      -2.124  -1.840   1.700  0.00  0.00     0.211 HD
ENDBRANCH   2  17
BRANCH   6  19
ATOM     19  C   UNL d   1      -1.463   2.590  -0.572  0.00  0.00    -0.025 A 
ATOM     20  C   UNL d   1      -1.310   3.810   0.111  0.00  0.00     0.009 A 
ATOM     21  C   UNL d   1      -1.862   4.990  -0.393  0.00  0.00     0.001 A 
ATOM     22  C   UNL d   1      -2.567   4.975  -1.592  0.00  0.00     0.000 A 
ATOM     23  C   UNL d   1      -2.704   3.785  -2.300  0.00  0.00     0.001 A 
ATOM     24  C   UNL d   1      -2.150   2.606  -1.804  0.00  0.00     0.009 A 
ENDBRANCH   6  19
BRANCH   5  25
ATOM     25  C   UNL d   1       1.474   0.252   1.946  0.00  0.00    -0.025 A 
ATOM     26  C   UNL d   1       2.801   0.377   2.409  0.00  0.00     0.009 A 
ATOM     27  C   UNL d   1       3.090   0.572   3.767  0.00  0.00     0.001 A 
ATOM     28  C   UNL d   1       2.065   0.648   4.702  0.00  0.00     0.000 A 
ATOM     29  C   UNL d   1       0.752   0.539   4.281  0.00  0.00     0.001 A 
ATOM     30  C   UNL d   1       0.469   0.348   2.924  0.00  0.00     0.009 A 
ENDBRANCH   5  25
TORSDOF 4
