REMARK  3 active torsions:
REMARK  status: ('A' for Active; 'I' for Inactive)
REMARK    1  A    between atoms: C_4  and  N_1 
REMARK       I    between atoms: C_2  and  N_3 
REMARK       I    between atoms: N_9  and  C_2 
REMARK    2  A    between atoms: N_5  and  C_6 
REMARK    3  A    between atoms: C_20  and  N_9 
ROOT
ATOM      1  C   UNL d   1      -4.055   5.751   6.199  0.00  0.00     0.323 C 
ATOM      2  N   UNL d   1      -3.405   4.856   5.350  0.00  0.00    -0.331 N 
ATOM      3  N   UNL d   1      -2.035   3.237   3.428  0.00  0.00    -0.364 N 
ATOM      4  N   UNL d   1      -4.346   5.271   7.457  0.00  0.00    -0.309 N 
ATOM      5  O   UNL d   1      -4.341   6.880   5.810  0.00  0.00    -0.247 OA
ATOM      6  C   UNL d   1      -2.884   5.426   4.094  0.00  0.00     0.147 C 
ATOM      7  C   UNL d   1      -2.809   3.558   5.732  0.00  0.00     0.147 C 
ATOM      8  C   UNL d   1      -2.689   2.564   4.556  0.00  0.00     0.144 C 
ATOM      9  C   UNL d   1      -2.800   4.399   2.953  0.00  0.00     0.144 C 
ATOM     10  H   UNL d   1      -3.978   4.372   7.707  0.00  0.00     0.170 HD
ENDROOT
BRANCH   4  11
ATOM     11  C   UNL d   1      -5.056   5.925   8.487  0.00  0.00     0.036 A 
ATOM     12  C   UNL d   1      -5.625   7.195   8.370  0.00  0.00     0.029 A 
ATOM     13  C   UNL d   1      -6.315   7.769   9.443  0.00  0.00     0.002 A 
ATOM     14  C   UNL d   1      -6.446   7.076  10.643  0.00  0.00     0.000 A 
ATOM     15  C   UNL d   1      -5.888   5.808  10.772  0.00  0.00     0.002 A 
ATOM     16  C   UNL d   1      -5.197   5.236   9.700  0.00  0.00     0.029 A 
ENDBRANCH   4  11
BRANCH   3  17
ATOM     17  C   UNL d   1      -1.389   2.441   2.495  0.00  0.00     0.103 A 
ATOM     18  C   UNL d   1      -0.505   3.026   1.582  0.00  0.00     0.051 A 
ATOM     19  C   UNL d   1       0.267   2.231   0.735  0.00  0.00     0.041 A 
ATOM     20  C   UNL d   1       0.132   0.851   0.818  0.00  0.00     0.118 A 
ATOM     21  C   UNL d   1      -0.771   0.327   1.725  0.00  0.00     0.125 A 
ATOM     22  N   UNL d   1      -1.520   1.097   2.559  0.00  0.00    -0.350 N 
ATOM     23  HN  UNL d   1      -2.167   0.668   3.221  1.00  0.00     0.166 HD
BRANCH  20  24
ATOM     24  N   UNL d   1       0.943  -0.033  -0.002  0.00  0.00    -0.114 N 
ATOM     25  O   UNL d   1       0.742  -1.251   0.090  0.00  0.00    -0.532 OA
ATOM     26  O   UNL d   1       1.796   0.487  -0.736  0.00  0.00    -0.532 OA
ENDBRANCH  20  24
ENDBRANCH   3  17
TORSDOF 3
