REMARK  3 active torsions:
REMARK  status: ('A' for Active; 'I' for Inactive)
REMARK    1  A    between atoms: C_6  and  C_1 
REMARK    2  A    between atoms: C_2  and  C_4 
REMARK    3  A    between atoms: C_3  and  C_5 
REMARK       I    between atoms: N_14  and  C_6 
ROOT
ATOM      1  C   UNL d   1       1.423  -0.160  -0.035  0.00  0.00     0.061 A 
ATOM      2  C   UNL d   1       0.551  -1.265   0.026  0.00  0.00     0.064 A 
ATOM      3  C   UNL d   1       0.932   1.148  -0.222  0.00  0.00     0.064 A 
ATOM      4  C   UNL d   1      -0.456   1.346  -0.283  0.00  0.00     0.017 A 
ATOM      5  C   UNL d   1      -0.833  -1.025  -0.064  0.00  0.00     0.017 A 
ATOM      6  C   UNL d   1      -1.333   0.268  -0.203  0.00  0.00     0.002 A 
ENDROOT
BRANCH   1   7
ATOM      7  C   UNL d   1       2.873  -0.372   0.068  0.00  0.00     0.251 C 
ATOM      8  O   UNL d   1       3.484  -0.961  -0.809  0.00  0.00    -0.268 OA
ATOM      9  N   UNL d   1       3.462   0.131   1.196  0.00  0.00    -0.366 N 
ATOM     10  H   UNL d   1       2.968   0.601   1.943  0.00  0.00     0.159 HD
ATOM     11  H   UNL d   1       4.462  -0.001   1.299  0.00  0.00     0.159 HD
ENDBRANCH   1   7
BRANCH   2  12
ATOM     12  C   UNL d   1       1.013  -2.699   0.161  0.00  0.00     0.418 C 
ATOM     13  F   UNL d   1       2.288  -2.882   0.584  0.00  0.00    -0.166 F 
ATOM     14  F   UNL d   1       0.247  -3.376   1.071  0.00  0.00    -0.166 F 
ATOM     15  F   UNL d   1       0.880  -3.392  -1.003  0.00  0.00    -0.166 F 
ENDBRANCH   2  12
BRANCH   3  16
ATOM     16  C   UNL d   1       1.852   2.343  -0.331  0.00  0.00     0.418 C 
ATOM     17  F   UNL d   1       3.014   2.109  -0.994  0.00  0.00    -0.166 F 
ATOM     18  F   UNL d   1       1.273   3.392  -0.983  0.00  0.00    -0.166 F 
ATOM     19  F   UNL d   1       2.200   2.822   0.897  0.00  0.00    -0.166 F 
ENDBRANCH   3  16
TORSDOF 3
