REMARK  5 active torsions:
REMARK  status: ('A' for Active; 'I' for Inactive)
REMARK    1  A    between atoms: C_15  and  C_1 
REMARK    2  A    between atoms: C_10  and  C_3 
REMARK    3  A    between atoms: N_14  and  C_7 
REMARK       I    between atoms: C_9  and  N_13 
REMARK       I    between atoms: N_16  and  C_9 
REMARK    4  A    between atoms: O_27  and  C_15 
REMARK    5  A    between atoms: C_26  and  N_16 
ROOT
ATOM      1  C   UNL d   1      -0.748   0.983   1.337  0.00  0.00     0.074 A 
ATOM      2  C   UNL d   1       0.349   0.438   0.581  0.00  0.00     0.068 A 
ATOM      3  C   UNL d   1       0.950  -1.351  -0.941  0.00  0.00     0.070 A 
ATOM      4  C   UNL d   1      -0.012  -0.692  -0.160  0.00  0.00     0.047 A 
ATOM      5  N   UNL d   1       1.614   0.924   0.570  0.00  0.00    -0.341 N 
ATOM      6  HN  UNL d   1       1.846   1.748   1.124  1.00  0.00     0.167 HD
ATOM      7  C   UNL d   1       2.557   0.326  -0.163  0.00  0.00     0.104 A 
ATOM      8  S   UNL d   1      -1.674  -1.064   0.072  0.00  0.00    -0.098 SA
ATOM      9  C   UNL d   1      -1.899   0.242   1.132  0.00  0.00     0.070 A 
ATOM     10  C   UNL d   1       2.244  -0.793  -0.920  0.00  0.00     0.066 A 
ENDROOT
BRANCH   7  11
ATOM     11  N   UNL d   1       3.845   0.805  -0.071  0.00  0.00    -0.364 N 
ATOM     12  C   UNL d   1       4.154   1.870   0.894  0.00  0.00     0.144 C 
ATOM     13  C   UNL d   1       5.457   1.520   1.645  0.00  0.00     0.147 C 
ATOM     14  N   UNL d   1       6.565   1.171   0.737  0.00  0.00    -0.331 N 
ATOM     15  C   UNL d   1       7.908   1.483   0.891  0.00  0.00     0.323 C 
ATOM     16  C   UNL d   1       6.211   0.208  -0.320  0.00  0.00     0.147 C 
ATOM     17  N   UNL d   1       8.208   2.368   1.900  0.00  0.00    -0.309 N 
ATOM     18  O   UNL d   1       8.749   1.015   0.123  0.00  0.00    -0.247 OA
ATOM     19  H   UNL d   1       7.558   2.434   2.664  0.00  0.00     0.170 HD
ATOM     20  C   UNL d   1       4.910   0.581  -1.054  0.00  0.00     0.144 C 
BRANCH  17  21
ATOM     21  C   UNL d   1       9.388   3.135   2.026  0.00  0.00     0.036 A 
ATOM     22  C   UNL d   1      10.387   3.183   1.047  0.00  0.00     0.032 A 
ATOM     23  C   UNL d   1      11.464   4.065   1.170  0.00  0.00     0.044 A 
ATOM     24  C   UNL d   1      11.546   4.895   2.277  0.00  0.00     0.116 A 
ATOM     25  C   UNL d   1      10.588   4.837   3.281  0.00  0.00     0.044 A 
ATOM     26  F   UNL d   1      12.553   5.773   2.372  0.00  0.00    -0.206 F 
ATOM     27  C   UNL d   1       9.512   3.953   3.159  0.00  0.00     0.032 A 
ENDBRANCH  17  21
ENDBRANCH   7  11
BRANCH   3  28
ATOM     28  C   UNL d   1       0.726  -2.597  -1.752  0.00  0.00     0.418 C 
ATOM     29  F   UNL d   1      -0.526  -3.119  -1.688  0.00  0.00    -0.166 F 
ATOM     30  F   UNL d   1       0.976  -2.395  -3.076  0.00  0.00    -0.166 F 
ATOM     31  F   UNL d   1       1.564  -3.604  -1.373  0.00  0.00    -0.166 F 
ENDBRANCH   3  28
BRANCH   1  32
ATOM     32  C   UNL d   1      -0.757   2.140   2.228  0.00  0.00     0.295 C 
ATOM     33  O   UNL d   1      -1.771   2.503   2.816  0.00  0.00    -0.259 OA
BRANCH  32  34
ATOM     34  O   UNL d   1       0.447   2.766   2.351  0.00  0.00    -0.322 OA
ATOM     35  C   UNL d   1       0.429   3.895   3.223  0.00  0.00     0.213 C 
ENDBRANCH  32  34
ENDBRANCH   1  32
TORSDOF 5
