REMARK  4 active torsions:
REMARK  status: ('A' for Active; 'I' for Inactive)
REMARK    1  A    between atoms: S_2  and  O_8 
REMARK    2  A    between atoms: C_10  and  S_2 
REMARK    3  A    between atoms: O_8  and  C_19 
REMARK    4  A    between atoms: C_19  and  C_9 
ROOT
ATOM      1  C   UNL d   1      -0.805   0.062  -0.307  0.00  0.00     0.048 C 
ATOM      2  N   UNL d   1      -1.736  -1.079  -0.447  0.00  0.00    -0.190 NA
ATOM      3  O   UNL d   1      -2.935  -0.679   0.297  0.00  0.00    -0.295 OA
ATOM      4  C   UNL d   1       0.332   0.118  -1.374  0.00  0.00     0.012 C 
ATOM      5  C   UNL d   1      -0.097  -0.046   1.097  0.00  0.00     0.012 C 
ATOM      6  C   UNL d   1      -1.762   1.257  -0.387  0.00  0.00     0.064 C 
ATOM      7  C   UNL d   1      -3.077   0.746   0.185  0.00  0.00     0.172 C 
ATOM      8  C   UNL d   1       1.854  -1.293   0.074  0.00  0.00    -0.013 C 
ATOM      9  C   UNL d   1       1.927   1.214   0.257  0.00  0.00    -0.013 C 
ATOM     10  C   UNL d   1       0.766  -1.329   1.161  0.00  0.00     0.011 C 
ATOM     11  C   UNL d   1       1.251   1.333  -1.118  0.00  0.00     0.011 C 
ATOM     12  C   UNL d   1       1.199  -1.162  -1.308  0.00  0.00     0.011 C 
ATOM     13  C   UNL d   1       0.848   1.152   1.347  0.00  0.00     0.011 C 
ATOM     14  C   UNL d   1       2.763  -0.077   0.303  0.00  0.00     0.009 C 
ATOM     15  C   UNL d   1      -2.194  -1.407  -1.797  0.00  0.00     0.145 C 
ENDROOT
BRANCH   7  16
ATOM     16  C   UNL d   1      -3.399   1.358   1.547  0.00  0.00     0.224 C 
BRANCH  16  17
ATOM     17  O   UNL d   1      -4.648   0.879   2.033  0.00  0.00    -0.269 OA
BRANCH  17  18
ATOM     18  S   UNL d   1      -5.110   1.425   3.499  0.00  0.00     0.298 S 
ATOM     19  O   UNL d   1      -4.170   0.943   4.487  0.00  0.00    -0.193 OA
ATOM     20  O   UNL d   1      -5.397   2.841   3.358  0.00  0.00    -0.193 OA
BRANCH  18  21
ATOM     21  C   UNL d   1      -6.654   0.608   3.823  0.00  0.00     0.086 A 
ATOM     22  C   UNL d   1      -6.893  -0.664   3.296  0.00  0.00     0.027 A 
ATOM     23  C   UNL d   1      -8.114  -1.293   3.555  0.00  0.00     0.025 A 
ATOM     24  C   UNL d   1      -9.081  -0.647   4.328  0.00  0.00     0.034 A 
ATOM     25  C   UNL d   1      -8.844   0.628   4.842  0.00  0.00     0.025 A 
ATOM     26 CL   UNL d   1     -10.576  -1.433   4.655  0.00  0.00    -0.084 Cl
ATOM     27  C   UNL d   1      -7.626   1.263   4.588  0.00  0.00     0.027 A 
ENDBRANCH  18  21
ENDBRANCH  17  18
ENDBRANCH  16  17
ENDBRANCH   7  16
TORSDOF 4
