REMARK  6 active torsions:
REMARK  status: ('A' for Active; 'I' for Inactive)
REMARK    1  A    between atoms: C_18  and  N_1 
REMARK    2  A    between atoms: S_11  and  C_2 
REMARK    3  A    between atoms: C_4  and  S_11 
REMARK    4  A    between atoms: N_9  and  C_5 
REMARK    5  A    between atoms: N_10  and  C_6 
REMARK    6  A    between atoms: C_13  and  C_15 
ROOT
ATOM      1  N   UNL d   1       2.357  -0.734  -0.052  0.00  0.00    -0.258 N 
ATOM      2  C   UNL d   1       2.315   0.660  -0.065  0.00  0.00     0.160 A 
ATOM      3  C   UNL d   1       1.157  -1.469  -0.035  0.00  0.00     0.266 A 
ATOM      4  N   UNL d   1       1.225   1.350  -0.082  0.00  0.00    -0.335 N 
ATOM      5  HN  UNL d   1       1.261   2.369  -0.097  1.00  0.00     0.168 HD
ATOM      6  C   UNL d   1      -0.096  -0.698  -0.059  0.00  0.00     0.059 A 
ATOM      7  C   UNL d   1      -0.004   0.687  -0.081  0.00  0.00     0.050 A 
ATOM      8  O   UNL d   1       1.070  -2.691   0.035  0.00  0.00    -0.267 OA
ATOM      9  C   UNL d   1      -1.341  -1.341  -0.048  0.00  0.00     0.019 A 
ATOM     10  C   UNL d   1      -1.181   1.438  -0.098  0.00  0.00     0.030 A 
ATOM     11  C   UNL d   1      -2.510  -0.583  -0.069  0.00  0.00     0.001 A 
ATOM     12  C   UNL d   1      -2.430   0.808  -0.094  0.00  0.00     0.002 A 
ENDROOT
BRANCH   2  13
ATOM     13  S   UNL d   1       3.785   1.629  -0.063  0.00  0.00    -0.048 SA
BRANCH  13  14
ATOM     14  C   UNL d   1       4.197   1.907  -1.786  0.00  0.00     0.074 A 
ATOM     15  C   UNL d   1       3.366   2.544  -2.729  0.00  0.00     0.123 A 
ATOM     16  C   UNL d   1       3.725   2.695  -4.092  0.00  0.00     0.053 A 
ATOM     17  C   UNL d   1       4.955   2.226  -4.567  0.00  0.00     0.052 A 
ATOM     18  C   UNL d   1       5.840   1.671  -3.641  0.00  0.00     0.053 A 
ATOM     19  C   UNL d   1       5.462   1.524  -2.287  0.00  0.00     0.123 A 
BRANCH  15  20
ATOM     20  N   UNL d   1       2.096   3.146  -2.357  0.00  0.00    -0.114 N 
ATOM     21  O   UNL d   1       2.129   4.080  -1.549  0.00  0.00    -0.532 OA
ATOM     22  O   UNL d   1       1.097   2.742  -2.969  0.00  0.00    -0.532 OA
ENDBRANCH  15  20
BRANCH  17  23
ATOM     23  C   UNL d   1       5.296   2.297  -6.040  0.00  0.00     0.417 C 
ATOM     24  F   UNL d   1       6.504   1.746  -6.336  0.00  0.00    -0.166 F 
ATOM     25  F   UNL d   1       4.384   1.634  -6.800  0.00  0.00    -0.166 F 
ATOM     26  F   UNL d   1       5.331   3.571  -6.508  0.00  0.00    -0.166 F 
ENDBRANCH  17  23
BRANCH  19  27
ATOM     27  N   UNL d   1       6.478   0.939  -1.423  0.00  0.00    -0.114 N 
ATOM     28  O   UNL d   1       6.919   1.640  -0.505  0.00  0.00    -0.532 OA
ATOM     29  O   UNL d   1       6.872  -0.193  -1.727  0.00  0.00    -0.532 OA
ENDBRANCH  19  27
ENDBRANCH  13  14
ENDBRANCH   2  13
BRANCH   1  30
ATOM     30  C   UNL d   1       3.562  -1.503   0.014  0.00  0.00     0.045 A 
ATOM     31  C   UNL d   1       3.769  -2.543  -0.910  0.00  0.00     0.033 A 
ATOM     32  C   UNL d   1       4.892  -3.366  -0.820  0.00  0.00     0.044 A 
ATOM     33  C   UNL d   1       5.806  -3.160   0.202  0.00  0.00     0.116 A 
ATOM     34  C   UNL d   1       5.618  -2.146   1.135  0.00  0.00     0.044 A 
ATOM     35  F   UNL d   1       6.871  -3.966   0.306  0.00  0.00    -0.206 F 
ATOM     36  C   UNL d   1       4.496  -1.317   1.045  0.00  0.00     0.033 A 
ENDBRANCH   1  30
TORSDOF 6
