REMARK  4 active torsions:
REMARK  status: ('A' for Active; 'I' for Inactive)
REMARK    1  A    between atoms: N_2  and  S_1 
REMARK    2  A    between atoms: C_4  and  S_1 
REMARK    3  A    between atoms: C_3  and  N_2 
REMARK       I    between atoms: C_9  and  N_10 
REMARK    4  A    between atoms: N_10  and  C_16 
ROOT
ATOM      1  S   UNL d   1       1.040   0.006   0.016  0.00  0.00     0.246 S 
ATOM      2  O   UNL d   1       2.335   0.081   0.662  0.00  0.00    -0.206 OA
ATOM      3  O   UNL d   1      -0.000  -0.866   0.510  0.00  0.00    -0.206 OA
ENDROOT
BRANCH   1   4
ATOM      4  N   UNL d   1       1.353  -0.333  -1.621  0.00  0.00    -0.178 NA
ATOM      5  H   UNL d   1       2.255  -0.808  -1.685  0.00  0.00     0.146 HD
BRANCH   4   6
ATOM      6  C   UNL d   1       0.282  -0.931  -2.356  0.00  0.00     0.064 A 
ATOM      7  C   UNL d   1      -0.648  -0.125  -3.006  0.00  0.00     0.069 A 
ATOM      8  C   UNL d   1      -1.730  -0.721  -3.647  0.00  0.00     0.118 A 
ATOM      9  F   UNL d   1      -2.627   0.050  -4.274  0.00  0.00    -0.206 F 
ATOM     10  C   UNL d   1      -1.902  -2.104  -3.643  0.00  0.00     0.045 A 
ATOM     11  C   UNL d   1      -0.974  -2.912  -2.987  0.00  0.00     0.047 A 
ATOM     12  C   UNL d   1       0.111  -2.321  -2.345  0.00  0.00     0.138 A 
ATOM     13  F   UNL d   1       1.004  -3.098  -1.716  0.00  0.00    -0.204 F 
ENDBRANCH   4   6
ENDBRANCH   1   4
BRANCH   1  14
ATOM     14  C   UNL d   1       0.389   1.655  -0.074  0.00  0.00     0.075 A 
ATOM     15  C   UNL d   1      -0.991   1.863  -0.135  0.00  0.00     0.027 A 
ATOM     16  C   UNL d   1      -1.488   3.169  -0.236  0.00  0.00     0.031 A 
ATOM     17  C   UNL d   1      -0.615   4.267  -0.256  0.00  0.00     0.034 A 
ATOM     18  C   UNL d   1       0.761   4.036  -0.152  0.00  0.00     0.031 A 
ATOM     19  C   UNL d   1       1.265   2.737  -0.060  0.00  0.00     0.027 A 
BRANCH  17  20
ATOM     20  N   UNL d   1      -1.180   5.555  -0.389  0.00  0.00    -0.328 N 
ATOM     21  C   UNL d   1      -0.495   6.756  -0.467  0.00  0.00     0.218 C 
ATOM     22  O   UNL d   1       0.720   6.911  -0.421  0.00  0.00    -0.274 OA
ATOM     23  C   UNL d   1      -1.393   7.955  -0.635  0.00  0.00     0.117 C 
ATOM     24  H   UNL d   1      -2.189   5.593  -0.452  0.00  0.00     0.169 HD
ENDBRANCH  17  20
ENDBRANCH   1  14
TORSDOF 4
