REMARK  3 active torsions:
REMARK  status: ('A' for Active; 'I' for Inactive)
REMARK    1  A    between atoms: C_7  and  C_1 
REMARK    2  A    between atoms: O_12  and  C_2 
REMARK    3  A    between atoms: N_4  and  C_8 
ROOT
ATOM      1  C   UNL d   1      -2.510   0.023  -0.043  0.00  0.00     0.059 A 
ATOM      2  C   UNL d   1      -1.688   1.091  -0.037  0.00  0.00     0.091 A 
ATOM      3  C   UNL d   1      -1.639  -1.187  -0.007  0.00  0.00     0.197 A 
ATOM      4  C   UNL d   1      -0.299   0.678  -0.023  0.00  0.00     0.012 A 
ATOM      5  C   UNL d   1      -0.255  -0.712  -0.005  0.00  0.00     0.028 A 
ATOM      6  O   UNL d   1      -1.998  -2.343   0.021  0.00  0.00    -0.286 OA
ATOM      7  C   UNL d   1       0.876   1.412  -0.018  0.00  0.00     0.015 A 
ATOM      8  C   UNL d   1       0.929  -1.425   0.011  0.00  0.00     0.016 A 
ATOM      9  C   UNL d   1       2.091   0.716  -0.000  0.00  0.00     0.001 A 
ATOM     10  C   UNL d   1       2.117  -0.692   0.012  0.00  0.00     0.001 A 
ENDROOT
BRANCH   1  11
ATOM     11  C   UNL d   1      -3.966   0.027  -0.064  0.00  0.00    -0.019 A 
ATOM     12  C   UNL d   1      -4.656   0.044  -1.284  0.00  0.00     0.015 A 
ATOM     13  C   UNL d   1      -6.049   0.178  -1.310  0.00  0.00     0.037 A 
ATOM     14  C   UNL d   1      -6.755   0.288  -0.105  0.00  0.00     0.102 A 
ATOM     15  C   UNL d   1      -6.081   0.217   1.120  0.00  0.00     0.037 A 
ATOM     16  C   UNL d   1      -4.688   0.090   1.136  0.00  0.00     0.015 A 
BRANCH  14  17
ATOM     17  N   UNL d   1      -8.205   0.521  -0.130  0.00  0.00    -0.116 N 
ATOM     18  O   UNL d   1      -8.755   0.618  -1.238  0.00  0.00    -0.532 OA
ATOM     19  O   UNL d   1      -8.789   0.637   0.956  0.00  0.00    -0.532 OA
ENDBRANCH  14  17
ENDBRANCH   1  11
BRANCH   2  20
ATOM     20  O   UNL d   1      -1.997   2.418  -0.031  0.00  0.00    -0.359 OA
ATOM     21  H   UNL d   1      -2.964   2.508   0.033  0.00  0.00     0.217 HD
ENDBRANCH   2  20
TORSDOF 3
