REMARK  5 active torsions:
REMARK  status: ('A' for Active; 'I' for Inactive)
REMARK    1  A    between atoms: C_4  and  C_1 
REMARK    2  A    between atoms: O_9  and  C_3 
REMARK    3  A    between atoms: O_10  and  C_5 
REMARK    4  A    between atoms: C_12  and  O_9 
REMARK    5  A    between atoms: C_13  and  O_10 
ROOT
ATOM      1  C   UNL d   1       1.384  -0.209   0.081  0.00  0.00     0.012 A 
ATOM      2  C   UNL d   1       0.545  -1.331   0.034  0.00  0.00     0.054 A 
ATOM      3  C   UNL d   1      -0.851  -1.202  -0.035  0.00  0.00     0.102 A 
ATOM      4  C   UNL d   1      -1.413   0.091  -0.057  0.00  0.00     0.102 A 
ATOM      5  C   UNL d   1       0.828   1.065   0.047  0.00  0.00     0.018 A 
ATOM      6  C   UNL d   1      -0.563   1.207  -0.018  0.00  0.00     0.040 A 
ENDROOT
BRANCH   1   7
ATOM      7  C   UNL d   1       2.854  -0.437   0.151  0.00  0.00     0.155 C 
ATOM      8  O   UNL d   1       3.324  -1.478  -0.307  0.00  0.00    -0.293 OA
ATOM      9  C   UNL d   1       3.738   0.591   0.806  0.00  0.00     0.096 C 
ENDBRANCH   1   7
BRANCH   3  10
ATOM     10  O   UNL d   1      -1.694  -2.276  -0.086  0.00  0.00    -0.349 OA
BRANCH  10  11
ATOM     11  C   UNL d   1      -1.192  -3.604   0.036  0.00  0.00     0.171 C 
ATOM     12  C   UNL d   1      -1.064  -3.990   1.499  0.00  0.00     0.034 C 
ENDBRANCH  10  11
ENDBRANCH   3  10
BRANCH   4  13
ATOM     13  O   UNL d   1      -2.740   0.446  -0.116  0.00  0.00    -0.349 OA
BRANCH  13  14
ATOM     14  C   UNL d   1      -3.722  -0.588  -0.155  0.00  0.00     0.171 C 
ATOM     15  C   UNL d   1      -5.107   0.032  -0.227  0.00  0.00     0.034 C 
ENDBRANCH  13  14
ENDBRANCH   4  13
TORSDOF 5
