REMARK  4 active torsions:
REMARK  status: ('A' for Active; 'I' for Inactive)
REMARK    1  A    between atoms: C_12  and  C_1 
REMARK    2  A    between atoms: C_11  and  C_2 
REMARK    3  A    between atoms: O_14  and  C_11 
REMARK    4  A    between atoms: O_13  and  C_12 
ROOT
ATOM      1  C   UNL d   1       0.760   0.759   1.130  0.00  0.00    -0.018 C 
ATOM      2  C   UNL d   1      -1.528   0.274   0.093  0.00  0.00    -0.018 C 
ATOM      3  C   UNL d   1       0.527   0.467  -1.381  0.00  0.00    -0.013 C 
ATOM      4  C   UNL d   1       0.264  -1.522   0.135  0.00  0.00    -0.013 C 
ATOM      5  C   UNL d   1      -0.764   1.025   1.212  0.00  0.00     0.023 C 
ATOM      6  C   UNL d   1       0.996  -0.766   1.256  0.00  0.00     0.016 C 
ATOM      7  C   UNL d   1       1.264   1.219  -0.261  0.00  0.00     0.016 C 
ATOM      8  C   UNL d   1      -0.982   0.747  -1.275  0.00  0.00     0.016 C 
ATOM      9  C   UNL d   1      -1.243  -1.241   0.241  0.00  0.00     0.016 C 
ATOM     10  C   UNL d   1       0.777  -1.041  -1.229  0.00  0.00     0.009 C 
ENDROOT
BRANCH   1  11
ATOM     11  C   UNL d   1       1.516   1.520   2.235  0.00  0.00     0.173 C 
BRANCH  11  12
ATOM     12  O   UNL d   1       1.106   1.119   3.537  0.00  0.00    -0.400 OA
ATOM     13  H   UNL d   1       0.192   1.419   3.667  0.00  0.00     0.209 HD
ENDBRANCH  11  12
ENDBRANCH   1  11
BRANCH   2  14
ATOM     14  C   UNL d   1      -3.038   0.566   0.182  0.00  0.00     0.173 C 
BRANCH  14  15
ATOM     15  O   UNL d   1      -3.582   0.175   1.437  0.00  0.00    -0.400 OA
ATOM     16  H   UNL d   1      -3.562  -0.795   1.480  0.00  0.00     0.209 HD
ENDBRANCH  14  15
ENDBRANCH   2  14
TORSDOF 4
