REMARK  7 active torsions:
REMARK  status: ('A' for Active; 'I' for Inactive)
REMARK    1  A    between atoms: N_3  and  S_1 
REMARK    2  A    between atoms: C_6  and  S_1 
REMARK    3  A    between atoms: O_17  and  C_2 
REMARK    4  A    between atoms: N_7  and  N_3 
REMARK    5  A    between atoms: O_19  and  C_4 
REMARK    6  A    between atoms: O_18  and  C_5 
REMARK    7  A    between atoms: C_13  and  C_14 
ROOT
ATOM      1  N   UNL d   1      -0.900   1.798  -3.383  0.00  0.00    -0.302 N 
ATOM      2  HN  UNL d   1      -1.570   2.251  -4.005  1.00  0.00     0.186 HD
ATOM      3  C   UNL d   1       0.278   2.291  -3.175  0.00  0.00     0.119 C 
ENDROOT
BRANCH   1   4
ATOM      4  N   UNL d   1      -1.211   0.594  -2.700  0.00  0.00    -0.223 N 
ATOM      5  H   UNL d   1      -0.553   0.061  -2.132  0.00  0.00     0.200 HD
BRANCH   4   6
ATOM      6  S   UNL d   1      -2.764  -0.083  -2.833  0.00  0.00     0.276 S 
ATOM      7  O   UNL d   1      -3.745   0.914  -2.479  0.00  0.00    -0.199 OA
ATOM      8  O   UNL d   1      -2.702  -1.352  -2.132  0.00  0.00    -0.199 OA
BRANCH   6   9
ATOM      9  C   UNL d   1      -2.911  -0.432  -4.571  0.00  0.00     0.081 A 
ATOM     10  C   UNL d   1      -2.470  -1.657  -5.072  0.00  0.00     0.026 A 
ATOM     11  C   UNL d   1      -2.696  -1.975  -6.414  0.00  0.00     0.008 A 
ATOM     12  C   UNL d   1      -3.374  -1.082  -7.256  0.00  0.00    -0.062 A 
ATOM     13  C   UNL d   1      -3.805   0.148  -6.742  0.00  0.00     0.008 A 
ATOM     14  C   UNL d   1      -3.639  -1.458  -8.685  0.00  0.00     0.048 C 
ATOM     15  C   UNL d   1      -3.579   0.474  -5.401  0.00  0.00     0.026 A 
ENDBRANCH   6   9
ENDBRANCH   4   6
ENDBRANCH   1   4
BRANCH   3  16
ATOM     16  C   UNL d   1       0.684   3.528  -3.870  0.00  0.00    -0.014 A 
ATOM     17  C   UNL d   1      -0.218   4.155  -4.726  0.00  0.00     0.052 A 
ATOM     18  C   UNL d   1       0.128   5.324  -5.418  0.00  0.00     0.105 A 
ATOM     19  C   UNL d   1       1.424   5.868  -5.268  0.00  0.00     0.135 A 
ATOM     20  C   UNL d   1       2.335   5.206  -4.406  0.00  0.00     0.105 A 
ATOM     21  C   UNL d   1       1.954   4.056  -3.698  0.00  0.00     0.052 A 
BRANCH  18  22
ATOM     22  O   UNL d   1      -0.776   5.890  -6.286  0.00  0.00    -0.353 OA
ATOM     23  C   UNL d   1      -2.144   5.823  -5.869  0.00  0.00     0.210 C 
ENDBRANCH  18  22
BRANCH  19  24
ATOM     24  O   UNL d   1       1.899   7.012  -5.853  0.00  0.00    -0.351 OA
ATOM     25  C   UNL d   1       1.023   7.892  -6.542  0.00  0.00     0.210 C 
ENDBRANCH  19  24
BRANCH  20  26
ATOM     26  O   UNL d   1       3.609   5.607  -4.080  0.00  0.00    -0.353 OA
ATOM     27  C   UNL d   1       4.411   6.185  -5.102  0.00  0.00     0.210 C 
ENDBRANCH  20  26
ENDBRANCH   3  16
TORSDOF 7
