REMARK  2 active torsions:
REMARK  status: ('A' for Active; 'I' for Inactive)
REMARK    1  A    between atoms: C_3  and  C_1 
REMARK       I    between atoms: N_5  and  C_3 
REMARK    2  A    between atoms: C_8  and  C_4 
ROOT
ATOM      1  C   UNL d   1       0.070   1.271  -0.043  0.00  0.00     0.073 C 
ATOM      2  S   UNL d   1      -0.969  -0.034  -0.391  0.00  0.00    -0.088 SA
ATOM      3  C   UNL d   1       0.223  -1.228  -0.064  0.00  0.00    -0.009 C 
ATOM      4  C   UNL d   1       1.363   0.807   0.128  0.00  0.00     0.025 C 
ATOM      5  C   UNL d   1       1.450  -0.618   0.135  0.00  0.00     0.017 C 
ENDROOT
BRANCH   1   6
ATOM      6  C   UNL d   1      -0.327   2.676  -0.109  0.00  0.00     0.260 C 
ATOM      7  N   UNL d   1      -1.609   3.088   0.258  0.00  0.00    -0.347 N 
ATOM      8  C   UNL d   1      -2.654   2.399   0.995  0.00  0.00     0.126 C 
ATOM      9  C   UNL d   1      -1.968   4.492   0.102  0.00  0.00     0.126 C 
ATOM     10  C   UNL d   1      -3.909   3.145   0.579  0.00  0.00     0.021 C 
ATOM     11  C   UNL d   1      -3.437   4.591   0.514  0.00  0.00     0.021 C 
ATOM     12  O   UNL d   1       0.485   3.535  -0.478  0.00  0.00    -0.267 OA
ENDBRANCH   1   6
BRANCH   3  13
ATOM     13  C   UNL d   1      -0.147  -2.715  -0.048  0.00  0.00    -0.018 C 
ATOM     14  C   UNL d   1      -0.877  -3.119  -1.347  0.00  0.00     0.020 C 
ATOM     15  C   UNL d   1       1.108  -3.604   0.078  0.00  0.00     0.020 C 
ATOM     16  C   UNL d   1      -1.057  -3.015   1.161  0.00  0.00     0.020 C 
ENDBRANCH   3  13
TORSDOF 2
