REMARK  3 active torsions:
REMARK  status: ('A' for Active; 'I' for Inactive)
REMARK       I    between atoms: N_2  and  C_1 
REMARK    1  A    between atoms: C_5  and  C_1 
REMARK    2  A    between atoms: C_3  and  N_2 
REMARK    3  A    between atoms: N_16  and  C_4 
ROOT
ATOM      1  C   UNL d   1       1.044   0.011   0.167  0.00  0.00     0.256 C 
ATOM      2  N   UNL d   1       0.449  -0.428  -1.003  0.00  0.00    -0.321 N 
ATOM      3  O   UNL d   1       2.218  -0.130   0.479  0.00  0.00    -0.267 OA
ATOM      4  H   UNL d   1      -0.400   0.045  -1.301  0.00  0.00     0.169 HD
ENDROOT
BRANCH   1   5
ATOM      5  C   UNL d   1       0.164   0.792   1.061  0.00  0.00     0.035 A 
ATOM      6  C   UNL d   1      -1.093   0.304   1.421  0.00  0.00     0.043 A 
ATOM      7  C   UNL d   1      -1.875   1.028   2.323  0.00  0.00     0.057 A 
ATOM      8 CL   UNL d   1      -3.419   0.378   2.757  0.00  0.00    -0.082 Cl
ATOM      9  C   UNL d   1      -1.415   2.230   2.898  0.00  0.00     0.050 A 
ATOM     10  C   UNL d   1      -0.165   2.719   2.474  0.00  0.00     0.057 A 
ATOM     11  C   UNL d   1       0.634   1.997   1.587  0.00  0.00     0.043 A 
ATOM     12 CL   UNL d   1       0.443   4.225   3.075  0.00  0.00    -0.082 Cl
BRANCH   9  13
ATOM     13  N   UNL d   1      -2.270   3.020   3.699  0.00  0.00    -0.300 NA
ATOM     14  H   UNL d   1      -1.768   3.682   4.291  0.00  0.00     0.124 HD
ATOM     15  H   UNL d   1      -2.969   2.478   4.201  0.00  0.00     0.124 HD
ENDBRANCH   9  13
ENDBRANCH   1   5
BRANCH   2  16
ATOM     16  C   UNL d   1       1.106  -1.201  -1.989  0.00  0.00     0.058 A 
ATOM     17  C   UNL d   1       2.122  -2.106  -1.660  0.00  0.00     0.057 A 
ATOM     18  C   UNL d   1       2.762  -2.850  -2.656  0.00  0.00     0.058 A 
ATOM     19 CL   UNL d   1       3.978  -3.975  -2.165  0.00  0.00    -0.082 Cl
ATOM     20  C   UNL d   1       2.401  -2.678  -3.997  0.00  0.00     0.057 A 
ATOM     21  C   UNL d   1       1.378  -1.790  -4.335  0.00  0.00     0.051 A 
ATOM     22 CL   UNL d   1       3.179  -3.531  -5.282  0.00  0.00    -0.082 Cl
ATOM     23  C   UNL d   1       0.719  -1.074  -3.334  0.00  0.00     0.062 A 
ATOM     24 CL   UNL d   1      -0.539   0.018  -3.797  0.00  0.00    -0.082 Cl
ENDBRANCH   2  16
TORSDOF 3
