REMARK  7 active torsions:
REMARK  status: ('A' for Active; 'I' for Inactive)
REMARK    1  A    between atoms: N_7  and  C_1 
REMARK       I    between atoms: C_2  and  N_6 
REMARK    2  A    between atoms: C_3  and  C_2 
REMARK    3  A    between atoms: O_15  and  C_4 
REMARK    4  A    between atoms: C_5  and  C_8 
REMARK    5  A    between atoms: N_6  and  C_11 
REMARK    6  A    between atoms: N_12  and  N_7 
REMARK       I    between atoms: C_8  and  N_12 
REMARK    7  A    between atoms: C_23  and  O_15 
ROOT
ATOM      1  C   UNL d   1       1.779   5.511   0.474  0.00  0.00     0.060 C 
ATOM      2  C   UNL d   1       2.250   5.077  -0.780  0.00  0.00     0.050 C 
ATOM      3  C   UNL d   1       2.537   6.523   1.127  0.00  0.00     0.019 C 
ATOM      4  C   UNL d   1       3.514   5.465  -1.235  0.00  0.00     0.030 C 
ATOM      5  C   UNL d   1       3.781   6.914   0.658  0.00  0.00     0.001 C 
ATOM      6  C   UNL d   1       4.303   6.359  -0.506  0.00  0.00     0.002 C 
ENDROOT
BRANCH   2   7
ATOM      7  N   UNL d   1       1.539   4.283  -1.715  0.00  0.00    -0.322 N 
ATOM      8  C   UNL d   1       1.116   4.898  -2.913  0.00  0.00     0.260 C 
ATOM      9  O   UNL d   1       1.241   6.079  -3.159  0.00  0.00    -0.267 OA
ATOM     10  H   UNL d   1       0.990   3.494  -1.363  0.00  0.00     0.169 HD
BRANCH   8  11
ATOM     11  C   UNL d   1       0.612   3.981  -3.977  0.00  0.00     0.083 A 
ATOM     12  C   UNL d   1      -0.401   4.370  -4.862  0.00  0.00     0.163 A 
ATOM     13  N   UNL d   1      -0.727   3.647  -5.964  0.00  0.00    -0.346 N 
ATOM     14  C   UNL d   1      -0.044   2.514  -6.197  0.00  0.00     0.090 A 
ATOM     15  HN  UNL d   1      -1.467   3.955  -6.595  1.00  0.00     0.167 HD
ATOM     16  C   UNL d   1       0.958   2.033  -5.362  0.00  0.00     0.018 A 
ATOM     17  C   UNL d   1       1.290   2.787  -4.238  0.00  0.00     0.023 A 
BRANCH  12  18
ATOM     18  O   UNL d   1      -1.031   5.582  -4.637  0.00  0.00    -0.293 OA
BRANCH  18  19
ATOM     19  C   UNL d   1      -2.322   5.785  -5.084  0.00  0.00     0.077 A 
ATOM     20  C   UNL d   1      -3.306   4.801  -5.179  0.00  0.00     0.037 A 
ATOM     21  C   UNL d   1      -4.616   5.149  -5.537  0.00  0.00     0.003 A 
ATOM     22  C   UNL d   1      -4.949   6.479  -5.771  0.00  0.00     0.000 A 
ATOM     23  C   UNL d   1      -3.973   7.468  -5.669  0.00  0.00     0.003 A 
ATOM     24  C   UNL d   1      -2.666   7.120  -5.320  0.00  0.00     0.037 A 
ENDBRANCH  18  19
ENDBRANCH  12  18
ENDBRANCH   8  11
ENDBRANCH   2   7
BRANCH   1  25
ATOM     25  C   UNL d   1       0.500   5.039   1.091  0.00  0.00     0.268 C 
ATOM     26  N   UNL d   1       0.278   5.107   2.463  0.00  0.00    -0.282 N 
ATOM     27  H   UNL d   1      -0.649   4.837   2.798  0.00  0.00     0.184 HD
ATOM     28  O   UNL d   1      -0.371   4.554   0.368  0.00  0.00    -0.266 OA
BRANCH  26  29
ATOM     29  N   UNL d   1       1.272   5.385   3.422  0.00  0.00    -0.200 NA
ATOM     30  H   UNL d   1       2.155   4.921   3.201  0.00  0.00     0.153 HD
BRANCH  29  31
ATOM     31  C   UNL d   1       0.969   5.145   4.800  0.00  0.00     0.071 A 
ATOM     32  C   UNL d   1       2.043   4.828   5.667  0.00  0.00     0.060 A 
ATOM     33  C   UNL d   1       1.878   4.620   7.043  0.00  0.00     0.049 A 
ATOM     34 CL   UNL d   1       3.655   4.658   5.029  0.00  0.00    -0.082 Cl
ATOM     35  C   UNL d   1       0.610   4.774   7.588  0.00  0.00     0.037 A 
ATOM     36  C   UNL d   1      -0.463   5.140   6.800  0.00  0.00     0.049 A 
ATOM     37 CL   UNL d   1       0.381   4.497   9.280  0.00  0.00    -0.084 Cl
ATOM     38  C   UNL d   1      -0.285   5.361   5.420  0.00  0.00     0.060 A 
ATOM     39 CL   UNL d   1      -1.688   5.921   4.557  0.00  0.00    -0.082 Cl
ENDBRANCH  29  31
ENDBRANCH  26  29
ENDBRANCH   1  25
TORSDOF 7
