REMARK  9 active torsions:
REMARK  status: ('A' for Active; 'I' for Inactive)
REMARK    1  A    between atoms: O_13  and  C_5 
REMARK    2  A    between atoms: C_6  and  N_11 
REMARK    3  A    between atoms: N_8  and  C_6 
REMARK    4  A    between atoms: C_20  and  C_7 
REMARK    5  A    between atoms: C_12  and  N_8 
REMARK    6  A    between atoms: N_11  and  C_21 
REMARK    7  A    between atoms: O_19  and  C_14 
REMARK    8  A    between atoms: C_23  and  C_20 
REMARK    9  A    between atoms: C_21  and  C_23 
ROOT
ATOM      1  N   UNL d   1       2.450   4.668  -2.709  0.00  0.00    -0.367 N 
ATOM      2  H   UNL d   1       3.308   4.541  -2.189  0.00  0.00     0.161 HD
ENDROOT
BRANCH   1   3
ATOM      3  C   UNL d   1       2.463   5.591  -3.728  0.00  0.00     0.172 C 
ATOM      4  S   UNL d   1       1.172   5.958  -4.726  0.00  0.00    -0.041 SA
BRANCH   3   5
ATOM      5  N   UNL d   1       3.675   6.144  -4.038  0.00  0.00    -0.333 N 
ATOM      6  H   UNL d   1       3.743   6.451  -5.002  0.00  0.00     0.168 HD
BRANCH   5   7
ATOM      7  C   UNL d   1       4.829   6.270  -3.251  0.00  0.00     0.034 A 
ATOM      8  C   UNL d   1       6.071   6.188  -3.883  0.00  0.00     0.032 A 
ATOM      9  C   UNL d   1       7.245   6.253  -3.128  0.00  0.00     0.039 A 
ATOM     10  C   UNL d   1       7.176   6.450  -1.746  0.00  0.00     0.068 A 
ATOM     11  C   UNL d   1       5.939   6.643  -1.137  0.00  0.00     0.039 A 
ATOM     12  C   UNL d   1       4.763   6.536  -1.882  0.00  0.00     0.032 A 
BRANCH  10  13
ATOM     13  O   UNL d   1       8.268   6.519  -0.927  0.00  0.00    -0.356 OA
ATOM     14  C   UNL d   1       9.273   5.551  -1.221  0.00  0.00     0.210 C 
ENDBRANCH  10  13
ENDBRANCH   5   7
ENDBRANCH   3   5
ENDBRANCH   1   3
BRANCH   1  15
ATOM     15  C   UNL d   1       1.338   3.782  -2.401  0.00  0.00     0.122 C 
BRANCH  15  16
ATOM     16  C   UNL d   1       1.743   2.548  -1.590  0.00  0.00     0.021 C 
BRANCH  16  17
ATOM     17  C   UNL d   1       0.551   1.583  -1.506  0.00  0.00     0.020 C 
BRANCH  17  18
ATOM     18  C   UNL d   1       0.817   0.328  -0.689  0.00  0.00     0.102 A 
ATOM     19  C   UNL d   1      -0.360  -0.572  -0.684  0.00  0.00     0.139 A 
ATOM     20  N   UNL d   1      -0.922  -0.751   0.462  0.00  0.00    -0.284 N 
ATOM     21  N   UNL d   1      -0.171   0.004   1.415  0.00  0.00    -0.313 N 
ATOM     22  HN  UNL d   1      -1.746  -1.322   0.653  1.00  0.00     0.188 HD
ATOM     23  C   UNL d   1       0.796   0.593   0.787  0.00  0.00     0.093 A 
ATOM     24  HN  UNL d   1      -0.363   0.068   2.414  1.00  0.00     0.185 HD
BRANCH  19  25
ATOM     25  O   UNL d   1      -0.801  -1.140  -1.798  0.00  0.00    -0.348 OA
ATOM     26  H   UNL d   1      -1.583  -1.672  -1.573  0.00  0.00     0.219 HD
ENDBRANCH  19  25
ENDBRANCH  17  18
ENDBRANCH  16  17
ENDBRANCH  15  16
ENDBRANCH   1  15
TORSDOF 9
