REMARK  6 active torsions:
REMARK  status: ('A' for Active; 'I' for Inactive)
REMARK    1  A    between atoms: C_4  and  C_1 
REMARK    2  A    between atoms: N_2  and  C_3 
REMARK       I    between atoms: N_5  and  C_4 
REMARK    3  A    between atoms: N_10  and  N_5 
REMARK       I    between atoms: C_6  and  N_10 
REMARK    4  A    between atoms: C_7  and  C_6 
REMARK    5  A    between atoms: C_8  and  C_9 
REMARK    6  A    between atoms: O_18  and  C_8 
ROOT
ATOM      1  C   UNL d   1       2.807  -0.250   0.066  0.00  0.00     0.272 C 
ATOM      2  N   UNL d   1       3.533   0.667  -0.683  0.00  0.00    -0.263 N 
ATOM      3  O   UNL d   1       3.353  -1.053   0.816  0.00  0.00    -0.266 OA
ATOM      4  H   UNL d   1       3.109   1.518  -1.031  0.00  0.00     0.190 HD
ENDROOT
BRANCH   1   5
ATOM      5  C   UNL d   1       1.316  -0.189  -0.063  0.00  0.00     0.060 A 
ATOM      6  C   UNL d   1       0.485  -1.329   0.013  0.00  0.00     0.054 A 
ATOM      7  C   UNL d   1      -0.916  -1.157   0.054  0.00  0.00     0.031 A 
ATOM      8  C   UNL d   1      -1.489   0.112  -0.017  0.00  0.00     0.002 A 
ATOM      9  C   UNL d   1      -0.676   1.232  -0.113  0.00  0.00     0.001 A 
ATOM     10  C   UNL d   1       0.714   1.086  -0.119  0.00  0.00     0.019 A 
BRANCH   6  11
ATOM     11  N   UNL d   1       0.969  -2.673  -0.011  0.00  0.00    -0.332 N 
ATOM     12  C   UNL d   1       2.066  -3.160  -0.693  0.00  0.00     0.096 A 
ATOM     13  C   UNL d   1       2.156  -4.522  -0.502  0.00  0.00     0.019 A 
ATOM     14  C   UNL d   1       1.060  -4.906   0.295  0.00  0.00     0.019 A 
ATOM     15  C   UNL d   1       0.339  -3.765   0.566  0.00  0.00     0.096 A 
ENDBRANCH   6  11
ENDBRANCH   1   5
BRANCH   2  16
ATOM     16  N   UNL d   1       4.931   0.647  -0.547  0.00  0.00    -0.264 N 
ATOM     17  C   UNL d   1       5.814   1.018  -1.531  0.00  0.00     0.260 C 
ATOM     18  O   UNL d   1       7.022   0.833  -1.415  0.00  0.00    -0.267 OA
ATOM     19  H   UNL d   1       5.294   0.054   0.201  0.00  0.00     0.190 HD
BRANCH  17  20
ATOM     20  C   UNL d   1       5.255   1.686  -2.732  0.00  0.00     0.082 C 
ATOM     21  C   UNL d   1       6.081   2.216  -3.643  0.00  0.00     0.086 C 
BRANCH  21  22
ATOM     22  C   UNL d   1       5.489   2.876  -4.813  0.00  0.00     0.165 C 
ATOM     23  O   UNL d   1       4.288   3.017  -4.989  0.00  0.00    -0.647 OA
BRANCH  22  24
ATOM     24  O   UNL d   1       6.416   3.322  -5.682  0.00  0.00    -0.773 OA
ATOM     25  H   UNL d   1       7.343   3.137  -5.438  0.00  0.00     0.167 HD
ENDBRANCH  22  24
ENDBRANCH  21  22
ENDBRANCH  17  20
ENDBRANCH   2  16
TORSDOF 6
