REMARK  8 active torsions:
REMARK  status: ('A' for Active; 'I' for Inactive)
REMARK    1  A    between atoms: C_9  and  C_1 
REMARK    2  A    between atoms: C_8  and  C_2 
REMARK    3  A    between atoms: C_7  and  C_3 
REMARK    4  A    between atoms: O_18  and  C_8 
REMARK    5  A    between atoms: O_19  and  C_9 
REMARK    6  A    between atoms: O_22  and  C_15 
REMARK    7  A    between atoms: C_24  and  O_18 
REMARK    8  A    between atoms: C_23  and  O_19 
ROOT
ATOM      1  C   UNL d   1      -1.286  -1.037   0.088  0.00  0.00     0.052 C 
ATOM      2  C   UNL d   1       1.285  -1.041   0.128  0.00  0.00     0.052 C 
ATOM      3  C   UNL d   1       0.007  -1.874  -0.068  0.00  0.00     0.102 C 
ATOM      4  C   UNL d   1      -1.229   0.315  -0.005  0.00  0.00     0.018 C 
ATOM      5  C   UNL d   1       1.226   0.310   0.033  0.00  0.00     0.018 C 
ATOM      6  N   UNL d   1       0.005   0.932  -0.167  0.00  0.00    -0.362 N 
ATOM      7  C   UNL d   1      -2.373   1.298   0.076  0.00  0.00     0.069 C 
ATOM      8  C   UNL d   1       2.416   1.232   0.122  0.00  0.00     0.069 C 
ATOM      9  H   UNL d   1       0.004   1.950  -0.166  0.00  0.00     0.165 HD
ENDROOT
BRANCH   3  10
ATOM     10  C   UNL d   1       0.015  -2.561  -1.448  0.00  0.00    -0.023 A 
ATOM     11  C   UNL d   1      -0.052  -3.955  -1.630  0.00  0.00     0.044 A 
ATOM     12  C   UNL d   1      -0.060  -4.506  -2.918  0.00  0.00     0.060 A 
ATOM     13 CL   UNL d   1      -0.120  -5.072  -0.314  0.00  0.00    -0.084 Cl
ATOM     14  C   UNL d   1      -0.000  -3.680  -4.034  0.00  0.00     0.067 A 
ATOM     15  C   UNL d   1       0.065  -2.304  -3.891  0.00  0.00     0.037 A 
ATOM     16  C   UNL d   1       0.070  -1.753  -2.609  0.00  0.00     0.012 A 
BRANCH  14  17
ATOM     17  O   UNL d   1      -0.006  -4.265  -5.265  0.00  0.00    -0.361 OA
ATOM     18  H   UNL d   1       0.042  -3.570  -5.942  0.00  0.00     0.217 HD
ENDBRANCH  14  17
ENDBRANCH   3  10
BRANCH   2  19
ATOM     19  C   UNL d   1       2.587  -1.738   0.347  0.00  0.00     0.292 C 
ATOM     20  O   UNL d   1       3.676  -1.224   0.150  0.00  0.00    -0.259 OA
BRANCH  19  21
ATOM     21  O   UNL d   1       2.407  -3.027   0.732  0.00  0.00    -0.318 OA
BRANCH  21  22
ATOM     22  C   UNL d   1       3.542  -3.882   0.522  0.00  0.00     0.174 C 
ATOM     23  C   UNL d   1       4.189  -4.323   1.822  0.00  0.00     0.034 C 
ENDBRANCH  21  22
ENDBRANCH  19  21
ENDBRANCH   2  19
BRANCH   1  24
ATOM     24  C   UNL d   1      -2.550  -1.773   0.401  0.00  0.00     0.292 C 
ATOM     25  O   UNL d   1      -3.678  -1.332   0.318  0.00  0.00    -0.259 OA
BRANCH  24  26
ATOM     26  O   UNL d   1      -2.225  -2.985   0.918  0.00  0.00    -0.318 OA
BRANCH  26  27
ATOM     27  C   UNL d   1      -3.218  -3.635   1.721  0.00  0.00     0.174 C 
ATOM     28  C   UNL d   1      -3.037  -3.144   3.146  0.00  0.00     0.034 C 
ENDBRANCH  26  27
ENDBRANCH  24  26
ENDBRANCH   1  24
TORSDOF 8
