REMARK  1 active torsions:
REMARK  status: ('A' for Active; 'I' for Inactive)
REMARK       I    between atoms: N_2  and  C_1 
REMARK    1  A    between atoms: C_4  and  C_1 
REMARK       I    between atoms: C_3  and  N_2 
REMARK       I    between atoms: N_5  and  C_3 
ROOT
ATOM      1  C   UNL d   1      -0.851  -0.890   0.291  0.00  0.00     0.265 C 
ATOM      2  N   UNL d   1       0.470  -1.143   0.641  0.00  0.00    -0.275 N 
ATOM      3  C   UNL d   1       1.079  -2.367   0.492  0.00  0.00     0.325 C 
ATOM      4  N   UNL d   1       2.461  -2.408   0.673  0.00  0.00    -0.332 N 
ATOM      5  O   UNL d   1      -1.719  -1.744   0.154  0.00  0.00    -0.267 OA
ATOM      6  O   UNL d   1       0.456  -3.394   0.223  0.00  0.00    -0.247 OA
ATOM      7  S   UNL d   1       5.319  -3.025   1.960  0.00  0.00    -0.166 SA
ATOM      8  C   UNL d   1       3.375  -1.292   0.960  0.00  0.00     0.137 C 
ATOM      9  C   UNL d   1       3.134  -3.688   0.378  0.00  0.00     0.137 C 
ATOM     10  C   UNL d   1       4.272  -1.551   2.174  0.00  0.00     0.093 C 
ATOM     11  C   UNL d   1       3.995  -4.201   1.531  0.00  0.00     0.093 C 
ATOM     12  H   UNL d   1       1.043  -0.347   0.840  0.00  0.00     0.173 HD
ENDROOT
BRANCH   1  13
ATOM     13  C   UNL d   1      -1.244   0.535   0.141  0.00  0.00     0.109 A 
ATOM     14  C   UNL d   1      -2.353   0.866  -0.645  0.00  0.00     0.135 A 
ATOM     15  F   UNL d   1      -3.034  -0.068  -1.322  0.00  0.00    -0.205 F 
ATOM     16  C   UNL d   1      -2.772   2.191  -0.785  0.00  0.00     0.043 A 
ATOM     17  C   UNL d   1      -2.086   3.214  -0.135  0.00  0.00     0.006 A 
ATOM     18  C   UNL d   1      -0.972   2.903   0.644  0.00  0.00     0.043 A 
ATOM     19  C   UNL d   1      -0.560   1.575   0.774  0.00  0.00     0.135 A 
ATOM     20  F   UNL d   1       0.525   1.321   1.523  0.00  0.00    -0.205 F 
ENDBRANCH   1  13
TORSDOF 1
