REMARK  1 active torsions:
REMARK  status: ('A' for Active; 'I' for Inactive)
REMARK    1  A    between atoms: C_6  and  N_1 
ROOT
ATOM      1  N   UNL d   1      -2.316  -0.026  -0.218  0.00  0.00    -0.249 N 
ATOM      2  C   UNL d   1      -1.546   1.110  -0.155  0.00  0.00     0.236 C 
ATOM      3  C   UNL d   1      -1.539  -1.142  -0.016  0.00  0.00     0.236 C 
ATOM      4  C   UNL d   1      -0.286   0.785   0.620  0.00  0.00     0.096 C 
ATOM      5  C   UNL d   1      -0.265  -0.732   0.686  0.00  0.00     0.096 C 
ATOM      6  C   UNL d   1       0.948   1.524   0.119  0.00  0.00     0.049 C 
ATOM      7  C   UNL d   1       0.955  -1.476   0.150  0.00  0.00     0.049 C 
ATOM      8  C   UNL d   1       2.057   0.694  -0.464  0.00  0.00    -0.081 C 
ATOM      9  C   UNL d   1       2.059  -0.653  -0.451  0.00  0.00    -0.081 C 
ATOM     10  O   UNL d   1      -1.768  -2.289  -0.375  0.00  0.00    -0.272 OA
ATOM     11  O   UNL d   1      -1.816   2.237  -0.548  0.00  0.00    -0.272 OA
ATOM     12  C   UNL d   1       3.208   1.489  -1.032  0.00  0.00     0.043 C 
ATOM     13  C   UNL d   1       3.204  -1.459  -1.015  0.00  0.00     0.043 C 
ENDROOT
BRANCH   1  14
ATOM     14  C   UNL d   1      -3.705  -0.072  -0.541  0.00  0.00     0.084 A 
ATOM     15  C   UNL d   1      -4.514  -1.129  -0.074  0.00  0.00     0.146 A 
ATOM     16  C   UNL d   1      -5.889  -1.163  -0.286  0.00  0.00     0.086 A 
ATOM     17  F   UNL d   1      -4.006  -2.086   0.717  0.00  0.00    -0.204 F 
ATOM     18  C   UNL d   1      -6.492  -0.117  -0.962  0.00  0.00     0.119 A 
ATOM     19  C   UNL d   1      -5.738   0.949  -1.431  0.00  0.00     0.045 A 
ATOM     20  F   UNL d   1      -7.819  -0.118  -1.135  0.00  0.00    -0.206 F 
ATOM     21  C   UNL d   1      -4.351   0.974  -1.222  0.00  0.00     0.036 A 
ENDBRANCH   1  14
TORSDOF 1
