REMARK  10 active torsions:
REMARK  status: ('A' for Active; 'I' for Inactive)
REMARK    1  A    between atoms: C_4  and  C_1 
REMARK    2  A    between atoms: N_6  and  C_2 
REMARK    3  A    between atoms: O_14  and  C_4 
REMARK       I    between atoms: C_9  and  N_6 
REMARK    4  A    between atoms: O_16  and  C_7 
REMARK    5  A    between atoms: O_17  and  C_8 
REMARK    6  A    between atoms: C_18  and  C_9 
REMARK    7  A    between atoms: C_10  and  C_19 
REMARK    8  A    between atoms: O_15  and  C_10 
REMARK    9  A    between atoms: C_20  and  C_18 
REMARK   10  A    between atoms: C_19  and  C_20 
ROOT
ATOM      1  C   UNL d   1       1.467  -0.188   0.106  0.00  0.00     0.069 A 
ATOM      2  C   UNL d   1       0.663  -1.336   0.128  0.00  0.00     0.053 A 
ATOM      3  C   UNL d   1       0.836   1.071   0.092  0.00  0.00     0.059 A 
ATOM      4  C   UNL d   1      -0.741  -1.201   0.091  0.00  0.00     0.070 A 
ATOM      5  C   UNL d   1      -0.556   1.201   0.087  0.00  0.00     0.102 A 
ATOM      6  C   UNL d   1      -1.363   0.056   0.053  0.00  0.00     0.103 A 
ENDROOT
BRANCH   2   7
ATOM      7  N   UNL d   1       1.237  -2.630   0.145  0.00  0.00    -0.326 N 
ATOM      8  C   UNL d   1       0.727  -3.673   0.890  0.00  0.00     0.222 C 
ATOM      9  O   UNL d   1      -0.218  -3.589   1.668  0.00  0.00    -0.273 OA
ATOM     10  H   UNL d   1       2.226  -2.689  -0.091  0.00  0.00     0.169 HD
BRANCH   8  11
ATOM     11  C   UNL d   1       1.493  -4.973   0.690  0.00  0.00     0.103 C 
BRANCH  11  12
ATOM     12  C   UNL d   1       0.722  -6.193   1.207  0.00  0.00     0.019 C 
BRANCH  12  13
ATOM     13  C   UNL d   1      -0.650  -6.413   0.557  0.00  0.00     0.110 C 
BRANCH  13  14
ATOM     14  C   UNL d   1      -0.582  -6.720  -0.920  0.00  0.00     0.139 C 
ATOM     15  O   UNL d   1       0.442  -6.832  -1.574  0.00  0.00    -0.650 OA
BRANCH  14  16
ATOM     16  O   UNL d   1      -1.810  -6.861  -1.470  0.00  0.00    -0.776 OA
ATOM     17  H   UNL d   1      -2.540  -6.751  -0.832  0.00  0.00     0.167 HD
ENDBRANCH  14  16
ENDBRANCH  13  14
ENDBRANCH  12  13
ENDBRANCH  11  12
ENDBRANCH   8  11
ENDBRANCH   2   7
BRANCH   1  18
ATOM     18  C   UNL d   1       2.955  -0.153   0.205  0.00  0.00     0.295 C 
ATOM     19  O   UNL d   1       3.590   0.890   0.264  0.00  0.00    -0.259 OA
BRANCH  18  20
ATOM     20  O   UNL d   1       3.507  -1.394   0.267  0.00  0.00    -0.322 OA
ATOM     21  C   UNL d   1       4.917  -1.386   0.519  0.00  0.00     0.213 C 
ENDBRANCH  18  20
ENDBRANCH   1  18
BRANCH   6  22
ATOM     22  O   UNL d   1      -2.714   0.240  -0.044  0.00  0.00    -0.353 OA
ATOM     23  C   UNL d   1      -3.550  -0.899  -0.198  0.00  0.00     0.210 C 
ENDBRANCH   6  22
BRANCH   5  24
ATOM     24  O   UNL d   1      -0.974   2.506   0.063  0.00  0.00    -0.353 OA
ATOM     25  C   UNL d   1      -2.197   2.799   0.728  0.00  0.00     0.210 C 
ENDBRANCH   5  24
TORSDOF 10
