REMARK  1 active torsions:
REMARK  status: ('A' for Active; 'I' for Inactive)
REMARK    1  A    between atoms: O_12  and  C_3 
ROOT
ATOM      1  C   UNL d   1       2.434  -0.769   0.001  0.00  0.00     0.040 A 
ATOM      2  C   UNL d   1      -0.028  -0.750  -0.001  0.00  0.00     0.028 A 
ATOM      3  C   UNL d   1       1.276  -1.452   0.001  0.00  0.00     0.089 A 
ATOM      4  N   UNL d   1       1.209   1.334  -0.004  0.00  0.00    -0.321 N 
ATOM      5  C   UNL d   1       2.428   0.721  -0.001  0.00  0.00     0.254 A 
ATOM      6  C   UNL d   1      -0.021   0.656  -0.003  0.00  0.00     0.070 A 
ATOM      7  C   UNL d   1      -1.224   1.383  -0.003  0.00  0.00     0.063 A 
ATOM      8  C   UNL d   1      -2.448   0.720  -0.002  0.00  0.00     0.050 A 
ATOM      9  C   UNL d   1      -1.271  -1.402   0.000  0.00  0.00     0.040 A 
ATOM     10  O   UNL d   1       3.467   1.375   0.000  0.00  0.00    -0.268 OA
ATOM     11  C   UNL d   1      -2.462  -0.669   0.000  0.00  0.00     0.036 A 
ATOM     12 CL   UNL d   1      -1.228   3.111  -0.003  0.00  0.00    -0.082 Cl
ATOM     13  C   UNL d   1       3.787  -1.414   0.002  0.00  0.00     0.057 C 
ATOM     14 CL   UNL d   1      -3.967  -1.506   0.002  0.00  0.00    -0.084 Cl
ATOM     15  H   UNL d   1       1.220   2.348  -0.005  0.00  0.00     0.169 HD
ENDROOT
BRANCH   3  16
ATOM     16  O   UNL d   1       1.307  -2.835   0.004  0.00  0.00    -0.359 OA
ATOM     17  H   UNL d   1       0.419  -3.213  -0.004  0.00  0.00     0.217 HD
ENDBRANCH   3  16
TORSDOF 1
