REMARK  4 active torsions:
REMARK  status: ('A' for Active; 'I' for Inactive)
REMARK    1  A    between atoms: C_2  and  C_1 
REMARK       I    between atoms: C_3  and  N_9 
REMARK       I    between atoms: N_7  and  C_3 
REMARK    2  A    between atoms: C_4  and  N_7 
REMARK    3  A    between atoms: N_5  and  C_6 
REMARK    4  A    between atoms: N_9  and  C_8 
ROOT
ATOM      1  C   UNL d   1       3.116  -0.454   0.982  0.00  0.00     0.325 C 
ATOM      2  N   UNL d   1       2.143   0.382   0.535  0.00  0.00    -0.306 N 
ATOM      3  N   UNL d   1       2.813  -1.646   1.564  0.00  0.00    -0.308 N 
ATOM      4  O   UNL d   1       4.271  -0.059   0.806  0.00  0.00    -0.247 OA
ATOM      5  H   UNL d   1       2.640   1.148   0.091  0.00  0.00     0.170 HD
ATOM      6  H   UNL d   1       1.992  -1.617   2.139  0.00  0.00     0.170 HD
ENDROOT
BRANCH   3   7
ATOM      7  C   UNL d   1       3.824  -2.581   1.940  0.00  0.00     0.051 A 
ATOM      8  C   UNL d   1       3.823  -3.194   3.206  0.00  0.00     0.074 A 
ATOM      9  C   UNL d   1       4.738  -4.231   3.482  0.00  0.00     0.018 A 
ATOM     10  C   UNL d   1       5.698  -4.602   2.545  0.00  0.00     0.001 A 
ATOM     11  C   UNL d   1       5.758  -3.938   1.328  0.00  0.00     0.002 A 
ATOM     12  C   UNL d   1       4.824  -2.939   1.023  0.00  0.00     0.030 A 
BRANCH   8  13
ATOM     13  C   UNL d   1       2.946  -2.726   4.332  0.00  0.00     0.419 C 
ATOM     14  F   UNL d   1       2.730  -1.381   4.319  0.00  0.00    -0.166 F 
ATOM     15  F   UNL d   1       3.467  -2.985   5.567  0.00  0.00    -0.166 F 
ATOM     16  F   UNL d   1       1.726  -3.320   4.316  0.00  0.00    -0.166 F 
ENDBRANCH   8  13
ENDBRANCH   3   7
BRANCH   2  17
ATOM     17  C   UNL d   1       0.769   0.323   0.194  0.00  0.00     0.064 C 
ATOM     18  C   UNL d   1      -0.283  -0.446   0.717  0.00  0.00     0.065 C 
ATOM     19  C   UNL d   1      -1.531  -0.474   0.042  0.00  0.00     0.033 C 
ATOM     20  C   UNL d   1      -1.789   0.351  -1.050  0.00  0.00     0.009 C 
ATOM     21  C   UNL d   1      -0.808   1.224  -1.498  0.00  0.00    -0.060 C 
ATOM     22  C   UNL d   1       0.456   1.180  -0.892  0.00  0.00     0.038 C 
ATOM     23  C   UNL d   1      -1.112   2.188  -2.606  0.00  0.00     0.048 C 
BRANCH  18  24
ATOM     24  N   UNL d   1      -0.325  -0.961   2.042  0.00  0.00    -0.331 N 
ATOM     25  C   UNL d   1      -1.129  -1.994   2.496  0.00  0.00     0.097 A 
ATOM     26  C   UNL d   1      -1.088  -2.032   3.869  0.00  0.00     0.019 A 
ATOM     27  C   UNL d   1      -0.204  -1.015   4.284  0.00  0.00     0.019 A 
ATOM     28  C   UNL d   1       0.265  -0.389   3.150  0.00  0.00     0.097 A 
ENDBRANCH  18  24
ENDBRANCH   2  17
TORSDOF 4
