REMARK  4 active torsions:
REMARK  status: ('A' for Active; 'I' for Inactive)
REMARK    1  A    between atoms: C_9  and  N_1 
REMARK    2  A    between atoms: C_13  and  N_6 
REMARK    3  A    between atoms: C_10  and  C_8 
REMARK    4  A    between atoms: N_16  and  C_14 
ROOT
ATOM      1  N   UNL d   1      -1.714   0.004   0.773  0.00  0.00    -0.248 N 
ATOM      2  C   UNL d   1       0.013  -0.855  -0.513  0.00  0.00     0.260 C 
ATOM      3  C   UNL d   1       0.098   0.647  -0.575  0.00  0.00     0.149 C 
ATOM      4  C   UNL d   1      -1.276  -1.156   0.184  0.00  0.00     0.263 C 
ATOM      5  C   UNL d   1      -0.913   1.079   0.456  0.00  0.00     0.241 C 
ATOM      6  N   UNL d   1       1.815  -0.227   0.715  0.00  0.00    -0.247 N 
ATOM      7  O   UNL d   1       1.006  -1.330   0.405  0.00  0.00    -0.261 OA
ATOM      8  C   UNL d   1       1.510   0.939  -0.113  0.00  0.00     0.164 C 
ATOM      9  O   UNL d   1      -1.780  -2.269   0.260  0.00  0.00    -0.270 OA
ATOM     10  O   UNL d   1      -0.949   2.209   0.927  0.00  0.00    -0.272 OA
ENDROOT
BRANCH   8  11
ATOM     11  C   UNL d   1       2.497   1.042  -1.271  0.00  0.00    -0.032 A 
ATOM     12  C   UNL d   1       3.141  -0.082  -1.803  0.00  0.00     0.011 A 
ATOM     13  C   UNL d   1       4.057   0.036  -2.857  0.00  0.00     0.030 A 
ATOM     14  C   UNL d   1       4.377   1.272  -3.430  0.00  0.00     0.029 A 
ATOM     15  C   UNL d   1       3.711   2.390  -2.895  0.00  0.00     0.030 A 
ATOM     16  C   UNL d   1       2.792   2.283  -1.837  0.00  0.00     0.011 A 
BRANCH  14  17
ATOM     17  N   UNL d   1       5.245   1.402  -4.517  0.00  0.00    -0.390 N 
ATOM     18  C   UNL d   1       6.239   2.476  -4.476  0.00  0.00     0.149 C 
ATOM     19  C   UNL d   1       5.704   0.195  -5.205  0.00  0.00     0.149 C 
ENDBRANCH  14  17
ENDBRANCH   8  11
BRANCH   6  20
ATOM     20  C   UNL d   1       2.508  -0.151   1.924  0.00  0.00     0.058 A 
ATOM     21  C   UNL d   1       2.297  -1.114   2.921  0.00  0.00     0.031 A 
ATOM     22  C   UNL d   1       2.992  -1.075   4.134  0.00  0.00     0.002 A 
ATOM     23  C   UNL d   1       3.934  -0.079   4.361  0.00  0.00     0.000 A 
ATOM     24  C   UNL d   1       4.172   0.881   3.380  0.00  0.00     0.002 A 
ATOM     25  C   UNL d   1       3.462   0.844   2.175  0.00  0.00     0.031 A 
ENDBRANCH   6  20
BRANCH   1  26
ATOM     26  C   UNL d   1      -2.553  -0.006   1.912  0.00  0.00     0.067 A 
ATOM     27  C   UNL d   1      -3.674   0.825   2.039  0.00  0.00     0.061 A 
ATOM     28 CL   UNL d   1      -4.223   1.828   0.743  0.00  0.00    -0.082 Cl
ATOM     29  C   UNL d   1      -4.446   0.783   3.207  0.00  0.00     0.026 A 
ATOM     30  C   UNL d   1      -4.096  -0.069   4.257  0.00  0.00     0.002 A 
ATOM     31  C   UNL d   1      -2.983  -0.896   4.140  0.00  0.00     0.002 A 
ATOM     32  C   UNL d   1      -2.225  -0.875   2.970  0.00  0.00     0.032 A 
ENDBRANCH   1  26
TORSDOF 4
