REMARK  4 active torsions:
REMARK  status: ('A' for Active; 'I' for Inactive)
REMARK    1  A    between atoms: C_3  and  S_1 
REMARK    2  A    between atoms: N_4  and  S_1 
REMARK    3  A    between atoms: S_2  and  C_3 
REMARK    4  A    between atoms: C_5  and  N_4 
ROOT
ATOM      1  N   UNL d   1       0.270   0.138  -1.588  0.00  0.00    -0.185 NA
ATOM      2  H   UNL d   1       0.169  -0.777  -2.040  0.00  0.00     0.146 HD
ENDROOT
BRANCH   1   3
ATOM      3  S   UNL d   1       1.046  -0.089  -0.086  0.00  0.00     0.227 S 
ATOM      4  O   UNL d   1       0.876  -1.498   0.178  0.00  0.00    -0.210 OA
ATOM      5  O   UNL d   1       2.354   0.524  -0.151  0.00  0.00    -0.210 OA
BRANCH   3   6
ATOM      6  C   UNL d   1       0.005   0.853   0.969  0.00  0.00     0.297 C 
BRANCH   6   7
ATOM      7  S   UNL d   1       0.507   0.816   2.655  0.00  0.00     0.155 S 
ATOM      8  O   UNL d   1      -0.417   1.686   3.363  0.00  0.00    -0.227 OA
ATOM      9  O   UNL d   1       0.667  -0.556   3.089  0.00  0.00    -0.227 OA
ATOM     10  C   UNL d   1       2.092   1.617   2.725  0.00  0.00     0.162 C 
ENDBRANCH   6   7
ENDBRANCH   3   6
ENDBRANCH   1   3
BRANCH   1  11
ATOM     11  C   UNL d   1       0.754   1.183  -2.430  0.00  0.00     0.025 A 
ATOM     12  C   UNL d   1       1.849   0.971  -3.268  0.00  0.00     0.048 A 
ATOM     13  C   UNL d   1       2.312   2.019  -4.064  0.00  0.00     0.037 A 
ATOM     14 CL   UNL d   1       3.654   1.764  -5.111  0.00  0.00    -0.084 Cl
ATOM     15  C   UNL d   1       1.701   3.270  -4.023  0.00  0.00     0.047 A 
ATOM     16  C   UNL d   1       0.617   3.469  -3.172  0.00  0.00     0.037 A 
ATOM     17  C   UNL d   1       0.142   2.433  -2.369  0.00  0.00     0.048 A 
ATOM     18 CL   UNL d   1      -0.150   5.007  -3.110  0.00  0.00    -0.084 Cl
ENDBRANCH   1  11
TORSDOF 4
