REMARK  3 active torsions:
REMARK  status: ('A' for Active; 'I' for Inactive)
REMARK    1  A    between atoms: C_6  and  N_1 
REMARK    2  A    between atoms: C_5  and  C_2 
REMARK    3  A    between atoms: C_11  and  C_6 
ROOT
ATOM      1  N   UNL d   1      -0.592  -1.225   0.204  0.00  0.00    -0.330 N 
ATOM      2  C   UNL d   1       0.761  -1.399  -0.279  0.00  0.00     0.184 A 
ATOM      3  S   UNL d   1       1.436   0.252  -0.588  0.00  0.00    -0.129 SA
ATOM      4  C   UNL d   1      -1.114   0.056   0.198  0.00  0.00     0.230 A 
ATOM      5  C   UNL d   1      -0.132   1.090  -0.296  0.00  0.00     0.179 A 
ATOM      6  O   UNL d   1      -2.255   0.342   0.543  0.00  0.00    -0.272 OA
ENDROOT
BRANCH   1   7
ATOM      7  C   UNL d   1      -1.435  -2.375   0.493  0.00  0.00     0.166 C 
BRANCH   7   8
ATOM      8  C   UNL d   1      -2.230  -2.844  -0.705  0.00  0.00    -0.040 A 
ATOM      9  C   UNL d   1      -1.705  -3.786  -1.602  0.00  0.00     0.010 A 
ATOM     10  C   UNL d   1      -2.467  -4.229  -2.687  0.00  0.00     0.024 A 
ATOM     11  C   UNL d   1      -3.756  -3.734  -2.882  0.00  0.00     0.034 A 
ATOM     12  C   UNL d   1      -4.285  -2.789  -2.009  0.00  0.00     0.024 A 
ATOM     13 CL   UNL d   1      -4.700  -4.299  -4.205  0.00  0.00    -0.084 Cl
ATOM     14  C   UNL d   1      -3.522  -2.342  -0.928  0.00  0.00     0.010 A 
ENDBRANCH   7   8
ENDBRANCH   1   7
BRANCH   2  15
ATOM     15  C   UNL d   1       1.634  -2.180   0.672  0.00  0.00    -0.010 A 
ATOM     16  C   UNL d   1       2.383  -3.260   0.210  0.00  0.00     0.097 A 
ATOM     17  N   UNL d   1       3.158  -4.042   0.995  0.00  0.00    -0.375 N 
ATOM     18  C   UNL d   1       3.212  -3.727   2.307  0.00  0.00     0.087 A 
ATOM     19  HN  UNL d   1       3.678  -4.833   0.613  1.00  0.00     0.164 HD
ATOM     20  C   UNL d   1       2.525  -2.666   2.869  0.00  0.00     0.018 A 
ATOM     21  C   UNL d   1       1.727  -1.884   2.039  0.00  0.00     0.013 A 
ENDBRANCH   2  15
TORSDOF 3
