REMARK  10 active torsions:
REMARK  status: ('A' for Active; 'I' for Inactive)
REMARK    1  A    between atoms: C_4  and  S_1 
REMARK    2  A    between atoms: N_5  and  S_1 
REMARK    3  A    between atoms: S_2  and  C_8 
REMARK    4  A    between atoms: N_3  and  S_2 
REMARK    5  A    between atoms: C_6  and  N_3 
REMARK    6  A    between atoms: C_25  and  N_5 
REMARK    7  A    between atoms: O_9  and  C_11 
REMARK    8  A    between atoms: C_10  and  O_9 
REMARK    9  A    between atoms: O_31  and  C_17 
REMARK   10  A    between atoms: O_33  and  C_19 
ROOT
ATOM      1  C   UNL d   1       1.479  -4.854   2.802  0.00  0.00     0.075 A 
ATOM      2  C   UNL d   1       2.465  -3.917   2.465  0.00  0.00     0.027 A 
ATOM      3  C   UNL d   1       0.134  -4.489   2.715  0.00  0.00     0.027 A 
ATOM      4  C   UNL d   1       0.757  -2.271   1.950  0.00  0.00     0.042 A 
ATOM      5  C   UNL d   1      -0.228  -3.191   2.312  0.00  0.00     0.031 A 
ATOM      6  C   UNL d   1       2.101  -2.634   2.026  0.00  0.00     0.031 A 
ENDROOT
BRANCH   1   7
ATOM      7  S   UNL d   1       1.946  -6.550   3.177  0.00  0.00     0.245 S 
ATOM      8  O   UNL d   1       1.283  -7.394   2.210  0.00  0.00    -0.206 OA
ATOM      9  O   UNL d   1       3.383  -6.562   3.353  0.00  0.00    -0.206 OA
BRANCH   7  10
ATOM     10  N   UNL d   1       1.296  -6.835   4.732  0.00  0.00    -0.179 NA
ATOM     11  H   UNL d   1       1.883  -6.319   5.389  0.00  0.00     0.146 HD
BRANCH  10  12
ATOM     12  C   UNL d   1       1.253  -8.238   5.140  0.00  0.00     0.056 A 
ATOM     13  C   UNL d   1       0.040  -8.955   5.218  0.00  0.00     0.098 A 
ATOM     14  C   UNL d   1       0.023 -10.296   5.624  0.00  0.00     0.039 A 
ATOM     15  C   UNL d   1       1.197 -10.912   6.045  0.00  0.00     0.003 A 
ATOM     16  C   UNL d   1       2.394 -10.197   6.028  0.00  0.00     0.002 A 
ATOM     17  C   UNL d   1       2.428  -8.875   5.558  0.00  0.00     0.027 A 
BRANCH  13  18
ATOM     18  O   UNL d   1      -1.209  -8.412   4.991  0.00  0.00    -0.307 OA
BRANCH  18  19
ATOM     19  C   UNL d   1      -1.491  -7.223   5.630  0.00  0.00     0.098 C 
ATOM     20  C   UNL d   1      -2.250  -6.275   4.939  0.00  0.00     0.069 C 
ATOM     21  C   UNL d   1      -2.360  -4.977   5.437  0.00  0.00     0.050 C 
ATOM     22 CL   UNL d   1      -3.015  -6.658   3.438  0.00  0.00    -0.081 Cl
ATOM     23  C   UNL d   1      -1.748  -4.650   6.646  0.00  0.00     0.035 C 
ATOM     24  C   UNL d   1      -1.095  -5.623   7.401  0.00  0.00     0.026 C 
ATOM     25 CL   UNL d   1      -1.771  -3.025   7.204  0.00  0.00    -0.084 Cl
ATOM     26  C   UNL d   1      -0.991  -6.919   6.906  0.00  0.00     0.041 C 
ENDBRANCH  18  19
ENDBRANCH  13  18
ENDBRANCH  10  12
ENDBRANCH   7  10
ENDBRANCH   1   7
BRANCH   4  27
ATOM     27  N   UNL d   1       0.393  -1.013   1.403  0.00  0.00    -0.281 N 
ATOM     28  H   UNL d   1       0.601  -0.811   0.427  0.00  0.00     0.179 HD
BRANCH  27  29
ATOM     29  S   UNL d   1       0.102   0.336   2.357  0.00  0.00     0.263 S 
ATOM     30  O   UNL d   1      -0.083   1.447   1.439  0.00  0.00    -0.200 OA
ATOM     31  O   UNL d   1      -0.908   0.008   3.341  0.00  0.00    -0.200 OA
BRANCH  29  32
ATOM     32  C   UNL d   1       1.635   0.593   3.209  0.00  0.00     0.082 A 
ATOM     33  C   UNL d   1       1.869  -0.118   4.389  0.00  0.00     0.065 A 
ATOM     34  C   UNL d   1       3.091  -0.004   5.064  0.00  0.00     0.102 A 
ATOM     35  C   UNL d   1       4.059   0.889   4.567  0.00  0.00     0.101 A 
ATOM     36  C   UNL d   1       3.792   1.631   3.404  0.00  0.00     0.041 A 
ATOM     37  C   UNL d   1       2.581   1.492   2.722  0.00  0.00     0.028 A 
BRANCH  34  38
ATOM     38  O   UNL d   1       3.402  -0.761   6.162  0.00  0.00    -0.353 OA
ATOM     39  C   UNL d   1       2.408  -1.649   6.660  0.00  0.00     0.210 C 
ENDBRANCH  34  38
BRANCH  35  40
ATOM     40  O   UNL d   1       5.318   1.117   5.062  0.00  0.00    -0.353 OA
ATOM     41  C   UNL d   1       5.523   0.909   6.454  0.00  0.00     0.210 C 
ENDBRANCH  35  40
ENDBRANCH  29  32
ENDBRANCH  27  29
ENDBRANCH   4  27
TORSDOF 10
