REMARK  2 active torsions:
REMARK  status: ('A' for Active; 'I' for Inactive)
REMARK    1  A    between atoms: C_8  and  C_3 
REMARK    2  A    between atoms: C_11  and  C_6 
ROOT
ATOM      1  N   UNL d   1       1.243   0.053  -0.028  0.00  0.00    -0.321 N 
ATOM      2  HN  UNL d   1       2.255   0.115  -0.140  1.00  0.00     0.169 HD
ATOM      3  C   UNL d   1       0.321   1.084   0.104  0.00  0.00     0.154 A 
ATOM      4  N   UNL d   1      -0.941   0.650   0.260  0.00  0.00    -0.241 N 
ATOM      5  HN  UNL d   1      -1.785   1.209   0.391  1.00  0.00     0.196 HD
ATOM      6  C   UNL d   1       0.487  -1.022   0.028  0.00  0.00     0.152 A 
ATOM      7  O   UNL d   1      -0.834  -0.730   0.203  0.00  0.00    -0.222 OA
ENDROOT
BRANCH   3   8
ATOM      8  C   UNL d   1       0.690   2.502   0.043  0.00  0.00     0.078 A 
ATOM      9  N   UNL d   1      -0.306   3.412   0.222  0.00  0.00    -0.363 N 
ATOM     10  C   UNL d   1       0.017   4.720   0.138  0.00  0.00     0.088 A 
ATOM     11  HN  UNL d   1      -1.263   3.116   0.412  1.00  0.00     0.165 HD
ATOM     12  C   UNL d   1       1.296   5.181  -0.118  0.00  0.00     0.017 A 
ATOM     13  C   UNL d   1       2.307   4.244  -0.295  0.00  0.00     0.004 A 
ATOM     14  C   UNL d   1       2.005   2.885  -0.212  0.00  0.00     0.033 A 
ENDBRANCH   3   8
BRANCH   6  15
ATOM     15  C   UNL d   1       0.970  -2.452  -0.125  0.00  0.00     0.063 C 
ATOM     16  C   UNL d   1       2.044  -2.899   0.911  0.00  0.00     0.013 C 
ATOM     17  C   UNL d   1       2.682  -3.718  -0.231  0.00  0.00     0.002 C 
ATOM     18  C   UNL d   1       2.091  -2.661  -1.184  0.00  0.00     0.013 C 
ENDBRANCH   6  15
TORSDOF 2
