REMARK  4 active torsions:
REMARK  status: ('A' for Active; 'I' for Inactive)
REMARK    1  A    between atoms: C_2  and  C_1 
REMARK    2  A    between atoms: C_6  and  C_2 
REMARK    3  A    between atoms: N_7  and  C_3 
REMARK    4  A    between atoms: C_8  and  N_7 
ROOT
ATOM      1  C   UNL d   1       0.925  -0.041   0.094  0.00  0.00     0.106 C 
ATOM      2  C   UNL d   1       0.201   1.051   0.414  0.00  0.00     0.114 C 
ATOM      3  C   UNL d   1       0.267  -1.233  -0.300  0.00  0.00     0.104 C 
ATOM      4  N   UNL d   1      -0.327  -2.181  -0.608  0.00  0.00    -0.191 NA
ENDROOT
BRANCH   1   5
ATOM      5  C   UNL d   1       2.422   0.077   0.145  0.00  0.00     0.178 C 
ATOM      6  O   UNL d   1       2.919   1.208   0.088  0.00  0.00    -0.291 OA
BRANCH   5   7
ATOM      7  C   UNL d   1       3.350  -1.167   0.217  0.00  0.00     0.015 C 
ATOM      8  C   UNL d   1       3.635  -1.647  -1.212  0.00  0.00     0.023 C 
ATOM      9  C   UNL d   1       4.687  -0.728   0.861  0.00  0.00     0.023 C 
ATOM     10  C   UNL d   1       2.818  -2.321   1.078  0.00  0.00     0.023 C 
ENDBRANCH   5   7
ENDBRANCH   1   5
BRANCH   2  11
ATOM     11  N   UNL d   1      -1.170   1.173   0.502  0.00  0.00    -0.364 N 
ATOM     12  H   UNL d   1      -1.715   0.318   0.389  0.00  0.00     0.165 HD
BRANCH  11  13
ATOM     13  C   UNL d   1      -1.948   2.338   0.622  0.00  0.00     0.035 A 
ATOM     14  C   UNL d   1      -1.471   3.621   0.335  0.00  0.00     0.053 A 
ATOM     15  C   UNL d   1      -2.291   4.740   0.509  0.00  0.00     0.037 A 
ATOM     16 CL   UNL d   1      -1.695   6.305   0.104  0.00  0.00    -0.084 Cl
ATOM     17  C   UNL d   1      -3.586   4.608   0.998  0.00  0.00     0.048 A 
ATOM     18  C   UNL d   1      -4.060   3.340   1.311  0.00  0.00     0.037 A 
ATOM     19  C   UNL d   1      -3.254   2.216   1.127  0.00  0.00     0.053 A 
ATOM     20 CL   UNL d   1      -5.652   3.152   1.937  0.00  0.00    -0.084 Cl
ENDBRANCH  11  13
ENDBRANCH   2  11
TORSDOF 4
