REMARK  2 active torsions:
REMARK  status: ('A' for Active; 'I' for Inactive)
REMARK    1  A    between atoms: C_2  and  C_1 
REMARK    2  A    between atoms: N_12  and  C_6 
ROOT
ATOM      1  C   UNL d   1      -1.953  -0.841   0.058  0.00  0.00     0.089 A 
ATOM      2  N   UNL d   1      -1.677   0.320  -0.503  0.00  0.00    -0.349 N 
ATOM      3  HN  UNL d   1      -2.339   0.875  -1.045  1.00  0.00     0.166 HD
ATOM      4  S   UNL d   1      -0.615  -1.593   0.842  0.00  0.00    -0.069 SA
ATOM      5  C   UNL d   1      -0.364   0.681  -0.254  0.00  0.00     0.050 A 
ATOM      6  C   UNL d   1       0.392  -0.265   0.440  0.00  0.00     0.033 A 
ATOM      7  C   UNL d   1       0.254   1.888  -0.636  0.00  0.00     0.031 A 
ATOM      8  C   UNL d   1       1.753  -0.065   0.729  0.00  0.00     0.021 A 
ATOM      9  C   UNL d   1       1.603   2.110  -0.331  0.00  0.00     0.002 A 
ATOM     10  C   UNL d   1       2.343   1.139   0.334  0.00  0.00     0.002 A 
ENDROOT
BRANCH   1  11
ATOM     11  C   UNL d   1      -3.342  -1.448  -0.009  0.00  0.00     0.037 A 
ATOM     12  C   UNL d   1      -3.834  -2.351   0.927  0.00  0.00     0.081 A 
ATOM     13  S   UNL d   1      -5.447  -2.808   0.580  0.00  0.00    -0.083 SA
ATOM     14  C   UNL d   1      -5.505  -1.822  -0.801  0.00  0.00     0.059 A 
ATOM     15  C   UNL d   1      -4.322  -1.145  -1.036  0.00  0.00    -0.040 A 
ATOM     16  C   UNL d   1      -4.138  -0.270  -2.235  0.00  0.00     0.049 C 
BRANCH  12  17
ATOM     17  N   UNL d   1      -3.252  -2.853   2.036  0.00  0.00    -0.393 N 
ATOM     18  H   UNL d   1      -2.272  -2.706   2.255  0.00  0.00     0.156 HD
ATOM     19  H   UNL d   1      -3.720  -3.568   2.586  0.00  0.00     0.156 HD
ENDBRANCH  12  17
ENDBRANCH   1  11
TORSDOF 2
