REMARK  3 active torsions:
REMARK  status: ('A' for Active; 'I' for Inactive)
REMARK       I    between atoms: N_2  and  C_1 
REMARK    1  A    between atoms: C_3  and  C_1 
REMARK       I    between atoms: C_4  and  N_2 
REMARK       I    between atoms: N_5  and  C_4 
REMARK    2  A    between atoms: C_7  and  N_5 
REMARK    3  A    between atoms: N_6  and  C_8 
ROOT
ATOM      1  C   UNL d   1       0.357   0.955  -4.377  0.00  0.00     0.263 C 
ATOM      2  N   UNL d   1       1.080   1.912  -3.683  0.00  0.00    -0.275 N 
ATOM      3  C   UNL d   1       1.925   1.768  -2.608  0.00  0.00     0.327 C 
ATOM      4  N   UNL d   1       2.284   0.489  -2.282  0.00  0.00    -0.306 N 
ATOM      5  O   UNL d   1       0.402  -0.246  -4.154  0.00  0.00    -0.267 OA
ATOM      6  O   UNL d   1       2.261   2.796  -2.023  0.00  0.00    -0.247 OA
ATOM      7  H   UNL d   1       0.865   2.886  -3.837  0.00  0.00     0.173 HD
ATOM      8  H   UNL d   1       1.742  -0.253  -2.709  0.00  0.00     0.170 HD
ENDROOT
BRANCH   4   9
ATOM      9  C   UNL d   1       3.134   0.133  -1.207  0.00  0.00     0.063 A 
ATOM     10  C   UNL d   1       2.963  -1.085  -0.496  0.00  0.00     0.057 A 
ATOM     11  C   UNL d   1       3.911  -1.355   0.521  0.00  0.00     0.031 A 
ATOM     12  C   UNL d   1       4.981  -0.502   0.813  0.00  0.00     0.002 A 
ATOM     13  C   UNL d   1       5.136   0.669   0.095  0.00  0.00     0.002 A 
ATOM     14  C   UNL d   1       4.216   0.983  -0.901  0.00  0.00     0.032 A 
BRANCH  10  15
ATOM     15  N   UNL d   1       1.903  -1.988  -0.633  0.00  0.00    -0.379 N 
ATOM     16  C   UNL d   1       0.579  -1.598  -1.120  0.00  0.00     0.123 C 
ATOM     17  C   UNL d   1      -0.502  -2.433  -0.436  0.00  0.00     0.020 C 
ATOM     18  C   UNL d   1      -0.229  -3.926  -0.587  0.00  0.00     0.003 C 
ATOM     19  C   UNL d   1       1.176  -4.264  -0.095  0.00  0.00     0.020 C 
ATOM     20  C   UNL d   1       2.231  -3.411  -0.803  0.00  0.00     0.123 C 
ENDBRANCH  10  15
ENDBRANCH   4   9
BRANCH   1  21
ATOM     21  C   UNL d   1      -0.499   1.487  -5.465  0.00  0.00     0.075 A 
ATOM     22  C   UNL d   1      -0.335   1.015  -6.777  0.00  0.00     0.051 A 
ATOM     23 CL   UNL d   1       0.865  -0.150  -7.215  0.00  0.00    -0.083 Cl
ATOM     24  C   UNL d   1      -1.128   1.524  -7.814  0.00  0.00     0.025 A 
ATOM     25  C   UNL d   1      -2.081   2.507  -7.556  0.00  0.00     0.003 A 
ATOM     26  C   UNL d   1      -2.253   2.977  -6.257  0.00  0.00     0.025 A 
ATOM     27  C   UNL d   1      -1.475   2.465  -5.212  0.00  0.00     0.051 A 
ATOM     28 CL   UNL d   1      -1.792   3.084  -3.629  0.00  0.00    -0.083 Cl
ENDBRANCH   1  21
TORSDOF 3
