REMARK  1 active torsions:
REMARK  status: ('A' for Active; 'I' for Inactive)
REMARK    1  A    between atoms: C_7  and  N_2 
ROOT
ATOM      1  C   UNL d   1      -0.766  -0.982   0.095  0.00  0.00     0.339 C 
ATOM      2  N   UNL d   1       0.634  -1.007   0.159  0.00  0.00    -0.226 N 
ATOM      3  N   UNL d   1      -1.123   0.356   0.051  0.00  0.00    -0.319 N 
ATOM      4  N   UNL d   1       1.162   0.317   0.113  0.00  0.00    -0.201 NA
ATOM      5  C   UNL d   1       0.011   1.186  -0.209  0.00  0.00     0.098 C 
ATOM      6  O   UNL d   1      -1.584  -1.888   0.085  0.00  0.00    -0.245 OA
ATOM      7  C   UNL d   1       0.026   2.423   0.683  0.00  0.00     0.058 C 
ATOM      8  C   UNL d   1       0.033   1.580  -1.691  0.00  0.00     0.058 C 
ATOM      9  H   UNL d   1      -2.087   0.609  -0.108  0.00  0.00     0.166 HD
ATOM     10  H   UNL d   1       1.825   0.344  -0.661  0.00  0.00     0.150 HD
ENDROOT
BRANCH   2  11
ATOM     11  C   UNL d   1       1.476  -2.142   0.262  0.00  0.00     0.056 A 
ATOM     12  C   UNL d   1       0.995  -3.436   0.026  0.00  0.00     0.031 A 
ATOM     13  C   UNL d   1       1.834  -4.549   0.145  0.00  0.00     0.002 A 
ATOM     14  C   UNL d   1       3.167  -4.384   0.513  0.00  0.00     0.000 A 
ATOM     15  C   UNL d   1       3.663  -3.106   0.748  0.00  0.00     0.002 A 
ATOM     16  C   UNL d   1       2.828  -1.993   0.614  0.00  0.00     0.031 A 
ENDBRANCH   2  11
TORSDOF 1
