REMARK  3 active torsions:
REMARK  status: ('A' for Active; 'I' for Inactive)
REMARK    1  A    between atoms: C_2  and  C_1 
REMARK       I    between atoms: N_6  and  C_2 
REMARK    2  A    between atoms: C_5  and  C_9 
REMARK    3  A    between atoms: C_9  and  C_15 
ROOT
ATOM      1  C   UNL d   1      -0.148   2.460  -0.162  0.00  0.00     0.258 C 
ATOM      2  N   UNL d   1      -1.166   3.369   0.177  0.00  0.00    -0.348 N 
ATOM      3  O   UNL d   1       0.393   2.496  -1.267  0.00  0.00    -0.267 OA
ATOM      4  C   UNL d   1      -3.050   5.545   0.805  0.00  0.00     0.064 C 
ATOM      5  C   UNL d   1      -1.983   3.306   1.383  0.00  0.00     0.127 C 
ATOM      6  C   UNL d   1      -1.695   4.200  -0.905  0.00  0.00     0.127 C 
ATOM      7  C   UNL d   1      -2.135   5.581  -0.425  0.00  0.00     0.032 C 
ATOM      8  C   UNL d   1      -2.429   4.674   1.893  0.00  0.00     0.032 C 
ENDROOT
BRANCH   1   9
ATOM      9  C   UNL d   1       0.344   1.515   0.830  0.00  0.00     0.087 A 
ATOM     10  C   UNL d   1       1.687   1.300   1.084  0.00  0.00     0.090 A 
ATOM     11  O   UNL d   1       1.828   0.349   2.041  0.00  0.00    -0.242 OA
ATOM     12  C   UNL d   1       2.949   1.851   0.550  0.00  0.00     0.080 C 
ATOM     13  N   UNL d   1       0.588  -0.124   2.408  0.00  0.00    -0.265 N 
ATOM     14  C   UNL d   1      -0.296   0.534   1.645  0.00  0.00     0.047 A 
ATOM     15  HN  UNL d   1       0.384  -0.830   3.115  1.00  0.00     0.194 HD
ATOM     16  C   UNL d   1      -1.723   0.146   1.741  0.00  0.00     0.071 C 
ENDBRANCH   1   9
BRANCH   4  17
ATOM     17  C   UNL d   1      -4.469   5.083   0.460  0.00  0.00     0.166 C 
ATOM     18  O   UNL d   1      -4.697   4.370  -0.515  0.00  0.00    -0.292 OA
BRANCH  17  19
ATOM     19  C   UNL d   1      -5.619   5.404   1.357  0.00  0.00     0.049 A 
ATOM     20  C   UNL d   1      -5.683   6.547   2.158  0.00  0.00     0.133 A 
ATOM     21  C   UNL d   1      -6.787   6.793   2.972  0.00  0.00     0.085 A 
ATOM     22  F   UNL d   1      -4.710   7.467   2.151  0.00  0.00    -0.205 F 
ATOM     23  C   UNL d   1      -7.840   5.891   2.982  0.00  0.00     0.119 A 
ATOM     24  C   UNL d   1      -7.814   4.755   2.183  0.00  0.00     0.043 A 
ATOM     25  F   UNL d   1      -8.901   6.124   3.765  0.00  0.00    -0.206 F 
ATOM     26  C   UNL d   1      -6.706   4.512   1.368  0.00  0.00     0.021 A 
ENDBRANCH  17  19
ENDBRANCH   4  17
TORSDOF 3
