REMARK  3 active torsions:
REMARK  status: ('A' for Active; 'I' for Inactive)
REMARK    1  A    between atoms: C_8  and  N_2 
REMARK    2  A    between atoms: C_9  and  C_3 
REMARK    3  A    between atoms: C_10  and  N_6 
ROOT
ATOM      1  C   UNL d   1       0.993  -0.730  -0.066  0.00  0.00     0.156 A 
ATOM      2  N   UNL d   1       0.935   0.692  -0.027  0.00  0.00    -0.294 N 
ATOM      3  C   UNL d   1      -0.399   1.211  -0.164  0.00  0.00     0.033 A 
ATOM      4  S   UNL d   1      -0.643  -1.359  -0.404  0.00  0.00    -0.063 SA
ATOM      5  C   UNL d   1      -1.308   0.230  -0.362  0.00  0.00     0.079 A 
ATOM      6  N   UNL d   1       2.035  -1.494   0.091  0.00  0.00    -0.336 N 
ATOM      7  HN  UNL d   1       2.939  -1.051   0.252  1.00  0.00     0.168 HD
ENDROOT
BRANCH   2   8
ATOM      8  C   UNL d   1       2.168   1.423   0.032  0.00  0.00     0.041 A 
ATOM      9  C   UNL d   1       2.454   2.509  -0.808  0.00  0.00     0.032 A 
ATOM     10  C   UNL d   1       3.680   3.189  -0.757  0.00  0.00     0.026 A 
ATOM     11  C   UNL d   1       4.679   2.757   0.106  0.00  0.00     0.034 A 
ATOM     12  C   UNL d   1       4.450   1.663   0.929  0.00  0.00     0.026 A 
ATOM     13 CL   UNL d   1       6.195   3.564   0.143  0.00  0.00    -0.084 Cl
ATOM     14  C   UNL d   1       3.205   1.020   0.901  0.00  0.00     0.032 A 
ENDBRANCH   2   8
BRANCH   6  15
ATOM     15  C   UNL d   1       1.980  -2.894   0.050  0.00  0.00     0.034 A 
ATOM     16  C   UNL d   1       2.725  -3.568  -0.917  0.00  0.00     0.031 A 
ATOM     17  C   UNL d   1       2.755  -4.965  -0.956  0.00  0.00     0.026 A 
ATOM     18  C   UNL d   1       2.031  -5.696  -0.011  0.00  0.00     0.034 A 
ATOM     19  C   UNL d   1       1.302  -5.038   0.974  0.00  0.00     0.026 A 
ATOM     20 CL   UNL d   1       2.055  -7.414  -0.059  0.00  0.00    -0.084 Cl
ATOM     21  C   UNL d   1       1.295  -3.640   1.019  0.00  0.00     0.031 A 
ENDBRANCH   6  15
BRANCH   3  22
ATOM     22  C   UNL d   1      -0.862   2.686  -0.030  0.00  0.00    -0.008 C 
ATOM     23  C   UNL d   1      -0.773   3.393  -1.404  0.00  0.00     0.021 C 
ATOM     24  C   UNL d   1      -2.361   2.796   0.404  0.00  0.00     0.021 C 
ATOM     25  C   UNL d   1      -0.118   3.474   1.071  0.00  0.00     0.021 C 
ENDBRANCH   3  22
TORSDOF 3
