REMARK  2 active torsions:
REMARK  status: ('A' for Active; 'I' for Inactive)
REMARK    1  A    between atoms: N_8  and  C_1 
REMARK       I    between atoms: C_9  and  N_8 
REMARK    2  A    between atoms: C_11  and  C_9 
ROOT
ATOM      1  C   UNL d   1       2.394  -0.582  -0.305  0.00  0.00     0.155 C 
ATOM      2  S   UNL d   1       2.381   0.958  -1.097  0.00  0.00    -0.011 SA
ATOM      3  C   UNL d   1      -0.136   0.747  -0.079  0.00  0.00     0.051 A 
ATOM      4  C   UNL d   1       1.032   1.617  -0.233  0.00  0.00     0.229 C 
ATOM      5  N   UNL d   1       1.344  -1.208   0.116  0.00  0.00    -0.334 N 
ATOM      6  HN  UNL d   1       1.447  -2.133   0.533  1.00  0.00     0.168 HD
ATOM      7  C   UNL d   1       0.056  -0.635   0.011  0.00  0.00     0.066 A 
ATOM      8  C   UNL d   1      -1.100  -1.434   0.079  0.00  0.00     0.040 A 
ATOM      9  C   UNL d   1      -2.382  -0.868   0.074  0.00  0.00     0.040 A 
ATOM     10  C   UNL d   1      -1.407   1.335  -0.054  0.00  0.00     0.037 A 
ATOM     11  O   UNL d   1       1.004   2.784   0.137  0.00  0.00    -0.279 OA
ATOM     12  C   UNL d   1      -2.527   0.516   0.020  0.00  0.00     0.013 A 
ATOM     13 BR   UNL d   1      -0.978  -3.330   0.172  0.00  0.00    -0.049 Br
ATOM     14 BR   UNL d   1      -4.251   1.290   0.035  0.00  0.00    -0.051 Br
ENDROOT
BRANCH   1  15
ATOM     15  N   UNL d   1       3.607  -1.210  -0.104  0.00  0.00    -0.301 N 
ATOM     16  C   UNL d   1       4.906  -0.808  -0.403  0.00  0.00     0.281 C 
ATOM     17  O   UNL d   1       5.197   0.216  -1.014  0.00  0.00    -0.265 OA
ATOM     18  H   UNL d   1       3.528  -2.091   0.388  0.00  0.00     0.171 HD
BRANCH  16  19
ATOM     19  C   UNL d   1       5.930  -1.722   0.054  0.00  0.00     0.142 A 
ATOM     20  O   UNL d   1       5.589  -2.841   0.769  0.00  0.00    -0.317 OA
ATOM     21  C   UNL d   1       6.747  -3.496   1.052  0.00  0.00     0.143 A 
ATOM     22  C   UNL d   1       7.827  -2.823   0.530  0.00  0.00     0.027 A 
ATOM     23  C   UNL d   1       7.302  -1.677  -0.107  0.00  0.00     0.045 A 
ENDBRANCH  16  19
ENDBRANCH   1  15
TORSDOF 2
