REMARK  2 active torsions:
REMARK  status: ('A' for Active; 'I' for Inactive)
REMARK    1  A    between atoms: C_7  and  C_3 
REMARK    2  A    between atoms: N_14  and  C_4 
ROOT
ATOM      1  C   UNL d   1      -1.716  -0.334   0.136  0.00  0.00     0.080 A 
ATOM      2  C   UNL d   1       0.806  -0.386   0.069  0.00  0.00     0.031 A 
ATOM      3  C   UNL d   1      -0.464  -1.203   0.102  0.00  0.00     0.107 A 
ATOM      4  C   UNL d   1      -1.634   1.016   0.092  0.00  0.00     0.138 A 
ATOM      5  C   UNL d   1       0.778   0.957   0.010  0.00  0.00     0.066 A 
ATOM      6  O   UNL d   1      -0.410   1.669   0.009  0.00  0.00    -0.301 OA
ATOM      7  C   UNL d   1      -2.986  -0.989   0.232  0.00  0.00     0.100 C 
ATOM      8  C   UNL d   1       2.125  -1.083   0.088  0.00  0.00     0.159 C 
ATOM      9  N   UNL d   1      -4.022  -1.514   0.276  0.00  0.00    -0.191 NA
ATOM     10  O   UNL d   1       2.182  -2.306   0.198  0.00  0.00    -0.293 OA
ATOM     11  C   UNL d   1       1.998   1.828  -0.052  0.00  0.00     0.066 C 
ATOM     12  C   UNL d   1       3.385  -0.265  -0.086  0.00  0.00     0.084 C 
ATOM     13  C   UNL d   1       3.231   1.127   0.502  0.00  0.00     0.014 C 
ENDROOT
BRANCH   3  14
ATOM     14  C   UNL d   1      -0.528  -2.266  -1.007  0.00  0.00    -0.022 A 
ATOM     15  C   UNL d   1      -0.491  -1.978  -2.382  0.00  0.00     0.043 A 
ATOM     16  C   UNL d   1      -0.511  -3.009  -3.326  0.00  0.00     0.048 A 
ATOM     17 CL   UNL d   1      -0.415  -0.366  -3.004  0.00  0.00    -0.084 Cl
ATOM     18  C   UNL d   1      -0.569  -4.333  -2.912  0.00  0.00     0.035 A 
ATOM     19  C   UNL d   1      -0.620  -4.645  -1.561  0.00  0.00     0.024 A 
ATOM     20 CL   UNL d   1      -0.576  -5.595  -4.083  0.00  0.00    -0.084 Cl
ATOM     21  C   UNL d   1      -0.602  -3.620  -0.612  0.00  0.00     0.011 A 
ENDBRANCH   3  14
BRANCH   4  22
ATOM     22  N   UNL d   1      -2.699   1.886   0.111  0.00  0.00    -0.282 NA
ATOM     23  H   UNL d   1      -3.577   1.510  -0.236  0.00  0.00     0.126 HD
ATOM     24  H   UNL d   1      -2.460   2.779  -0.313  0.00  0.00     0.126 HD
ENDBRANCH   4  22
TORSDOF 2
