REMARK  4 active torsions:
REMARK  status: ('A' for Active; 'I' for Inactive)
REMARK    1  A    between atoms: C_3  and  N_1 
REMARK       I    between atoms: C_2  and  N_5 
REMARK    2  A    between atoms: C_4  and  C_2 
REMARK    3  A    between atoms: N_5  and  C_6 
REMARK    4  A    between atoms: O_11  and  C_9 
ROOT
ATOM      1  C   UNL d   1       2.579  -1.432   0.598  0.00  0.00     0.259 C 
ATOM      2  N   UNL d   1       1.988  -2.215  -0.377  0.00  0.00    -0.321 N 
ATOM      3  O   UNL d   1       2.206  -0.317   0.943  0.00  0.00    -0.267 OA
ATOM      4  H   UNL d   1       2.323  -3.163  -0.473  0.00  0.00     0.169 HD
ENDROOT
BRANCH   2   5
ATOM      5  C   UNL d   1       0.849  -1.901  -1.156  0.00  0.00     0.068 A 
ATOM      6  C   UNL d   1       0.373  -0.634  -1.526  0.00  0.00     0.129 A 
ATOM      7  C   UNL d   1      -0.831  -0.488  -2.243  0.00  0.00     0.038 A 
ATOM      8  C   UNL d   1      -1.558  -1.614  -2.622  0.00  0.00     0.003 A 
ATOM      9  C   UNL d   1      -1.076  -2.881  -2.309  0.00  0.00     0.002 A 
ATOM     10  C   UNL d   1       0.117  -3.021  -1.592  0.00  0.00     0.032 A 
BRANCH   6  11
ATOM     11  N   UNL d   1       1.189   0.566  -1.421  0.00  0.00    -0.113 N 
ATOM     12  O   UNL d   1       2.327   0.518  -1.913  0.00  0.00    -0.532 OA
ATOM     13  O   UNL d   1       0.644   1.584  -0.968  0.00  0.00    -0.532 OA
ENDBRANCH   6  11
ENDBRANCH   2   5
BRANCH   1  14
ATOM     14  C   UNL d   1       3.762  -2.029   1.289  0.00  0.00     0.065 A 
ATOM     15  C   UNL d   1       4.756  -1.189   1.811  0.00  0.00     0.081 A 
ATOM     16  C   UNL d   1       5.904  -1.726   2.393  0.00  0.00     0.037 A 
ATOM     17  C   UNL d   1       6.060  -3.109   2.485  0.00  0.00     0.003 A 
ATOM     18  C   UNL d   1       5.055  -3.955   2.020  0.00  0.00     0.001 A 
ATOM     19  C   UNL d   1       3.906  -3.419   1.433  0.00  0.00     0.020 A 
BRANCH  15  20
ATOM     20  O   UNL d   1       4.674   0.178   1.790  0.00  0.00    -0.360 OA
ATOM     21  H   UNL d   1       3.766   0.428   1.506  0.00  0.00     0.217 HD
ENDBRANCH  15  20
ENDBRANCH   1  14
TORSDOF 4
