REMARK  4 active torsions:
REMARK  status: ('A' for Active; 'I' for Inactive)
REMARK    1  A    between atoms: S_4  and  C_1 
REMARK    2  A    between atoms: C_8  and  N_2 
REMARK    3  A    between atoms: C_11  and  S_4 
REMARK    4  A    between atoms: S_18  and  C_7 
ROOT
ATOM      1  C   UNL d   1      -0.178  -1.400   0.004  0.00  0.00     0.144 C 
ATOM      2  N   UNL d   1       0.968   0.506  -0.093  0.00  0.00    -0.235 N 
ATOM      3  C   UNL d   1       1.098  -0.872   0.124  0.00  0.00     0.146 C 
ATOM      4  N   UNL d   1      -0.339   0.849  -0.203  0.00  0.00    -0.284 N 
ATOM      5  HN  UNL d   1      -0.719   1.787  -0.327  1.00  0.00     0.188 HD
ATOM      6  C   UNL d   1      -1.023  -0.290  -0.116  0.00  0.00     0.110 C 
ATOM      7  N   UNL d   1       2.263  -1.507   0.444  0.00  0.00    -0.383 N 
ATOM      8  H   UNL d   1       3.160  -1.056   0.270  0.00  0.00     0.157 HD
ATOM      9  H   UNL d   1       2.330  -2.497   0.178  0.00  0.00     0.157 HD
ENDROOT
BRANCH   1  10
ATOM     10  S   UNL d   1      -0.582  -3.062   0.101  0.00  0.00     0.213 S 
ATOM     11  O   UNL d   1      -1.888  -3.223  -0.496  0.00  0.00    -0.217 OA
ATOM     12  O   UNL d   1       0.577  -3.751  -0.445  0.00  0.00    -0.217 OA
BRANCH  10  13
ATOM     13  C   UNL d   1      -0.669  -3.450   1.827  0.00  0.00     0.064 A 
ATOM     14  C   UNL d   1      -1.908  -3.535   2.467  0.00  0.00     0.025 A 
ATOM     15  C   UNL d   1      -1.960  -3.897   3.817  0.00  0.00     0.025 A 
ATOM     16  C   UNL d   1      -0.781  -4.178   4.511  0.00  0.00     0.034 A 
ATOM     17  C   UNL d   1       0.453  -4.112   3.867  0.00  0.00     0.025 A 
ATOM     18 CL   UNL d   1      -0.850  -4.621   6.172  0.00  0.00    -0.084 Cl
ATOM     19  C   UNL d   1       0.510  -3.757   2.519  0.00  0.00     0.025 A 
ENDBRANCH  10  13
ENDBRANCH   1  10
BRANCH   6  20
ATOM     20  S   UNL d   1      -2.773  -0.255  -0.082  0.00  0.00    -0.114 SA
ATOM     21  C   UNL d   1      -3.138   1.499  -0.322  0.00  0.00     0.097 C 
ENDBRANCH   6  20
BRANCH   2  22
ATOM     22  C   UNL d   1       1.969   1.518  -0.222  0.00  0.00     0.102 A 
ATOM     23  C   UNL d   1       3.167   1.296  -0.932  0.00  0.00     0.066 A 
ATOM     24  C   UNL d   1       4.129   2.311  -1.050  0.00  0.00     0.050 A 
ATOM     25 CL   UNL d   1       3.522  -0.123  -1.861  0.00  0.00    -0.082 Cl
ATOM     26  C   UNL d   1       3.888   3.570  -0.520  0.00  0.00     0.037 A 
ATOM     27  C   UNL d   1       2.701   3.826   0.150  0.00  0.00     0.050 A 
ATOM     28 CL   UNL d   1       5.054   4.817  -0.712  0.00  0.00    -0.084 Cl
ATOM     29  C   UNL d   1       1.750   2.808   0.315  0.00  0.00     0.066 A 
ATOM     30 CL   UNL d   1       0.399   3.248   1.313  0.00  0.00    -0.082 Cl
ENDBRANCH   2  22
TORSDOF 4
