REMARK  7 active torsions:
REMARK  status: ('A' for Active; 'I' for Inactive)
REMARK    1  A    between atoms: C_8  and  C_1 
REMARK    2  A    between atoms: C_3  and  C_10 
REMARK       I    between atoms: N_18  and  C_8 
REMARK    3  A    between atoms: C_11  and  N_19 
REMARK    4  A    between atoms: C_26  and  N_18 
REMARK    5  A    between atoms: N_19  and  C_27 
REMARK    6  A    between atoms: O_22  and  C_20 
REMARK    7  A    between atoms: C_27  and  C_26 
ROOT
ATOM      1  C   UNL d   1      -3.916  -0.134  -0.106  0.00  0.00     0.268 C 
ATOM      2  O   UNL d   1      -4.438  -1.243  -0.152  0.00  0.00    -0.266 OA
ATOM      3  N   UNL d   1      -4.638   1.035  -0.172  0.00  0.00    -0.355 N 
ATOM      4  H   UNL d   1      -4.145   1.915  -0.168  0.00  0.00     0.162 HD
ENDROOT
BRANCH   3   5
ATOM      5  C   UNL d   1      -6.083   1.073  -0.319  0.00  0.00     0.137 C 
BRANCH   5   6
ATOM      6  C   UNL d   1      -6.771   1.755   0.874  0.00  0.00     0.113 C 
BRANCH   6   7
ATOM      7  N   UNL d   1      -8.226   1.770   0.686  0.00  0.00    -0.277 NA
ATOM      8  H   UNL d   1      -8.597   0.833   0.544  0.00  0.00     0.129 HD
BRANCH   7   9
ATOM      9  C   UNL d   1      -8.932   2.365   1.747  0.00  0.00     0.080 A 
ATOM     10  N   UNL d   1      -8.266   2.929   2.773  0.00  0.00    -0.343 N 
ATOM     11  C   UNL d   1      -8.972   3.502   3.791  0.00  0.00     0.117 A 
ATOM     12  HN  UNL d   1      -7.246   2.927   2.790  1.00  0.00     0.167 HD
ATOM     13  C   UNL d   1     -10.365   3.538   3.792  0.00  0.00     0.034 A 
ATOM     14  C   UNL d   1     -11.046   2.975   2.723  0.00  0.00     0.005 A 
ATOM     15  C   UNL d   1     -10.322   2.385   1.689  0.00  0.00     0.042 A 
BRANCH  11  16
ATOM     16  C   UNL d   1      -8.216   4.109   4.963  0.00  0.00     0.432 C 
ATOM     17  F   UNL d   1      -6.858   4.030   4.861  0.00  0.00    -0.165 F 
ATOM     18  F   UNL d   1      -8.497   5.434   5.138  0.00  0.00    -0.165 F 
ATOM     19  F   UNL d   1      -8.532   3.512   6.150  0.00  0.00    -0.165 F 
ENDBRANCH  11  16
ENDBRANCH   7   9
ENDBRANCH   6   7
ENDBRANCH   5   6
ENDBRANCH   3   5
BRANCH   1  20
ATOM     20  C   UNL d   1      -2.484   0.038   0.023  0.00  0.00     0.102 A 
ATOM     21  N   UNL d   1      -1.619  -1.040   0.072  0.00  0.00    -0.351 N 
ATOM     22  C   UNL d   1      -0.316  -0.623   0.226  0.00  0.00     0.043 A 
ATOM     23  H   UNL d   1      -1.924  -2.002   0.015  0.00  0.00     0.166 HD
ATOM     24  C   UNL d   1       0.873  -1.354   0.339  0.00  0.00     0.033 A 
ATOM     25  C   UNL d   1      -0.338   0.767   0.262  0.00  0.00    -0.004 A 
ATOM     26  C   UNL d   1       2.070  -0.636   0.502  0.00  0.00     0.039 A 
ATOM     27  C   UNL d   1       2.075   0.758   0.546  0.00  0.00     0.069 A 
ATOM     28  C   UNL d   1       0.873   1.464   0.421  0.00  0.00     0.050 A 
ATOM     29  C   UNL d   1      -1.693   1.171   0.126  0.00  0.00     0.049 A 
BRANCH  27  30
ATOM     30  O   UNL d   1       3.173   1.561   0.707  0.00  0.00    -0.356 OA
ATOM     31  C   UNL d   1       4.431   0.920   0.866  0.00  0.00     0.210 C 
ENDBRANCH  27  30
ENDBRANCH   1  20
TORSDOF 7
