REMARK  3 active torsions:
REMARK  status: ('A' for Active; 'I' for Inactive)
REMARK    1  A    between atoms: S_7  and  C_1 
REMARK    2  A    between atoms: C_10  and  C_5 
REMARK    3  A    between atoms: C_13  and  S_7 
ROOT
ATOM      1  C   UNL d   1      -1.484   1.243   0.048  0.00  0.00     0.110 A 
ATOM      2  N   UNL d   1      -0.195   0.726   0.068  0.00  0.00    -0.300 N 
ATOM      3  N   UNL d   1      -1.585  -1.026  -0.079  0.00  0.00    -0.339 N 
ATOM      4  HN  UNL d   1      -1.944  -1.977  -0.160  1.00  0.00     0.167 HD
ATOM      5  C   UNL d   1      -2.321   0.137  -0.004  0.00  0.00     0.079 A 
ATOM      6  C   UNL d   1      -0.327  -0.658  -0.025  0.00  0.00     0.113 A 
ATOM      7  C   UNL d   1       1.055   1.355   0.158  0.00  0.00     0.099 A 
ATOM      8  C   UNL d   1       0.864  -1.438  -0.043  0.00  0.00     0.049 A 
ATOM      9  C   UNL d   1       2.175   0.611   0.138  0.00  0.00     0.018 A 
ATOM     10  C   UNL d   1       2.063  -0.837   0.021  0.00  0.00     0.005 A 
ENDROOT
BRANCH   1  11
ATOM     11  S   UNL d   1      -1.778   2.952   0.209  0.00  0.00    -0.070 SA
BRANCH  11  12
ATOM     12  C   UNL d   1      -2.071   3.538  -1.454  0.00  0.00     0.007 A 
ATOM     13  C   UNL d   1      -2.346   2.749  -2.575  0.00  0.00     0.019 A 
ATOM     14  C   UNL d   1      -2.501   3.338  -3.840  0.00  0.00     0.001 A 
ATOM     15  C   UNL d   1      -2.401   4.719  -3.995  0.00  0.00     0.000 A 
ATOM     16  C   UNL d   1      -2.178   5.522  -2.882  0.00  0.00     0.001 A 
ATOM     17  C   UNL d   1      -2.020   4.933  -1.624  0.00  0.00     0.019 A 
ENDBRANCH  11  12
ENDBRANCH   1  11
BRANCH   5  18
ATOM     18  C   UNL d   1      -3.777   0.101  -0.035  0.00  0.00    -0.007 A 
ATOM     19  C   UNL d   1      -4.575   1.057   0.602  0.00  0.00     0.014 A 
ATOM     20  C   UNL d   1      -5.967   1.009   0.499  0.00  0.00     0.001 A 
ATOM     21  C   UNL d   1      -6.580  -0.017  -0.214  0.00  0.00     0.000 A 
ATOM     22  C   UNL d   1      -5.804  -1.004  -0.815  0.00  0.00     0.001 A 
ATOM     23  C   UNL d   1      -4.410  -0.947  -0.723  0.00  0.00     0.014 A 
ENDBRANCH   5  18
TORSDOF 3
