REMARK  5 active torsions:
REMARK  status: ('A' for Active; 'I' for Inactive)
REMARK    1  A    between atoms: C_7  and  N_1 
REMARK    2  A    between atoms: S_10  and  C_2 
REMARK    3  A    between atoms: C_17  and  S_10 
REMARK    4  A    between atoms: C_13  and  C_17 
REMARK    5  A    between atoms: C_16  and  C_13 
ROOT
ATOM      1  N   UNL d   1       2.422  -0.769  -0.083  0.00  0.00    -0.258 N 
ATOM      2  C   UNL d   1       2.332   0.619  -0.235  0.00  0.00     0.155 A 
ATOM      3  C   UNL d   1       1.255  -1.529   0.102  0.00  0.00     0.266 A 
ATOM      4  N   UNL d   1       1.216   1.277  -0.220  0.00  0.00    -0.335 N 
ATOM      5  HN  UNL d   1       1.215   2.293  -0.307  1.00  0.00     0.168 HD
ATOM      6  C   UNL d   1      -0.027  -0.801   0.048  0.00  0.00     0.059 A 
ATOM      7  C   UNL d   1       0.018   0.581  -0.082  0.00  0.00     0.049 A 
ATOM      8  O   UNL d   1       1.221  -2.746   0.275  0.00  0.00    -0.267 OA
ATOM      9  C   UNL d   1      -1.254  -1.472   0.120  0.00  0.00     0.019 A 
ATOM     10  C   UNL d   1      -1.178   1.303  -0.098  0.00  0.00     0.030 A 
ATOM     11  C   UNL d   1      -2.445  -0.746   0.073  0.00  0.00     0.001 A 
ATOM     12  C   UNL d   1      -2.407   0.644  -0.022  0.00  0.00     0.002 A 
ENDROOT
BRANCH   2  13
ATOM     13  S   UNL d   1       3.800   1.588  -0.392  0.00  0.00    -0.085 SA
BRANCH  13  14
ATOM     14  C   UNL d   1       3.081   3.236  -0.621  0.00  0.00     0.166 C 
BRANCH  14  15
ATOM     15  C   UNL d   1       4.085   4.283  -1.069  0.00  0.00     0.169 C 
ATOM     16  O   UNL d   1       5.273   4.058  -1.279  0.00  0.00    -0.291 OA
BRANCH  15  17
ATOM     17  C   UNL d   1       3.562   5.672  -1.301  0.00  0.00     0.011 A 
ATOM     18  C   UNL d   1       2.245   6.037  -0.982  0.00  0.00     0.018 A 
ATOM     19  C   UNL d   1       1.789   7.333  -1.245  0.00  0.00     0.043 A 
ATOM     20  C   UNL d   1       2.647   8.260  -1.823  0.00  0.00     0.116 A 
ATOM     21  C   UNL d   1       3.958   7.920  -2.135  0.00  0.00     0.043 A 
ATOM     22  F   UNL d   1       2.201   9.495  -2.084  0.00  0.00    -0.206 F 
ATOM     23  C   UNL d   1       4.418   6.627  -1.872  0.00  0.00     0.018 A 
ENDBRANCH  15  17
ENDBRANCH  14  15
ENDBRANCH  13  14
ENDBRANCH   2  13
BRANCH   1  24
ATOM     24  C   UNL d   1       3.670  -1.469  -0.038  0.00  0.00     0.046 A 
ATOM     25  C   UNL d   1       3.998  -2.248   1.083  0.00  0.00     0.055 A 
ATOM     26  C   UNL d   1       5.248  -2.869   1.179  0.00  0.00     0.058 A 
ATOM     27 CL   UNL d   1       5.594  -3.759   2.620  0.00  0.00    -0.082 Cl
ATOM     28  C   UNL d   1       6.176  -2.739   0.141  0.00  0.00     0.055 A 
ATOM     29  C   UNL d   1       5.834  -2.013  -1.003  0.00  0.00     0.028 A 
ATOM     30 CL   UNL d   1       7.754  -3.437   0.210  0.00  0.00    -0.083 Cl
ATOM     31  C   UNL d   1       4.587  -1.389  -1.095  0.00  0.00     0.032 A 
ENDBRANCH   1  24
TORSDOF 5
