REMARK  12 active torsions:
REMARK  status: ('A' for Active; 'I' for Inactive)
REMARK    1  A    between atoms: C_10  and  C_1 
REMARK    2  A    between atoms: C_11  and  C_2 
REMARK    3  A    between atoms: C_12  and  C_3 
REMARK    4  A    between atoms: C_7  and  S_14 
REMARK    5  A    between atoms: N_22  and  C_7 
REMARK    6  A    between atoms: C_8  and  S_15 
REMARK    7  A    between atoms: N_24  and  C_8 
REMARK    8  A    between atoms: C_9  and  S_13 
REMARK    9  A    between atoms: N_23  and  C_9 
REMARK   10  A    between atoms: S_14  and  C_10 
REMARK   11  A    between atoms: S_15  and  C_11 
REMARK   12  A    between atoms: S_13  and  C_12 
ROOT
ATOM      1  C   UNL d   1       1.157   0.897   0.008  0.00  0.00    -0.035 A 
ATOM      2  C   UNL d   1       0.451  -1.480   0.040  0.00  0.00    -0.035 A 
ATOM      3  C   UNL d   1      -1.264   0.328   0.015  0.00  0.00    -0.035 A 
ATOM      4  C   UNL d   1       1.485  -0.492   0.069  0.00  0.00    -0.047 A 
ATOM      5  C   UNL d   1      -0.215   1.299   0.019  0.00  0.00    -0.047 A 
ATOM      6  C   UNL d   1      -0.924  -1.060   0.071  0.00  0.00    -0.047 A 
ATOM      7  C   UNL d   1       2.945  -0.900   0.129  0.00  0.00     0.049 C 
ATOM      8  C   UNL d   1      -2.001  -2.128   0.148  0.00  0.00     0.049 C 
ATOM      9  C   UNL d   1      -0.532   2.784   0.061  0.00  0.00     0.049 C 
ENDROOT
BRANCH   1  10
ATOM     10  C   UNL d   1       2.264   1.962  -0.001  0.00  0.00     0.121 C 
BRANCH  10  11
ATOM     11  S   UNL d   1       3.372   1.917  -1.449  0.00  0.00    -0.096 SA
BRANCH  11  12
ATOM     12  C   UNL d   1       4.447   3.182  -0.952  0.00  0.00     0.110 C 
ATOM     13  N   UNL d   1       4.235   4.375  -1.370  0.00  0.00    -0.385 N 
ATOM     14  H   UNL d   1       3.403   4.338  -1.969  0.00  0.00     0.157 HD
ATOM     15  HN  UNL d   1       4.788   5.203  -1.148  1.00  0.00     0.157 HD
BRANCH  12  16
ATOM     16  N   UNL d   1       5.496   2.861  -0.160  0.00  0.00    -0.283 NA
ATOM     17  H   UNL d   1       5.871   1.938  -0.312  0.00  0.00     0.126 HD
ATOM     18  H   UNL d   1       6.201   3.589  -0.167  0.00  0.00     0.126 HD
ENDBRANCH  12  16
ENDBRANCH  11  12
ENDBRANCH  10  11
ENDBRANCH   1  10
BRANCH   2  19
ATOM     19  C   UNL d   1       0.787  -2.971  -0.158  0.00  0.00     0.121 C 
BRANCH  19  20
ATOM     20  S   UNL d   1       1.657  -3.783   1.210  0.00  0.00    -0.096 SA
BRANCH  20  21
ATOM     21  C   UNL d   1       1.691  -5.418   0.641  0.00  0.00     0.110 C 
ATOM     22  N   UNL d   1       2.309  -5.765  -0.427  0.00  0.00    -0.385 N 
ATOM     23  H   UNL d   1       2.748  -4.943  -0.849  0.00  0.00     0.157 HD
ATOM     24  HN  UNL d   1       2.355  -6.714  -0.798  1.00  0.00     0.157 HD
BRANCH  21  25
ATOM     25  N   UNL d   1       1.082  -6.306   1.449  0.00  0.00    -0.283 NA
ATOM     26  H   UNL d   1       1.077  -6.028   2.419  0.00  0.00     0.126 HD
ATOM     27  H   UNL d   1       1.420  -7.252   1.297  0.00  0.00     0.126 HD
ENDBRANCH  21  25
ENDBRANCH  20  21
ENDBRANCH  19  20
ENDBRANCH   2  19
BRANCH   3  28
ATOM     28  C   UNL d   1      -2.725   0.793  -0.007  0.00  0.00     0.121 C 
BRANCH  28  29
ATOM     29  S   UNL d   1      -3.235   1.598  -1.564  0.00  0.00    -0.096 SA
BRANCH  29  30
ATOM     30  C   UNL d   1      -4.850   2.030  -1.096  0.00  0.00     0.110 C 
ATOM     31  N   UNL d   1      -5.066   3.047  -0.346  0.00  0.00    -0.385 N 
ATOM     32  H   UNL d   1      -4.157   3.482  -0.131  0.00  0.00     0.157 HD
ATOM     33  HN  UNL d   1      -5.978   3.370  -0.020  1.00  0.00     0.157 HD
BRANCH  30  34
ATOM     34  N   UNL d   1      -5.846   1.273  -1.594  0.00  0.00    -0.283 NA
ATOM     35  H   UNL d   1      -5.648   0.868  -2.502  0.00  0.00     0.126 HD
ATOM     36  H   UNL d   1      -6.740   1.748  -1.548  0.00  0.00     0.126 HD
ENDBRANCH  30  34
ENDBRANCH  29  30
ENDBRANCH  28  29
ENDBRANCH   3  28
TORSDOF 12
