REMARK  5 active torsions:
REMARK  status: ('A' for Active; 'I' for Inactive)
REMARK    1  A    between atoms: N_2  and  C_1 
REMARK    2  A    between atoms: N_3  and  C_1 
REMARK    3  A    between atoms: C_7  and  N_2 
REMARK    4  A    between atoms: C_5  and  N_3 
REMARK    5  A    between atoms: S_9  and  C_8 
ROOT
ATOM      1  N   UNL d   1       0.151  -0.419   1.016  0.00  0.00    -0.333 N 
ATOM      2  H   UNL d   1       0.580  -0.341   1.932  0.00  0.00     0.168 HD
ENDROOT
BRANCH   1   3
ATOM      3  C   UNL d   1       0.944   0.015  -0.044  0.00  0.00     0.172 C 
ATOM      4  S   UNL d   1       0.411   1.029  -1.266  0.00  0.00    -0.041 SA
BRANCH   3   5
ATOM      5  N   UNL d   1       2.235  -0.485   0.105  0.00  0.00    -0.359 N 
ATOM      6  H   UNL d   1       2.303  -1.124   0.883  0.00  0.00     0.162 HD
BRANCH   5   7
ATOM      7  C   UNL d   1       3.236  -0.772  -0.960  0.00  0.00     0.021 C 
ATOM      8  C   UNL d   1       3.705   0.467  -1.741  0.00  0.00     0.037 C 
ATOM      9  C   UNL d   1       4.488  -1.367  -0.281  0.00  0.00     0.037 C 
ATOM     10  C   UNL d   1       2.668  -1.835  -1.917  0.00  0.00     0.037 C 
ENDBRANCH   5   7
ENDBRANCH   3   5
ENDBRANCH   1   3
BRANCH   1  11
ATOM     11  C   UNL d   1      -1.256  -0.604   1.001  0.00  0.00     0.035 A 
ATOM     12  C   UNL d   1      -1.932  -1.034  -0.146  0.00  0.00     0.048 A 
ATOM     13  C   UNL d   1      -3.324  -1.190  -0.153  0.00  0.00     0.002 A 
ATOM     14  C   UNL d   1      -4.028  -0.954   1.031  0.00  0.00     0.018 A 
ATOM     15  C   UNL d   1      -3.356  -0.576   2.195  0.00  0.00     0.004 A 
ATOM     16  C   UNL d   1      -1.968  -0.416   2.185  0.00  0.00     0.029 A 
BRANCH  13  17
ATOM     17  S   UNL d   1      -4.245  -1.747  -1.583  0.00  0.00    -0.134 SA
ATOM     18  C   UNL d   1      -3.293  -1.040  -2.959  0.00  0.00     0.095 C 
ENDBRANCH  13  17
ENDBRANCH   1  11
TORSDOF 5
