REMARK  4 active torsions:
REMARK  status: ('A' for Active; 'I' for Inactive)
REMARK    1  A    between atoms: C_6  and  C_1 
REMARK    2  A    between atoms: C_8  and  C_3 
REMARK       I    between atoms: N_7  and  C_6 
REMARK    3  A    between atoms: C_12  and  N_7 
REMARK    4  A    between atoms: C_18  and  C_12 
ROOT
ATOM      1  C   UNL d   1      -0.228  -1.255   0.004  0.00  0.00     0.064 A 
ATOM      2  C   UNL d   1      -1.531  -0.664   0.050  0.00  0.00     0.057 A 
ATOM      3  C   UNL d   1      -1.367   0.706   0.070  0.00  0.00     0.087 A 
ATOM      4  C   UNL d   1       0.648  -0.177  -0.017  0.00  0.00     0.065 A 
ATOM      5  O   UNL d   1      -0.040   1.000   0.009  0.00  0.00    -0.314 OA
ATOM      6  C   UNL d   1       2.121  -0.028  -0.041  0.00  0.00     0.077 C 
ENDROOT
BRANCH   1   7
ATOM      7  C   UNL d   1       0.162  -2.661  -0.013  0.00  0.00     0.254 C 
ATOM      8  N   UNL d   1      -0.877  -3.561   0.059  0.00  0.00    -0.353 N 
ATOM      9  H   UNL d   1      -1.828  -3.239   0.136  0.00  0.00     0.163 HD
ATOM     10  O   UNL d   1       1.334  -3.020  -0.085  0.00  0.00    -0.268 OA
BRANCH   8  11
ATOM     11  C   UNL d   1      -0.660  -4.989   0.001  0.00  0.00     0.161 C 
BRANCH  11  12
ATOM     12  C   UNL d   1      -1.217  -5.693   1.212  0.00  0.00    -0.041 A 
ATOM     13  C   UNL d   1      -2.178  -6.705   1.073  0.00  0.00     0.009 A 
ATOM     14  C   UNL d   1      -2.646  -7.398   2.192  0.00  0.00     0.001 A 
ATOM     15  C   UNL d   1      -2.159  -7.089   3.460  0.00  0.00     0.000 A 
ATOM     16  C   UNL d   1      -1.206  -6.083   3.612  0.00  0.00     0.001 A 
ATOM     17  C   UNL d   1      -0.736  -5.390   2.495  0.00  0.00     0.009 A 
ENDBRANCH  11  12
ENDBRANCH   8  11
ENDBRANCH   1   7
BRANCH   3  18
ATOM     18  C   UNL d   1      -2.275   1.841   0.187  0.00  0.00    -0.002 A 
ATOM     19  C   UNL d   1      -3.538   1.675   0.775  0.00  0.00     0.016 A 
ATOM     20  C   UNL d   1      -4.403   2.763   0.934  0.00  0.00     0.024 A 
ATOM     21  C   UNL d   1      -4.014   4.026   0.497  0.00  0.00     0.034 A 
ATOM     22  C   UNL d   1      -2.772   4.210  -0.103  0.00  0.00     0.024 A 
ATOM     23 CL   UNL d   1      -5.072   5.366   0.708  0.00  0.00    -0.084 Cl
ATOM     24  C   UNL d   1      -1.906   3.121  -0.255  0.00  0.00     0.016 A 
ENDBRANCH   3  18
TORSDOF 4
