REMARK  7 active torsions:
REMARK  status: ('A' for Active; 'I' for Inactive)
REMARK    1  A    between atoms: C_10  and  N_1 
REMARK    2  A    between atoms: S_11  and  C_2 
REMARK    3  A    between atoms: C_7  and  C_12 
REMARK    4  A    between atoms: C_8  and  C_13 
REMARK    5  A    between atoms: C_27  and  S_11 
REMARK    6  A    between atoms: C_14  and  C_27 
REMARK       I    between atoms: N_15  and  C_14 
REMARK    7  A    between atoms: C_30  and  N_15 
ROOT
ATOM      1  N   UNL d   1      -0.280   0.115  -1.416  0.00  0.00    -0.286 N 
ATOM      2  C   UNL d   1       0.983   0.165  -0.843  0.00  0.00     0.167 A 
ATOM      3  N   UNL d   1       1.193  -0.918  -0.124  0.00  0.00    -0.279 N 
ATOM      4  HN  UNL d   1       2.035  -1.122   0.415  1.00  0.00     0.189 HD
ATOM      5  N   UNL d   1       0.097  -1.722  -0.223  0.00  0.00    -0.294 N 
ATOM      6  HN  UNL d   1      -0.029  -2.630   0.223  1.00  0.00     0.187 HD
ATOM      7  C   UNL d   1      -0.764  -1.111  -0.999  0.00  0.00     0.207 A 
ENDROOT
BRANCH   2   8
ATOM      8  S   UNL d   1       2.231   1.352  -1.131  0.00  0.00    -0.083 SA
BRANCH   8   9
ATOM      9  C   UNL d   1       3.591   0.540  -0.242  0.00  0.00     0.185 C 
BRANCH   9  10
ATOM     10  C   UNL d   1       4.915   1.279  -0.189  0.00  0.00     0.231 C 
ATOM     11  N   UNL d   1       5.003   2.497  -0.838  0.00  0.00    -0.327 N 
ATOM     12  H   UNL d   1       4.133   2.902  -1.160  0.00  0.00     0.169 HD
ATOM     13  O   UNL d   1       5.836   0.759   0.444  0.00  0.00    -0.272 OA
BRANCH  11  14
ATOM     14  C   UNL d   1       6.175   3.280  -0.971  0.00  0.00     0.034 A 
ATOM     15  C   UNL d   1       7.457   2.783  -0.717  0.00  0.00     0.030 A 
ATOM     16  C   UNL d   1       8.587   3.599  -0.832  0.00  0.00     0.018 A 
ATOM     17  C   UNL d   1       8.462   4.939  -1.210  0.00  0.00     0.048 A 
ATOM     18  C   UNL d   1       7.179   5.434  -1.498  0.00  0.00     0.018 A 
ATOM     19  C   UNL d   1       6.049   4.609  -1.387  0.00  0.00     0.030 A 
BRANCH  17  20
ATOM     20  C   UNL d   1       9.677   5.829  -1.305  0.00  0.00     0.417 C 
ATOM     21  F   UNL d   1      10.841   5.204  -0.970  0.00  0.00    -0.166 F 
ATOM     22  F   UNL d   1       9.868   6.319  -2.562  0.00  0.00    -0.166 F 
ATOM     23  F   UNL d   1       9.592   6.916  -0.489  0.00  0.00    -0.166 F 
ENDBRANCH  17  20
ENDBRANCH  11  14
ENDBRANCH   9  10
ENDBRANCH   8   9
ENDBRANCH   2   8
BRANCH   1  24
ATOM     24  C   UNL d   1      -1.006   1.037  -2.223  0.00  0.00     0.042 A 
ATOM     25  C   UNL d   1      -2.045   0.567  -3.045  0.00  0.00     0.031 A 
ATOM     26  C   UNL d   1      -2.791   1.452  -3.828  0.00  0.00     0.018 A 
ATOM     27  C   UNL d   1      -2.526   2.827  -3.802  0.00  0.00     0.048 A 
ATOM     28  C   UNL d   1      -1.498   3.295  -2.972  0.00  0.00     0.018 A 
ATOM     29  C   UNL d   1      -0.746   2.411  -2.188  0.00  0.00     0.031 A 
BRANCH  27  30
ATOM     30  C   UNL d   1      -3.344   3.767  -4.653  0.00  0.00     0.417 C 
ATOM     31  F   UNL d   1      -2.986   5.074  -4.519  0.00  0.00    -0.166 F 
ATOM     32  F   UNL d   1      -3.242   3.485  -5.981  0.00  0.00    -0.166 F 
ATOM     33  F   UNL d   1      -4.672   3.711  -4.358  0.00  0.00    -0.166 F 
ENDBRANCH  27  30
ENDBRANCH   1  24
TORSDOF 7
