REMARK  6 active torsions:
REMARK  status: ('A' for Active; 'I' for Inactive)
REMARK    1  A    between atoms: N_2  and  S_1 
REMARK    2  A    between atoms: C_5  and  S_1 
REMARK    3  A    between atoms: N_10  and  C_4 
REMARK    4  A    between atoms: S_16  and  C_4 
REMARK    5  A    between atoms: C_6  and  C_9 
REMARK    6  A    between atoms: C_7  and  C_8 
ROOT
ATOM      1  C   UNL d   1      -0.697   0.456  -2.626  0.00  0.00     0.081 A 
ATOM      2  C   UNL d   1      -1.357  -1.877  -2.739  0.00  0.00     0.050 A 
ATOM      3  C   UNL d   1      -0.538  -0.722  -4.745  0.00  0.00     0.050 A 
ATOM      4  C   UNL d   1      -1.186  -0.697  -1.999  0.00  0.00     0.041 A 
ATOM      5  C   UNL d   1      -0.370   0.447  -3.989  0.00  0.00     0.041 A 
ATOM      6  C   UNL d   1      -1.024  -1.878  -4.107  0.00  0.00     0.032 A 
ENDROOT
BRANCH   1   7
ATOM      7  S   UNL d   1      -0.687   2.003  -1.714  0.00  0.00     0.264 S 
ATOM      8  O   UNL d   1      -0.101   2.978  -2.616  0.00  0.00    -0.200 OA
ATOM      9  O   UNL d   1      -2.050   2.139  -1.248  0.00  0.00    -0.200 OA
BRANCH   7  10
ATOM     10  N   UNL d   1       0.315   1.750  -0.466  0.00  0.00    -0.260 N 
ATOM     11  C   UNL d   1       0.507   2.641   0.465  0.00  0.00     0.151 C 
ATOM     12  HN  UNL d   1       0.813   0.861  -0.408  1.00  0.00     0.181 HD
BRANCH  11  13
ATOM     13  N   UNL d   1       1.329   2.375   1.560  0.00  0.00    -0.357 N 
ATOM     14  C   UNL d   1       2.045   1.091   1.708  0.00  0.00     0.151 C 
ATOM     15  C   UNL d   1       1.733   0.459   3.076  0.00  0.00     0.187 C 
ATOM     16  O   UNL d   1       2.041   1.356   4.154  0.00  0.00    -0.388 OA
ATOM     17  C   UNL d   1       1.277   2.564   4.024  0.00  0.00     0.187 C 
ATOM     18  C   UNL d   1       1.593   3.277   2.701  0.00  0.00     0.151 C 
ENDBRANCH  11  13
BRANCH  11  19
ATOM     19  S   UNL d   1      -0.286   4.228   0.450  0.00  0.00    -0.098 SA
ATOM     20  C   UNL d   1       0.929   5.173  -0.493  0.00  0.00     0.099 C 
ENDBRANCH  11  19
ENDBRANCH   7  10
ENDBRANCH   1   7
BRANCH   2  21
ATOM     21  C   UNL d   1      -1.925  -3.126  -2.104  0.00  0.00     0.417 C 
ATOM     22  F   UNL d   1      -2.250  -2.969  -0.792  0.00  0.00    -0.166 F 
ATOM     23  F   UNL d   1      -3.058  -3.553  -2.726  0.00  0.00    -0.166 F 
ATOM     24  F   UNL d   1      -1.053  -4.170  -2.153  0.00  0.00    -0.166 F 
ENDBRANCH   2  21
BRANCH   3  25
ATOM     25  C   UNL d   1      -0.250  -0.747  -6.231  0.00  0.00     0.417 C 
ATOM     26  F   UNL d   1       0.156   0.453  -6.728  0.00  0.00    -0.166 F 
ATOM     27  F   UNL d   1       0.726  -1.639  -6.553  0.00  0.00    -0.166 F 
ATOM     28  F   UNL d   1      -1.341  -1.106  -6.961  0.00  0.00    -0.166 F 
ENDBRANCH   3  25
TORSDOF 6
