REMARK  8 active torsions:
REMARK  status: ('A' for Active; 'I' for Inactive)
REMARK    1  A    between atoms: C_9  and  C_1 
REMARK    2  A    between atoms: C_11  and  N_4 
REMARK    3  A    between atoms: C_8  and  C_10 
REMARK    4  A    between atoms: C_13  and  C_11 
REMARK    5  A    between atoms: C_12  and  N_16 
REMARK    6  A    between atoms: N_15  and  C_12 
REMARK       I    between atoms: N_17  and  C_13 
REMARK    7  A    between atoms: C_14  and  N_15 
REMARK    8  A    between atoms: N_16  and  N_17 
ROOT
ATOM      1  C   UNL d   1       1.823   1.431   0.029  0.00  0.00     0.271 C 
ENDROOT
BRANCH   1   2
ATOM      2  N   UNL d   1       0.673   0.555   0.116  0.00  0.00    -0.207 N 
ATOM      3  N   UNL d   1       0.574  -0.584  -0.598  0.00  0.00    -0.268 N 
ATOM      4  C   UNL d   1      -0.708  -0.919  -0.356  0.00  0.00     0.145 C 
ATOM      5  HN  UNL d   1       1.276  -1.060  -1.164  1.00  0.00     0.190 HD
ATOM      6  N   UNL d   1      -1.381   0.072   0.309  0.00  0.00    -0.266 N 
ATOM      7  N   UNL d   1      -0.495   1.016   0.601  0.00  0.00    -0.002 NA
ATOM      8  HN  UNL d   1      -2.375   0.083   0.537  1.00  0.00     0.186 HD
BRANCH   4   9
ATOM      9  C   UNL d   1      -1.317  -2.149  -0.864  0.00  0.00     0.025 A 
ATOM     10  C   UNL d   1      -2.383  -2.840  -0.254  0.00  0.00     0.061 A 
ATOM     11  C   UNL d   1      -2.861  -4.024  -0.871  0.00  0.00     0.017 A 
ATOM     12  C   UNL d   1      -2.293  -4.530  -2.039  0.00  0.00     0.001 A 
ATOM     13  C   UNL d   1      -1.235  -3.857  -2.628  0.00  0.00     0.001 A 
ATOM     14  C   UNL d   1      -0.758  -2.682  -2.048  0.00  0.00     0.016 A 
BRANCH  10  15
ATOM     15  C   UNL d   1      -3.079  -2.454   1.032  0.00  0.00     0.418 C 
ATOM     16  F   UNL d   1      -2.483  -1.510   1.797  0.00  0.00    -0.166 F 
ATOM     17  F   UNL d   1      -4.353  -2.020   0.807  0.00  0.00    -0.166 F 
ATOM     18  F   UNL d   1      -3.216  -3.533   1.864  0.00  0.00    -0.166 F 
ENDBRANCH  10  15
ENDBRANCH   4   9
ENDBRANCH   1   2
BRANCH   1  19
ATOM     19  C   UNL d   1       3.136   0.688   0.017  0.00  0.00     0.257 C 
ATOM     20  N   UNL d   1       4.105   1.302  -0.768  0.00  0.00    -0.266 N 
ATOM     21  H   UNL d   1       3.885   2.058  -1.412  0.00  0.00     0.190 HD
ATOM     22  O   UNL d   1       3.369  -0.330   0.657  0.00  0.00    -0.270 OA
BRANCH  20  23
ATOM     23  N   UNL d   1       5.249   0.561  -1.087  0.00  0.00    -0.273 N 
ATOM     24  H   UNL d   1       5.201  -0.435  -0.859  0.00  0.00     0.189 HD
BRANCH  23  25
ATOM     25  C   UNL d   1       6.507   1.126  -1.154  0.00  0.00     0.191 C 
ATOM     26  S   UNL d   1       6.912   2.661  -0.643  0.00  0.00    -0.039 SA
BRANCH  25  27
ATOM     27  N   UNL d   1       7.477   0.305  -1.692  0.00  0.00    -0.332 N 
ATOM     28  H   UNL d   1       8.438   0.540  -1.449  0.00  0.00     0.168 HD
BRANCH  27  29
ATOM     29  C   UNL d   1       7.282  -0.680  -2.689  0.00  0.00     0.037 A 
ATOM     30  C   UNL d   1       6.171  -0.649  -3.545  0.00  0.00     0.053 A 
ATOM     31  C   UNL d   1       5.989  -1.643  -4.502  0.00  0.00     0.037 A 
ATOM     32 CL   UNL d   1       4.607  -1.588  -5.526  0.00  0.00    -0.084 Cl
ATOM     33  C   UNL d   1       6.913  -2.670  -4.633  0.00  0.00     0.048 A 
ATOM     34  C   UNL d   1       8.043  -2.671  -3.817  0.00  0.00     0.037 A 
ATOM     35  C   UNL d   1       8.245  -1.670  -2.861  0.00  0.00     0.053 A 
ATOM     36 CL   UNL d   1       9.198  -3.937  -3.979  0.00  0.00    -0.084 Cl
ENDBRANCH  27  29
ENDBRANCH  25  27
ENDBRANCH  23  25
ENDBRANCH  20  23
ENDBRANCH   1  19
TORSDOF 8
