REMARK  2 active torsions:
REMARK  status: ('A' for Active; 'I' for Inactive)
REMARK    1  A    between atoms: C_18  and  N_5 
REMARK    2  A    between atoms: C_14  and  C_9 
ROOT
ATOM      1  C   UNL d   1      -0.352  -1.347   0.145  0.00  0.00     0.123 A 
ATOM      2  C   UNL d   1      -0.658  -2.735   0.259  0.00  0.00     0.202 A 
ATOM      3  N   UNL d   1      -1.811  -3.257  -0.097  0.00  0.00    -0.316 N 
ATOM      4  HN  UNL d   1      -2.610  -2.790  -0.525  1.00  0.00     0.169 HD
ATOM      5  N   UNL d   1       0.914  -0.818   0.073  0.00  0.00    -0.287 N 
ATOM      6  N   UNL d   1       0.931   0.533   0.022  0.00  0.00    -0.301 N 
ATOM      7  HN  UNL d   1       1.745   1.146  -0.013  1.00  0.00     0.187 HD
ATOM      8  C   UNL d   1      -1.190  -0.254   0.087  0.00  0.00     0.067 A 
ATOM      9  C   UNL d   1      -1.683  -4.590   0.245  0.00  0.00     0.154 A 
ATOM     10  C   UNL d   1      -0.362   0.884   0.026  0.00  0.00     0.042 A 
ATOM     11  N   UNL d   1      -0.482  -4.891   0.766  0.00  0.00    -0.241 N 
ATOM     12  HN  UNL d   1      -0.143  -5.801   1.081  1.00  0.00     0.196 HD
ATOM     13  O   UNL d   1       0.192  -3.675   0.776  0.00  0.00    -0.215 OA
ATOM     14 BR   UNL d   1      -3.068  -0.217   0.124  0.00  0.00    -0.046 Br
ATOM     15  C   UNL d   1      -0.721   2.323  -0.022  0.00  0.00     0.071 C 
ENDROOT
BRANCH   5  16
ATOM     16  C   UNL d   1       2.188  -1.512  -0.029  0.00  0.00     0.145 C 
ATOM     17  C   UNL d   1       2.861  -1.696   1.319  0.00  0.00     0.028 C 
ENDBRANCH   5  16
BRANCH   9  18
ATOM     18  C   UNL d   1      -2.776  -5.545   0.050  0.00  0.00     0.078 A 
ATOM     19  N   UNL d   1      -2.643  -6.781   0.601  0.00  0.00    -0.363 N 
ATOM     20  C   UNL d   1      -3.668  -7.646   0.439  0.00  0.00     0.088 A 
ATOM     21  HN  UNL d   1      -1.803  -7.044   1.115  1.00  0.00     0.165 HD
ATOM     22  C   UNL d   1      -4.829  -7.346  -0.255  0.00  0.00     0.017 A 
ATOM     23  C   UNL d   1      -4.951  -6.083  -0.819  0.00  0.00     0.004 A 
ATOM     24  C   UNL d   1      -3.914  -5.167  -0.663  0.00  0.00     0.033 A 
ENDBRANCH   9  18
TORSDOF 2
