REMARK  3 active torsions:
REMARK  status: ('A' for Active; 'I' for Inactive)
REMARK    1  A    between atoms: C_7  and  C_1 
REMARK    2  A    between atoms: C_9  and  N_2 
REMARK    3  A    between atoms: O_11  and  C_7 
ROOT
ATOM      1  C   UNL d   1       2.343  -1.108  -0.201  0.00  0.00     0.104 A 
ATOM      2  N   UNL d   1       1.310   1.104   0.006  0.00  0.00    -0.350 N 
ATOM      3  C   UNL d   1       2.384   0.227  -0.085  0.00  0.00     0.114 A 
ATOM      4  C   UNL d   1       1.012  -1.730  -0.252  0.00  0.00     0.202 A 
ATOM      5  C   UNL d   1      -0.173  -0.846  -0.195  0.00  0.00     0.042 A 
ATOM      6  C   UNL d   1      -0.003   0.554  -0.093  0.00  0.00     0.049 A 
ATOM      7  O   UNL d   1       0.911  -2.952  -0.359  0.00  0.00    -0.286 OA
ATOM      8  C   UNL d   1      -1.444  -1.442  -0.241  0.00  0.00     0.018 A 
ATOM      9  C   UNL d   1      -1.181   1.323  -0.097  0.00  0.00     0.030 A 
ATOM     10  C   UNL d   1      -2.584  -0.649  -0.204  0.00  0.00     0.001 A 
ATOM     11  C   UNL d   1      -2.451   0.732  -0.143  0.00  0.00     0.002 A 
ENDROOT
BRANCH   2  12
ATOM     12  C   UNL d   1       1.448   2.551   0.383  0.00  0.00     0.089 C 
ATOM     13  C   UNL d   1       2.839   3.181   0.134  0.00  0.00     0.026 C 
ATOM     14  C   UNL d   1       3.897   2.954   1.224  0.00  0.00     0.002 C 
ATOM     15  C   UNL d   1       3.365   3.106   2.642  0.00  0.00     0.000 C 
ATOM     16  C   UNL d   1       2.064   2.346   2.850  0.00  0.00     0.002 C 
ATOM     17  C   UNL d   1       1.014   2.795   1.842  0.00  0.00     0.026 C 
ENDBRANCH   2  12
BRANCH   1  18
ATOM     18  C   UNL d   1       3.610  -1.868  -0.252  0.00  0.00     0.181 C 
ATOM     19  O   UNL d   1       4.711  -1.349  -0.143  0.00  0.00    -0.646 OA
BRANCH  18  20
ATOM     20  O   UNL d   1       3.459  -3.200  -0.426  0.00  0.00    -0.773 OA
ATOM     21  H   UNL d   1       2.515  -3.490  -0.472  0.00  0.00     0.167 HD
ENDBRANCH  18  20
ENDBRANCH   1  18
TORSDOF 3
