REMARK  3 active torsions:
REMARK  status: ('A' for Active; 'I' for Inactive)
REMARK    1  A    between atoms: C_8  and  C_4 
REMARK    2  A    between atoms: O_13  and  C_9 
REMARK    3  A    between atoms: O_14  and  C_12 
ROOT
ATOM      1  C   UNL d   1      -1.347   0.166   0.356  0.00  0.00     0.115 C 
ATOM      2  C   UNL d   1      -0.893   1.417   0.979  0.00  0.00     0.302 C 
ATOM      3  C   UNL d   1      -0.737  -1.112   0.747  0.00  0.00     0.302 C 
ATOM      4  C   UNL d   1      -2.312   0.116  -0.586  0.00  0.00     0.038 C 
ATOM      5  O   UNL d   1       0.349   1.371   1.500  0.00  0.00    -0.280 OA
ATOM      6  O   UNL d   1       0.446  -1.012   1.386  0.00  0.00    -0.280 OA
ATOM      7  C   UNL d   1       1.163   0.217   1.292  0.00  0.00     0.175 C 
ATOM      8  O   UNL d   1      -1.579   2.421   1.080  0.00  0.00    -0.259 OA
ATOM      9  O   UNL d   1      -1.252  -2.202   0.519  0.00  0.00    -0.259 OA
ATOM     10  C   UNL d   1       1.900   0.308  -0.047  0.00  0.00     0.080 C 
ATOM     11  C   UNL d   1       2.182   0.217   2.431  0.00  0.00     0.080 C 
ENDROOT
BRANCH   4  12
ATOM     12  C   UNL d   1      -3.029   1.258  -1.170  0.00  0.00     0.001 A 
ATOM     13  C   UNL d   1      -2.518   2.069  -2.209  0.00  0.00     0.111 A 
ATOM     14  C   UNL d   1      -3.285   3.159  -2.665  0.00  0.00     0.102 A 
ATOM     15  C   UNL d   1      -4.550   3.404  -2.114  0.00  0.00     0.040 A 
ATOM     16  C   UNL d   1      -5.049   2.605  -1.090  0.00  0.00     0.004 A 
ATOM     17  C   UNL d   1      -4.294   1.534  -0.625  0.00  0.00     0.014 A 
BRANCH  13  18
ATOM     18  O   UNL d   1      -1.263   1.892  -2.740  0.00  0.00    -0.352 OA
ATOM     19  C   UNL d   1      -0.979   0.589  -3.237  0.00  0.00     0.210 C 
ENDBRANCH  13  18
BRANCH  14  20
ATOM     20  O   UNL d   1      -2.975   4.024  -3.684  0.00  0.00    -0.353 OA
ATOM     21  C   UNL d   1      -1.609   4.388  -3.821  0.00  0.00     0.210 C 
ENDBRANCH  14  20
ENDBRANCH   4  12
TORSDOF 3
