REMARK  6 active torsions:
REMARK  status: ('A' for Active; 'I' for Inactive)
REMARK    1  A    between atoms: C_3  and  C_1 
REMARK    2  A    between atoms: C_12  and  C_2 
REMARK    3  A    between atoms: C_14  and  C_6 
REMARK    4  A    between atoms: C_16  and  C_9 
REMARK    5  A    between atoms: C_15  and  O_17 
REMARK    6  A    between atoms: O_17  and  C_27 
ROOT
ATOM      1  C   UNL d   1       2.383   1.525  -0.082  0.00  0.00     0.185 A 
ATOM      2  N   UNL d   1       2.380   2.814   0.171  0.00  0.00    -0.318 N 
ATOM      3  HN  UNL d   1       1.579   3.427   0.324  1.00  0.00     0.169 HD
ATOM      4  C   UNL d   1       3.718   3.138   0.179  0.00  0.00     0.138 A 
ATOM      5  N   UNL d   1       4.527   2.102  -0.097  0.00  0.00    -0.242 N 
ATOM      6  HN  UNL d   1       5.544   2.098  -0.171  1.00  0.00     0.196 HD
ATOM      7  O   UNL d   1       3.649   1.035  -0.259  0.00  0.00    -0.217 OA
ENDROOT
BRANCH   1   8
ATOM      8  C   UNL d   1       1.176   0.666  -0.111  0.00  0.00     0.059 A 
ATOM      9  C   UNL d   1      -0.143   1.064  -0.032  0.00  0.00     0.174 A 
ATOM     10  O   UNL d   1      -0.941  -0.056  -0.020  0.00  0.00    -0.304 OA
ATOM     11  C   UNL d   1      -0.132  -1.158  -0.091  0.00  0.00     0.089 A 
ATOM     12  C   UNL d   1       1.177  -0.750  -0.199  0.00  0.00     0.056 A 
BRANCH   9  13
ATOM     13  C   UNL d   1      -0.854   2.363   0.041  0.00  0.00     0.440 C 
ATOM     14  F   UNL d   1      -0.089   3.437  -0.276  0.00  0.00    -0.164 F 
ATOM     15  F   UNL d   1      -1.912   2.398  -0.818  0.00  0.00    -0.164 F 
ATOM     16  F   UNL d   1      -1.359   2.594   1.282  0.00  0.00    -0.164 F 
ENDBRANCH   9  13
BRANCH  11  17
ATOM     17  C   UNL d   1      -0.814  -2.453  -0.044  0.00  0.00     0.019 A 
ATOM     18  C   UNL d   1      -0.266  -3.595   0.572  0.00  0.00     0.047 A 
ATOM     19 CL   UNL d   1       1.241  -3.580   1.426  0.00  0.00    -0.083 Cl
ATOM     20  C   UNL d   1      -0.955  -4.816   0.555  0.00  0.00     0.025 A 
ATOM     21  C   UNL d   1      -2.198  -4.917  -0.065  0.00  0.00     0.002 A 
ATOM     22  C   UNL d   1      -2.764  -3.796  -0.661  0.00  0.00     0.001 A 
ATOM     23  C   UNL d   1      -2.079  -2.577  -0.649  0.00  0.00     0.016 A 
ENDBRANCH  11  17
ENDBRANCH   1   8
BRANCH   4  24
ATOM     24  C   UNL d   1       4.199   4.465   0.542  0.00  0.00     0.010 A 
ATOM     25  C   UNL d   1       3.295   5.510   0.790  0.00  0.00     0.018 A 
ATOM     26  C   UNL d   1       3.745   6.760   1.240  0.00  0.00     0.038 A 
ATOM     27  C   UNL d   1       5.105   6.969   1.465  0.00  0.00     0.078 A 
ATOM     28  C   UNL d   1       6.014   5.959   1.154  0.00  0.00     0.038 A 
ATOM     29  C   UNL d   1       5.567   4.715   0.702  0.00  0.00     0.018 A 
BRANCH  27  30
ATOM     30  O   UNL d   1       5.667   8.104   1.971  0.00  0.00    -0.255 OA
BRANCH  30  31
ATOM     31  C   UNL d   1       4.877   8.893   2.849  0.00  0.00     0.530 C 
ATOM     32  F   UNL d   1       3.991   8.164   3.561  0.00  0.00    -0.144 F 
ATOM     33  F   UNL d   1       5.701   9.509   3.726  0.00  0.00    -0.144 F 
ATOM     34  F   UNL d   1       4.216   9.840   2.150  0.00  0.00    -0.144 F 
ENDBRANCH  30  31
ENDBRANCH  27  30
ENDBRANCH   4  24
TORSDOF 6
