REMARK  2 active torsions:
REMARK  status: ('A' for Active; 'I' for Inactive)
REMARK    1  A    between atoms: N_7  and  C_3 
REMARK    2  A    between atoms: C_13  and  C_4 
ROOT
ATOM      1  C   UNL d   1       0.156  -0.546  -0.023  0.00  0.00     0.070 A 
ATOM      2  S   UNL d   1       1.861  -0.719   0.089  0.00  0.00    -0.084 SA
ATOM      3  C   UNL d   1      -0.850  -1.529   0.023  0.00  0.00     0.103 A 
ATOM      4  C   UNL d   1       2.148   0.967  -0.004  0.00  0.00     0.018 A 
ATOM      5  C   UNL d   1       0.950   1.649  -0.130  0.00  0.00     0.050 A 
ATOM      6  C   UNL d   1      -0.193   0.792  -0.136  0.00  0.00     0.054 A 
ATOM      7  N   UNL d   1      -2.132  -1.101  -0.030  0.00  0.00    -0.342 N 
ATOM      8  HN  UNL d   1      -2.904  -1.767   0.024  1.00  0.00     0.167 HD
ATOM      9  N   UNL d   1      -1.480   1.208  -0.222  0.00  0.00    -0.351 N 
ATOM     10  HN  UNL d   1      -1.743   2.188  -0.327  1.00  0.00     0.166 HD
ATOM     11  C   UNL d   1      -2.373   0.215  -0.157  0.00  0.00     0.182 A 
ENDROOT
BRANCH   3  12
ATOM     12  N   UNL d   1      -0.551  -2.877   0.222  0.00  0.00    -0.267 NA
ATOM     13  C   UNL d   1      -1.603  -3.662   0.883  0.00  0.00     0.107 C 
ATOM     14  C   UNL d   1      -0.982  -4.897   1.549  0.00  0.00     0.089 C 
ATOM     15  S   UNL d   1      -0.144  -6.006   0.357  0.00  0.00    -0.167 SA
ATOM     16  C   UNL d   1       0.869  -4.747  -0.503  0.00  0.00     0.089 C 
ATOM     17  C   UNL d   1       0.032  -3.545  -0.955  0.00  0.00     0.107 C 
ENDBRANCH   3  12
BRANCH   4  18
ATOM     18  C   UNL d   1       3.528   1.490   0.033  0.00  0.00    -0.019 A 
ATOM     19  C   UNL d   1       3.845   2.691  -0.623  0.00  0.00     0.013 A 
ATOM     20  C   UNL d   1       5.151   3.194  -0.612  0.00  0.00     0.001 A 
ATOM     21  C   UNL d   1       6.161   2.504   0.053  0.00  0.00     0.000 A 
ATOM     22  C   UNL d   1       5.867   1.315   0.713  0.00  0.00     0.001 A 
ATOM     23  C   UNL d   1       4.561   0.818   0.706  0.00  0.00     0.013 A 
ENDBRANCH   4  18
TORSDOF 2
