REMARK  6 active torsions:
REMARK  status: ('A' for Active; 'I' for Inactive)
REMARK    1  A    between atoms: C_8  and  C_1 
REMARK    2  A    between atoms: C_3  and  C_2 
REMARK       I    between atoms: C_6  and  N_13 
REMARK    3  A    between atoms: C_9  and  C_6 
REMARK    4  A    between atoms: N_14  and  C_7 
REMARK    5  A    between atoms: O_24  and  C_8 
REMARK    6  A    between atoms: N_13  and  N_14 
ROOT
ATOM      1  C   UNL d   1      -0.067  -1.435  -0.002  0.00  0.00     0.086 A 
ATOM      2  C   UNL d   1       1.137  -0.759   0.031  0.00  0.00     0.136 A 
ATOM      3  N   UNL d   1       1.171   0.605   0.163  0.00  0.00    -0.327 N 
ATOM      4  HN  UNL d   1       2.064   1.096   0.213  1.00  0.00     0.168 HD
ATOM      5  C   UNL d   1       0.018   1.286   0.225  0.00  0.00     0.176 A 
ATOM      6  N   UNL d   1      -1.185   0.699   0.138  0.00  0.00    -0.340 N 
ATOM      7  HN  UNL d   1      -2.047   1.243   0.156  1.00  0.00     0.167 HD
ATOM      8  C   UNL d   1      -1.200  -0.647   0.024  0.00  0.00     0.110 A 
ENDROOT
BRANCH   5   9
ATOM      9  N   UNL d   1       0.116   2.666   0.436  0.00  0.00    -0.172 NA
ATOM     10  H   UNL d   1       1.059   2.962   0.173  0.00  0.00     0.156 HD
BRANCH   9  11
ATOM     11  N   UNL d   1      -0.893   3.416  -0.201  0.00  0.00    -0.279 N 
ATOM     12  C   UNL d   1      -0.555   4.672  -0.670  0.00  0.00     0.289 C 
ATOM     13  O   UNL d   1       0.614   5.052  -0.724  0.00  0.00    -0.264 OA
ATOM     14  H   UNL d   1      -1.858   3.132  -0.041  0.00  0.00     0.184 HD
BRANCH  12  15
ATOM     15  C   UNL d   1      -1.682   5.491  -1.079  0.00  0.00     0.143 A 
ATOM     16  O   UNL d   1      -2.954   4.977  -1.030  0.00  0.00    -0.317 OA
ATOM     17  C   UNL d   1      -3.793   5.953  -1.466  0.00  0.00     0.143 A 
ATOM     18  C   UNL d   1      -3.090   7.090  -1.789  0.00  0.00     0.027 A 
ATOM     19  C   UNL d   1      -1.731   6.792  -1.538  0.00  0.00     0.045 A 
ENDBRANCH  12  15
ENDBRANCH   9  11
ENDBRANCH   5   9
BRANCH   2  20
ATOM     20  C   UNL d   1       2.480  -1.446  -0.118  0.00  0.00     0.433 C 
ATOM     21  F   UNL d   1       2.438  -2.754  -0.495  0.00  0.00    -0.165 F 
ATOM     22  F   UNL d   1       3.256  -0.847  -1.070  0.00  0.00    -0.165 F 
ATOM     23  F   UNL d   1       3.215  -1.412   1.030  0.00  0.00    -0.165 F 
ENDBRANCH   2  20
BRANCH   1  24
ATOM     24  C   UNL d   1      -0.256  -2.884  -0.086  0.00  0.00     0.296 C 
ATOM     25  O   UNL d   1      -1.071  -3.402  -0.828  0.00  0.00    -0.259 OA
BRANCH  24  26
ATOM     26  O   UNL d   1       0.508  -3.497   0.845  0.00  0.00    -0.322 OA
ATOM     27  C   UNL d   1       0.415  -4.926   0.830  0.00  0.00     0.213 C 
ENDBRANCH  24  26
ENDBRANCH   1  24
TORSDOF 6
