REMARK  5 active torsions:
REMARK  status: ('A' for Active; 'I' for Inactive)
REMARK    1  A    between atoms: C_2  and  N_1 
REMARK    2  A    between atoms: N_5  and  C_2 
REMARK    3  A    between atoms: C_8  and  N_5 
REMARK    4  A    between atoms: O_20  and  C_10 
REMARK    5  A    between atoms: O_22  and  C_13 
ROOT
ATOM      1  N   UNL d   1      -2.536   0.735  -0.067  0.00  0.00    -0.349 N 
ATOM      2  C   UNL d   1      -0.073   0.601   0.297  0.00  0.00    -0.026 A 
ATOM      3  C   UNL d   1      -1.338   1.428   0.443  0.00  0.00     0.116 C 
ATOM      4  C   UNL d   1      -0.113  -0.781   0.057  0.00  0.00    -0.045 A 
ATOM      5  C   UNL d   1       1.169   1.239   0.445  0.00  0.00     0.049 A 
ATOM      6  C   UNL d   1      -2.639  -0.673   0.344  0.00  0.00     0.130 C 
ATOM      7  C   UNL d   1       2.364   0.523   0.365  0.00  0.00     0.102 A 
ATOM      8  C   UNL d   1       1.092  -1.496  -0.064  0.00  0.00     0.047 A 
ATOM      9  C   UNL d   1       2.329  -0.856   0.088  0.00  0.00     0.102 A 
ATOM     10  C   UNL d   1      -1.434  -1.487  -0.151  0.00  0.00     0.059 C 
ATOM     11  C   UNL d   1      -1.524   1.817   1.920  0.00  0.00     0.037 C 
ENDROOT
BRANCH   1  12
ATOM     12  C   UNL d   1      -3.132   1.082  -1.276  0.00  0.00     0.175 C 
ATOM     13  S   UNL d   1      -2.317   1.515  -2.672  0.00  0.00    -0.041 SA
BRANCH  12  14
ATOM     14  N   UNL d   1      -4.498   0.941  -1.342  0.00  0.00    -0.332 N 
ATOM     15  H   UNL d   1      -4.877   0.804  -2.275  0.00  0.00     0.168 HD
BRANCH  14  16
ATOM     16  C   UNL d   1      -5.447   1.080  -0.299  0.00  0.00     0.057 A 
ATOM     17  C   UNL d   1      -5.157   1.820   0.854  0.00  0.00     0.055 A 
ATOM     18  C   UNL d   1      -6.092   1.929   1.883  0.00  0.00     0.036 A 
ATOM     19 CL   UNL d   1      -5.705   2.837   3.292  0.00  0.00    -0.084 Cl
ATOM     20  C   UNL d   1      -7.336   1.319   1.770  0.00  0.00     0.026 A 
ATOM     21  C   UNL d   1      -7.661   0.628   0.602  0.00  0.00     0.028 A 
ATOM     22  C   UNL d   1      -6.728   0.527  -0.438  0.00  0.00     0.060 A 
ATOM     23 CL   UNL d   1      -7.182  -0.330  -1.866  0.00  0.00    -0.082 Cl
ENDBRANCH  14  16
ENDBRANCH  12  14
ENDBRANCH   1  12
BRANCH   7  24
ATOM     24  O   UNL d   1       3.602   1.101   0.506  0.00  0.00    -0.353 OA
ATOM     25  C   UNL d   1       3.649   2.309   1.262  0.00  0.00     0.210 C 
ENDBRANCH   7  24
BRANCH   9  26
ATOM     26  O   UNL d   1       3.550  -1.479   0.006  0.00  0.00    -0.353 OA
ATOM     27  C   UNL d   1       3.568  -2.844  -0.383  0.00  0.00     0.210 C 
ENDBRANCH   9  26
TORSDOF 5
