REMARK  3 active torsions:
REMARK  status: ('A' for Active; 'I' for Inactive)
REMARK    1  A    between atoms: C_4  and  N_1 
REMARK    2  A    between atoms: S_7  and  C_5 
REMARK    3  A    between atoms: C_15  and  S_7 
ROOT
ATOM      1  N   UNL d   1       0.017   0.868  -0.067  0.00  0.00    -0.251 N 
ATOM      2  C   UNL d   1      -1.116   0.114   0.130  0.00  0.00     0.232 A 
ATOM      3  C   UNL d   1       1.135   0.069  -0.174  0.00  0.00     0.245 A 
ATOM      4  C   UNL d   1       0.715  -1.381  -0.191  0.00  0.00     0.154 A 
ATOM      5  C   UNL d   1      -0.779  -1.343   0.048  0.00  0.00     0.129 A 
ATOM      6  O   UNL d   1      -2.265   0.488   0.324  0.00  0.00    -0.273 OA
ATOM      7  O   UNL d   1       2.310   0.418  -0.187  0.00  0.00    -0.271 OA
ENDROOT
BRANCH   1   8
ATOM      8  C   UNL d   1       0.041   2.296  -0.129  0.00  0.00     0.048 A 
ATOM      9  C   UNL d   1      -0.994   3.077   0.409  0.00  0.00     0.054 A 
ATOM     10  C   UNL d   1      -0.976   4.472   0.303  0.00  0.00     0.037 A 
ATOM     11 CL   UNL d   1      -2.258   5.394   0.990  0.00  0.00    -0.084 Cl
ATOM     12  C   UNL d   1       0.061   5.124  -0.348  0.00  0.00     0.048 A 
ATOM     13  C   UNL d   1       1.093   4.367  -0.885  0.00  0.00     0.037 A 
ATOM     14  C   UNL d   1       1.094   2.972  -0.772  0.00  0.00     0.054 A 
ATOM     15 CL   UNL d   1       2.376   5.153  -1.722  0.00  0.00    -0.084 Cl
ENDBRANCH   1   8
BRANCH   4  16
ATOM     16  S   UNL d   1       1.175  -2.115  -1.804  0.00  0.00    -0.115 SA
BRANCH  16  17
ATOM     17  C   UNL d   1       0.581  -3.781  -1.590  0.00  0.00     0.001 A 
ATOM     18  C   UNL d   1      -0.311  -4.301  -2.534  0.00  0.00     0.020 A 
ATOM     19  C   UNL d   1      -0.825  -5.592  -2.386  0.00  0.00     0.025 A 
ATOM     20  C   UNL d   1      -0.437  -6.369  -1.298  0.00  0.00     0.034 A 
ATOM     21  C   UNL d   1       0.471  -5.871  -0.365  0.00  0.00     0.025 A 
ATOM     22 CL   UNL d   1      -1.081  -7.952  -1.104  0.00  0.00    -0.084 Cl
ATOM     23  C   UNL d   1       0.985  -4.580  -0.514  0.00  0.00     0.020 A 
ENDBRANCH  16  17
ENDBRANCH   4  16
TORSDOF 3
