REMARK  6 active torsions:
REMARK  status: ('A' for Active; 'I' for Inactive)
REMARK    1  A    between atoms: C_2  and  N_1 
REMARK    2  A    between atoms: C_3  and  C_5 
REMARK    3  A    between atoms: N_14  and  C_6 
REMARK    4  A    between atoms: C_16  and  N_14 
REMARK    5  A    between atoms: O_15  and  C_17 
REMARK    6  A    between atoms: C_17  and  C_16 
ROOT
ATOM      1  C   UNL d   1       0.216   0.222  -1.251  0.00  0.00     0.130 A 
ATOM      2  C   UNL d   1       0.613  -0.478  -2.410  0.00  0.00     0.054 A 
ATOM      3  C   UNL d   1      -0.062  -0.268  -3.617  0.00  0.00     0.050 A 
ATOM      4  C   UNL d   1      -0.853   1.139  -1.234  0.00  0.00     0.061 A 
ATOM      5  C   UNL d   1      -1.123   0.641  -3.631  0.00  0.00     0.018 A 
ATOM      6  C   UNL d   1      -1.492   1.338  -2.472  0.00  0.00     0.032 A 
ENDROOT
BRANCH   4   7
ATOM      7  N   UNL d   1      -1.194   1.899  -0.108  0.00  0.00    -0.386 N 
ATOM      8  H   UNL d   1      -1.174   1.391   0.778  0.00  0.00     0.159 HD
BRANCH   7   9
ATOM      9  C   UNL d   1      -2.313   2.848  -0.168  0.00  0.00     0.146 C 
BRANCH   9  10
ATOM     10  C   UNL d   1      -2.548   3.517   1.188  0.00  0.00     0.183 C 
BRANCH  10  11
ATOM     11  O   UNL d   1      -2.976   2.544   2.139  0.00  0.00    -0.399 OA
ATOM     12  H   UNL d   1      -3.209   3.028   2.951  0.00  0.00     0.209 HD
ENDBRANCH  10  11
ENDBRANCH   9  10
ENDBRANCH   7   9
ENDBRANCH   4   7
BRANCH   1  13
ATOM     13  N   UNL d   1       0.970  -0.063  -0.042  0.00  0.00    -0.113 N 
ATOM     14  O   UNL d   1       0.923  -1.226   0.381  0.00  0.00    -0.532 OA
ATOM     15  O   UNL d   1       1.643   0.853   0.450  0.00  0.00    -0.532 OA
ENDBRANCH   1  13
BRANCH   3  16
ATOM     16  C   UNL d   1       0.325  -0.984  -4.887  0.00  0.00     0.417 C 
ATOM     17  F   UNL d   1       1.408  -1.794  -4.747  0.00  0.00    -0.166 F 
ATOM     18  F   UNL d   1      -0.677  -1.770  -5.365  0.00  0.00    -0.166 F 
ATOM     19  F   UNL d   1       0.632  -0.118  -5.893  0.00  0.00    -0.166 F 
ENDBRANCH   3  16
TORSDOF 6
