REMARK  6 active torsions:
REMARK  status: ('A' for Active; 'I' for Inactive)
REMARK    1  A    between atoms: C_6  and  C_1 
REMARK    2  A    between atoms: C_3  and  C_2 
REMARK       I    between atoms: N_10  and  C_3 
REMARK    3  A    between atoms: C_7  and  N_12 
REMARK    4  A    between atoms: C_13  and  C_8 
REMARK    5  A    between atoms: C_16  and  N_10 
REMARK    6  A    between atoms: N_12  and  N_17 
REMARK       I    between atoms: N_17  and  C_13 
ROOT
ATOM      1  C   UNL d   1      -2.141  -2.759  -1.499  0.00  0.00     0.060 A 
ATOM      2  C   UNL d   1      -1.527  -3.644  -0.595  0.00  0.00     0.050 A 
ATOM      3  C   UNL d   1      -3.501  -2.910  -1.810  0.00  0.00     0.019 A 
ATOM      4  C   UNL d   1      -2.278  -4.681  -0.029  0.00  0.00     0.030 A 
ATOM      5  C   UNL d   1      -4.247  -3.930  -1.218  0.00  0.00     0.001 A 
ATOM      6  C   UNL d   1      -3.636  -4.814  -0.330  0.00  0.00     0.002 A 
ENDROOT
BRANCH   2   7
ATOM      7  N   UNL d   1      -0.200  -3.439  -0.137  0.00  0.00    -0.322 N 
ATOM      8  C   UNL d   1       0.753  -4.444  -0.132  0.00  0.00     0.261 C 
ATOM      9  O   UNL d   1       0.661  -5.422  -0.858  0.00  0.00    -0.267 OA
ATOM     10  H   UNL d   1       0.176  -2.499  -0.209  0.00  0.00     0.169 HD
BRANCH   8  11
ATOM     11  C   UNL d   1       1.899  -4.191   0.733  0.00  0.00     0.093 A 
ATOM     12  C   UNL d   1       3.220  -4.772   0.708  0.00  0.00     0.086 A 
ATOM     13  N   UNL d   1       3.946  -4.312   1.742  0.00  0.00    -0.259 N 
ATOM     14  O   UNL d   1       3.155  -3.429   2.423  0.00  0.00    -0.241 OA
ATOM     15  HN  UNL d   1       4.904  -4.572   1.974  1.00  0.00     0.195 HD
ATOM     16  C   UNL d   1       1.930  -3.363   1.849  0.00  0.00     0.090 A 
ATOM     17  C   UNL d   1       0.980  -2.476   2.550  0.00  0.00     0.080 C 
BRANCH  12  18
ATOM     18  C   UNL d   1       3.844  -5.705  -0.233  0.00  0.00     0.037 A 
ATOM     19  C   UNL d   1       5.022  -5.345  -0.927  0.00  0.00     0.048 A 
ATOM     20 CL   UNL d   1       5.784  -3.793  -0.764  0.00  0.00    -0.083 Cl
ATOM     21  C   UNL d   1       5.649  -6.239  -1.808  0.00  0.00     0.025 A 
ATOM     22  C   UNL d   1       5.093  -7.489  -2.051  0.00  0.00     0.003 A 
ATOM     23  C   UNL d   1       3.941  -7.868  -1.368  0.00  0.00     0.025 A 
ATOM     24  C   UNL d   1       3.347  -7.006  -0.432  0.00  0.00     0.048 A 
ATOM     25 CL   UNL d   1       2.073  -7.684   0.529  0.00  0.00    -0.083 Cl
ENDBRANCH  12  18
ENDBRANCH   8  11
ENDBRANCH   2   7
BRANCH   1  26
ATOM     26  C   UNL d   1      -1.373  -1.712  -2.228  0.00  0.00     0.268 C 
ATOM     27  N   UNL d   1      -0.065  -2.076  -2.525  0.00  0.00    -0.282 N 
ATOM     28  H   UNL d   1       0.133  -3.078  -2.541  0.00  0.00     0.184 HD
ATOM     29  O   UNL d   1      -1.895  -0.647  -2.532  0.00  0.00    -0.266 OA
BRANCH  27  30
ATOM     30  N   UNL d   1       0.616  -1.311  -3.482  0.00  0.00    -0.200 NA
ATOM     31  H   UNL d   1       0.827  -0.369  -3.135  0.00  0.00     0.153 HD
BRANCH  30  32
ATOM     32  C   UNL d   1       1.752  -1.948  -4.061  0.00  0.00     0.071 A 
ATOM     33  C   UNL d   1       1.741  -3.273  -4.555  0.00  0.00     0.060 A 
ATOM     34  C   UNL d   1       2.858  -3.821  -5.193  0.00  0.00     0.049 A 
ATOM     35 CL   UNL d   1       0.350  -4.304  -4.449  0.00  0.00    -0.082 Cl
ATOM     36  C   UNL d   1       4.002  -3.053  -5.370  0.00  0.00     0.037 A 
ATOM     37  C   UNL d   1       4.050  -1.744  -4.907  0.00  0.00     0.049 A 
ATOM     38 CL   UNL d   1       5.359  -3.725  -6.185  0.00  0.00    -0.084 Cl
ATOM     39  C   UNL d   1       2.933  -1.199  -4.266  0.00  0.00     0.060 A 
ATOM     40 CL   UNL d   1       3.049   0.435  -3.702  0.00  0.00    -0.082 Cl
ENDBRANCH  30  32
ENDBRANCH  27  30
ENDBRANCH   1  26
TORSDOF 6
