REMARK  3 active torsions:
REMARK  status: ('A' for Active; 'I' for Inactive)
REMARK    1  A    between atoms: C_7  and  N_1 
REMARK    2  A    between atoms: N_6  and  C_4 
REMARK    3  A    between atoms: O_18  and  C_13 
ROOT
ATOM      1  N   UNL d   1       0.133   0.833   0.102  0.00  0.00    -0.251 N 
ATOM      2  C   UNL d   1      -0.950   0.061   0.479  0.00  0.00     0.265 C 
ATOM      3  C   UNL d   1       1.223   0.033  -0.179  0.00  0.00     0.233 C 
ATOM      4  C   UNL d   1      -0.652  -1.383   0.137  0.00  0.00     0.323 C 
ATOM      5  C   UNL d   1       0.865  -1.399   0.073  0.00  0.00     0.149 C 
ATOM      6  O   UNL d   1      -2.010   0.416   0.978  0.00  0.00    -0.270 OA
ATOM      7  O   UNL d   1       2.360   0.359  -0.505  0.00  0.00    -0.273 OA
ENDROOT
BRANCH   1   8
ATOM      8  C   UNL d   1       0.137   2.258   0.027  0.00  0.00     0.045 A 
ATOM      9  C   UNL d   1      -0.815   3.039   0.701  0.00  0.00     0.033 A 
ATOM     10  C   UNL d   1      -0.817   4.442   0.610  0.00  0.00     0.039 A 
ATOM     11  C   UNL d   1       0.126   5.095  -0.175  0.00  0.00     0.068 A 
ATOM     12  C   UNL d   1       1.078   4.338  -0.849  0.00  0.00     0.039 A 
ATOM     13  C   UNL d   1       1.081   2.940  -0.753  0.00  0.00     0.033 A 
BRANCH  11  14
ATOM     14  O   UNL d   1       0.244   6.447  -0.323  0.00  0.00    -0.356 OA
ATOM     15  C   UNL d   1      -0.949   7.202  -0.142  0.00  0.00     0.210 C 
ENDBRANCH  11  14
ENDBRANCH   1   8
BRANCH   4  16
ATOM     16  N   UNL d   1      -1.298  -1.891  -1.095  0.00  0.00     0.106 N 
ATOM     17  C   UNL d   1      -0.981  -1.235  -2.377  0.00  0.00     0.299 C 
ATOM     18  C   UNL d   1      -1.881  -0.039  -2.724  0.00  0.00     0.198 C 
ATOM     19  O   UNL d   1      -3.259  -0.423  -2.715  0.00  0.00    -0.388 OA
ATOM     20  C   UNL d   1      -3.636  -0.917  -1.424  0.00  0.00     0.198 C 
ATOM     21  C   UNL d   1      -2.755  -2.103  -0.987  0.00  0.00     0.299 C 
ENDBRANCH   4  16
TORSDOF 3
