REMARK  3 active torsions:
REMARK  status: ('A' for Active; 'I' for Inactive)
REMARK    1  A    between atoms: C_7  and  C_3 
REMARK    2  A    between atoms: N_18  and  C_4 
REMARK    3  A    between atoms: C_9  and  C_6 
ROOT
ATOM      1  C   UNL d   1      -0.446   1.371  -0.076  0.00  0.00     0.066 A 
ATOM      2  C   UNL d   1      -0.855  -1.118  -0.075  0.00  0.00     0.081 A 
ATOM      3  C   UNL d   1       0.879   1.109  -0.028  0.00  0.00     0.077 A 
ATOM      4  C   UNL d   1       0.480  -1.284  -0.028  0.00  0.00     0.138 A 
ATOM      5  O   UNL d   1       1.344  -0.201   0.043  0.00  0.00    -0.300 OA
ATOM      6  C   UNL d   1      -1.486   0.264  -0.035  0.00  0.00     0.119 A 
ATOM      7  C   UNL d   1      -0.898   2.723  -0.186  0.00  0.00     0.099 C 
ATOM      8  C   UNL d   1      -1.721  -2.253  -0.157  0.00  0.00     0.100 C 
ATOM      9  N   UNL d   1      -1.250   3.822  -0.296  0.00  0.00    -0.192 NA
ATOM     10  N   UNL d   1      -2.405  -3.183  -0.258  0.00  0.00    -0.191 NA
ENDROOT
BRANCH   3  11
ATOM     11  C   UNL d   1       1.923   2.159  -0.081  0.00  0.00     0.044 A 
ATOM     12  C   UNL d   1       3.218   2.007   0.675  0.00  0.00     0.012 A 
ATOM     13  C   UNL d   1       2.184   2.978   1.160  0.00  0.00     0.012 A 
ENDBRANCH   3  11
BRANCH   6  14
ATOM     14  C   UNL d   1      -2.582   0.450  -1.082  0.00  0.00    -0.003 A 
ATOM     15  S   UNL d   1      -4.189   0.790  -0.581  0.00  0.00    -0.105 SA
ATOM     16  C   UNL d   1      -4.742   0.872  -2.193  0.00  0.00     0.050 A 
ATOM     17  C   UNL d   1      -3.733   0.639  -3.100  0.00  0.00     0.008 A 
ATOM     18  C   UNL d   1      -2.483   0.395  -2.460  0.00  0.00     0.016 A 
ENDBRANCH   6  14
BRANCH   4  19
ATOM     19  N   UNL d   1       1.141  -2.490  -0.043  0.00  0.00    -0.282 NA
ATOM     20  H   UNL d   1       0.645  -3.267  -0.473  0.00  0.00     0.126 HD
ATOM     21  H   UNL d   1       2.104  -2.402  -0.360  0.00  0.00     0.126 HD
ENDBRANCH   4  19
TORSDOF 3
