REMARK  6 active torsions:
REMARK  status: ('A' for Active; 'I' for Inactive)
REMARK       I    between atoms: N_2  and  C_1 
REMARK    1  A    between atoms: C_3  and  C_1 
REMARK    2  A    between atoms: C_7  and  N_2 
REMARK    3  A    between atoms: C_4  and  C_7 
REMARK    4  A    between atoms: O_12  and  C_4 
REMARK    5  A    between atoms: S_11  and  C_10 
REMARK    6  A    between atoms: C_15  and  S_11 
ROOT
ATOM      1  C   UNL d   1       0.226   0.148  -1.339  0.00  0.00     0.032 A 
ATOM      2  C   UNL d   1       0.609  -0.577  -2.474  0.00  0.00     0.018 A 
ATOM      3  C   UNL d   1      -0.924   0.944  -1.390  0.00  0.00     0.018 A 
ATOM      4  C   UNL d   1      -1.268   0.339  -3.718  0.00  0.00     0.000 A 
ATOM      5  C   UNL d   1      -0.137  -0.482  -3.655  0.00  0.00     0.019 A 
ATOM      6  C   UNL d   1      -1.666   1.038  -2.574  0.00  0.00     0.019 A 
ENDROOT
BRANCH   1   7
ATOM      7  C   UNL d   1       0.992   0.073  -0.062  0.00  0.00     0.252 C 
ATOM      8  N   UNL d   1       2.336  -0.187  -0.177  0.00  0.00    -0.347 N 
ATOM      9  H   UNL d   1       2.793  -0.186  -1.084  0.00  0.00     0.163 HD
ATOM     10  O   UNL d   1       0.443   0.269   1.016  0.00  0.00    -0.268 OA
BRANCH   8  11
ATOM     11  C   UNL d   1       3.199  -0.262   0.986  0.00  0.00     0.232 C 
BRANCH  11  12
ATOM     12  C   UNL d   1       4.632  -0.533   0.547  0.00  0.00     0.158 C 
ATOM     13  O   UNL d   1       4.978  -0.655  -0.620  0.00  0.00    -0.649 OA
BRANCH  12  14
ATOM     14  O   UNL d   1       5.506  -0.619   1.576  0.00  0.00    -0.775 OA
ATOM     15  H   UNL d   1       5.102  -0.497   2.457  0.00  0.00     0.167 HD
ENDBRANCH  12  14
ENDBRANCH  11  12
ENDBRANCH   8  11
ENDBRANCH   1   7
BRANCH   4  16
ATOM     16  S   UNL d   1      -2.220   0.396  -5.226  0.00  0.00    -0.130 SA
BRANCH  16  17
ATOM     17  C   UNL d   1      -2.172   2.184  -5.585  0.00  0.00     0.075 C 
ATOM     18  C   UNL d   1      -2.990   2.484  -6.830  0.00  0.00     0.016 C 
ENDBRANCH  16  17
ENDBRANCH   4  16
TORSDOF 6
