REMARK  16 active torsions:
REMARK  status: ('A' for Active; 'I' for Inactive)
REMARK    1  A    between atoms: N_14  and  C_1 
REMARK    2  A    between atoms: C_2  and  N_15 
REMARK    3  A    between atoms: S_28  and  C_4 
REMARK    4  A    between atoms: C_5  and  S_29 
REMARK       I    between atoms: C_22  and  N_14 
REMARK       I    between atoms: N_15  and  C_23 
REMARK    5  A    between atoms: C_20  and  C_16 
REMARK    6  A    between atoms: C_21  and  C_17 
REMARK    7  A    between atoms: C_26  and  C_20 
REMARK    8  A    between atoms: C_27  and  C_21 
REMARK    9  A    between atoms: C_35  and  C_22 
REMARK   10  A    between atoms: C_23  and  C_34 
REMARK   11  A    between atoms: O_37  and  C_26 
REMARK   12  A    between atoms: O_36  and  C_27 
REMARK   13  A    between atoms: C_34  and  S_28 
REMARK   14  A    between atoms: S_29  and  C_35 
REMARK   15  A    between atoms: C_39  and  O_36 
REMARK   16  A    between atoms: C_38  and  O_37 
ROOT
ATOM      1  S   UNL d   1       3.758  -8.430   0.322  0.00  0.00    -0.038 SA
ATOM      2  C   UNL d   1       2.646  -9.719   0.463  0.00  0.00     0.129 A 
ATOM      3  C   UNL d   1       2.432  -7.453  -0.156  0.00  0.00     0.129 A 
ATOM      4  N   UNL d   1       1.293  -8.102  -0.264  0.00  0.00    -0.287 N 
ATOM      5  HN  UNL d   1       0.421  -7.675  -0.577  1.00  0.00     0.188 HD
ATOM      6  N   UNL d   1       1.418  -9.426   0.096  0.00  0.00    -0.287 N 
ATOM      7  HN  UNL d   1       0.651 -10.098   0.080  1.00  0.00     0.188 HD
ENDROOT
BRANCH   2   8
ATOM      8  S   UNL d   1       2.970 -11.271   1.187  0.00  0.00    -0.094 SA
BRANCH   8   9
ATOM      9  C   UNL d   1       3.401 -10.786   2.874  0.00  0.00     0.184 C 
BRANCH   9  10
ATOM     10  C   UNL d   1       2.320 -10.143   3.733  0.00  0.00     0.233 C 
ATOM     11  N   UNL d   1       1.116  -9.859   3.141  0.00  0.00    -0.306 N 
ATOM     12  H   UNL d   1       0.940 -10.008   2.154  0.00  0.00     0.171 HD
ATOM     13  O   UNL d   1       2.611  -9.885   4.902  0.00  0.00    -0.272 OA
BRANCH  11  14
ATOM     14  C   UNL d   1       0.070  -9.335   3.846  0.00  0.00     0.151 A 
ATOM     15  N   UNL d   1      -0.040  -9.166   5.134  0.00  0.00    -0.339 N 
ATOM     16  C   UNL d   1      -1.309  -8.710   5.438  0.00  0.00     0.027 A 
ATOM     17  HN  UNL d   1       0.699  -9.343   5.814  1.00  0.00     0.168 HD
ATOM     18  C   UNL d   1      -2.100  -8.438   4.334  0.00  0.00     0.078 A 
ATOM     19  S   UNL d   1      -1.272  -8.880   2.898  0.00  0.00    -0.064 SA
BRANCH  16  20
ATOM     20  C   UNL d   1      -1.672  -8.570   6.877  0.00  0.00     0.168 C 
BRANCH  20  21
ATOM     21  C   UNL d   1      -2.882  -9.397   7.239  0.00  0.00     0.264 C 
ATOM     22  O   UNL d   1      -3.555 -10.074   6.472  0.00  0.00    -0.265 OA
BRANCH  21  23
ATOM     23  O   UNL d   1      -3.193  -9.177   8.551  0.00  0.00    -0.322 OA
BRANCH  23  24
ATOM     24  C   UNL d   1      -4.536  -9.521   8.915  0.00  0.00     0.174 C 
ATOM     25  C   UNL d   1      -5.421  -8.327   8.603  0.00  0.00     0.034 C 
ENDBRANCH  23  24
ENDBRANCH  21  23
ENDBRANCH  20  21
ENDBRANCH  16  20
ENDBRANCH  11  14
ENDBRANCH   9  10
ENDBRANCH   8   9
ENDBRANCH   2   8
BRANCH   3  26
ATOM     26  S   UNL d   1       2.493  -5.722  -0.349  0.00  0.00    -0.094 SA
BRANCH  26  27
ATOM     27  C   UNL d   1       3.679  -5.564  -1.707  0.00  0.00     0.184 C 
BRANCH  27  28
ATOM     28  C   UNL d   1       4.044  -4.106  -1.918  0.00  0.00     0.233 C 
ATOM     29  N   UNL d   1       2.954  -3.293  -2.171  0.00  0.00    -0.306 N 
ATOM     30  H   UNL d   1       2.013  -3.639  -2.061  0.00  0.00     0.171 HD
ATOM     31  O   UNL d   1       5.220  -3.767  -1.885  0.00  0.00    -0.272 OA
BRANCH  29  32
ATOM     32  C   UNL d   1       3.107  -1.952  -2.371  0.00  0.00     0.151 A 
ATOM     33  N   UNL d   1       4.211  -1.276  -2.529  0.00  0.00    -0.339 N 
ATOM     34  C   UNL d   1       3.929   0.071  -2.670  0.00  0.00     0.027 A 
ATOM     35  HN  UNL d   1       5.147  -1.682  -2.546  1.00  0.00     0.168 HD
ATOM     36  C   UNL d   1       2.583   0.384  -2.590  0.00  0.00     0.078 A 
ATOM     37  S   UNL d   1       1.658  -1.053  -2.400  0.00  0.00    -0.064 SA
BRANCH  34  38
ATOM     38  C   UNL d   1       5.081   1.000  -2.850  0.00  0.00     0.168 C 
BRANCH  38  39
ATOM     39  C   UNL d   1       5.067   1.694  -4.189  0.00  0.00     0.264 C 
ATOM     40  O   UNL d   1       4.147   1.705  -4.993  0.00  0.00    -0.265 OA
BRANCH  39  41
ATOM     41  O   UNL d   1       6.277   2.303  -4.378  0.00  0.00    -0.322 OA
BRANCH  41  42
ATOM     42  C   UNL d   1       6.567   2.688  -5.729  0.00  0.00     0.174 C 
ATOM     43  C   UNL d   1       7.245   1.514  -6.411  0.00  0.00     0.034 C 
ENDBRANCH  41  42
ENDBRANCH  39  41
ENDBRANCH  38  39
ENDBRANCH  34  38
ENDBRANCH  29  32
ENDBRANCH  27  28
ENDBRANCH  26  27
ENDBRANCH   3  26
TORSDOF 16
