REMARK  5 active torsions:
REMARK  status: ('A' for Active; 'I' for Inactive)
REMARK    1  A    between atoms: C_7  and  N_1 
REMARK    2  A    between atoms: S_10  and  C_2 
REMARK    3  A    between atoms: C_16  and  S_10 
REMARK    4  A    between atoms: O_17  and  C_13 
REMARK    5  A    between atoms: C_18  and  O_17 
ROOT
ATOM      1  C   UNL d   1       2.261  -0.009   3.405  0.00  0.00    -0.107 C 
ATOM      2  C   UNL d   1       1.621   0.084   4.415  0.00  0.00     0.013 C 
ATOM      3  C   UNL d   1       3.061  -0.111   2.177  0.00  0.00     0.175 C 
ENDROOT
BRANCH   3   4
ATOM      4  S   UNL d   1       2.432  -1.372   1.045  0.00  0.00    -0.079 SA
BRANCH   4   5
ATOM      5  C   UNL d   1       0.952  -0.655   0.490  0.00  0.00     0.178 A 
ATOM      6  N   UNL d   1      -0.126  -1.362  -0.022  0.00  0.00    -0.219 N 
ATOM      7  N   UNL d   1      -0.908  -0.479  -0.694  0.00  0.00     0.001 NA
ATOM      8  N   UNL d   1      -0.391   0.720  -0.459  0.00  0.00    -0.006 NA
ATOM      9  N   UNL d   1       0.772   0.628   0.259  0.00  0.00    -0.264 N 
ATOM     10  HN  UNL d   1       1.375   1.396   0.553  1.00  0.00     0.186 HD
BRANCH   6  11
ATOM     11  C   UNL d   1      -0.462  -2.737   0.054  0.00  0.00     0.057 A 
ATOM     12  C   UNL d   1      -0.047  -3.517   1.139  0.00  0.00     0.034 A 
ATOM     13  C   UNL d   1      -0.315  -4.888   1.164  0.00  0.00     0.039 A 
ATOM     14  C   UNL d   1      -0.993  -5.491   0.107  0.00  0.00     0.068 A 
ATOM     15  C   UNL d   1      -1.478  -4.700  -0.937  0.00  0.00     0.039 A 
ATOM     16  C   UNL d   1      -1.226  -3.323  -0.964  0.00  0.00     0.034 A 
BRANCH  14  17
ATOM     17  O   UNL d   1      -1.268  -6.829   0.025  0.00  0.00    -0.352 OA
BRANCH  17  18
ATOM     18  C   UNL d   1      -0.297  -7.685   0.634  0.00  0.00     0.171 C 
ATOM     19  C   UNL d   1      -0.674  -9.125   0.339  0.00  0.00     0.034 C 
ENDBRANCH  17  18
ENDBRANCH  14  17
ENDBRANCH   6  11
ENDBRANCH   4   5
ENDBRANCH   3   4
TORSDOF 5
