REMARK  6 active torsions:
REMARK  status: ('A' for Active; 'I' for Inactive)
REMARK    1  A    between atoms: S_6  and  C_1 
REMARK    2  A    between atoms: N_14  and  C_3 
REMARK    3  A    between atoms: C_13  and  C_4 
REMARK    4  A    between atoms: C_10  and  C_5 
REMARK    5  A    between atoms: C_17  and  S_6 
REMARK    6  A    between atoms: C_24  and  C_17 
ROOT
ATOM      1  C   UNL d   1       0.445  -1.391  -0.101  0.00  0.00     0.096 C 
ATOM      2  C   UNL d   1       0.942   1.063  -0.096  0.00  0.00     0.070 C 
ATOM      3  C   UNL d   1      -0.861  -1.105  -0.252  0.00  0.00     0.139 C 
ATOM      4  C   UNL d   1      -0.383   1.256  -0.245  0.00  0.00     0.105 C 
ATOM      5  C   UNL d   1       1.468  -0.328   0.209  0.00  0.00     0.113 C 
ATOM      6  O   UNL d   1      -1.304   0.219  -0.197  0.00  0.00    -0.296 OA
ATOM      7  C   UNL d   1       1.887   2.129  -0.219  0.00  0.00     0.099 C 
ATOM      8  N   UNL d   1       2.675   2.968  -0.343  0.00  0.00    -0.192 NA
ENDROOT
BRANCH   5   9
ATOM      9  C   UNL d   1       1.945  -0.393   1.665  0.00  0.00    -0.044 A 
ATOM     10  C   UNL d   1       1.073  -0.132   2.740  0.00  0.00     0.010 A 
ATOM     11  C   UNL d   1       1.541  -0.134   4.057  0.00  0.00     0.024 A 
ATOM     12  C   UNL d   1       2.881  -0.409   4.314  0.00  0.00     0.034 A 
ATOM     13  C   UNL d   1       3.754  -0.690   3.267  0.00  0.00     0.024 A 
ATOM     14 CL   UNL d   1       3.460  -0.396   5.934  0.00  0.00    -0.084 Cl
ATOM     15  C   UNL d   1       3.289  -0.681   1.949  0.00  0.00     0.010 A 
ENDBRANCH   5   9
BRANCH   4  16
ATOM     16  C   UNL d   1      -0.984   2.578  -0.455  0.00  0.00    -0.001 A 
ATOM     17  C   UNL d   1      -1.193   3.053  -1.755  0.00  0.00     0.014 A 
ATOM     18  C   UNL d   1      -1.667   4.349  -1.960  0.00  0.00     0.001 A 
ATOM     19  C   UNL d   1      -1.944   5.173  -0.869  0.00  0.00     0.000 A 
ATOM     20  C   UNL d   1      -1.759   4.699   0.429  0.00  0.00     0.001 A 
ATOM     21  C   UNL d   1      -1.282   3.404   0.638  0.00  0.00     0.014 A 
ENDBRANCH   4  16
BRANCH   1  22
ATOM     22  S   UNL d   1       1.007  -3.026  -0.281  0.00  0.00     0.176 S 
ATOM     23  O   UNL d   1       2.454  -3.045  -0.171  0.00  0.00    -0.223 OA
ATOM     24  O   UNL d   1       0.198  -3.885   0.567  0.00  0.00    -0.223 OA
BRANCH  22  25
ATOM     25  C   UNL d   1       0.626  -3.439  -1.983  0.00  0.00     0.145 C 
BRANCH  25  26
ATOM     26  C   UNL d   1       1.060  -4.865  -2.316  0.00  0.00     0.011 C 
ATOM     27  C   UNL d   1       0.681  -5.248  -3.739  0.00  0.00     0.006 C 
ENDBRANCH  25  26
ENDBRANCH  22  25
ENDBRANCH   1  22
BRANCH   3  28
ATOM     28  N   UNL d   1      -1.879  -2.005  -0.451  0.00  0.00    -0.282 NA
ATOM     29  H   UNL d   1      -1.729  -2.899   0.029  0.00  0.00     0.126 HD
ATOM     30  H   UNL d   1      -2.781  -1.607  -0.192  0.00  0.00     0.126 HD
ENDBRANCH   3  28
TORSDOF 6
