REMARK  13 active torsions:
REMARK  status: ('A' for Active; 'I' for Inactive)
REMARK    1  A    between atoms: C_4  and  C_1 
REMARK    2  A    between atoms: C_5  and  C_1 
REMARK    3  A    between atoms: O_11  and  N_2 
REMARK    4  A    between atoms: O_17  and  C_10 
REMARK    5  A    between atoms: C_18  and  O_17 
REMARK    6  A    between atoms: C_20  and  C_18 
REMARK    7  A    between atoms: C_26  and  C_20 
REMARK    8  A    between atoms: C_21  and  C_22 
REMARK    9  A    between atoms: C_22  and  C_25 
REMARK   10  A    between atoms: C_23  and  C_27 
REMARK   11  A    between atoms: C_24  and  C_23 
REMARK   12  A    between atoms: C_25  and  C_24 
REMARK   13  A    between atoms: C_27  and  C_26 
ROOT
ATOM      1  C   UNL d   1       0.989  -0.010  -0.581  0.00  0.00    -0.007 A 
ATOM      2  C   UNL d   1       0.434  -0.824   0.421  0.00  0.00     0.016 A 
ATOM      3  C   UNL d   1       0.134   0.739  -1.385  0.00  0.00     0.016 A 
ATOM      4  C   UNL d   1      -1.802  -0.157  -0.242  0.00  0.00     0.068 A 
ATOM      5  C   UNL d   1      -1.242   0.645  -1.240  0.00  0.00     0.037 A 
ATOM      6  C   UNL d   1      -0.956  -0.877   0.602  0.00  0.00     0.037 A 
ENDROOT
BRANCH   1   7
ATOM      7  C   UNL d   1       2.469   0.099  -0.801  0.00  0.00     0.074 C 
ATOM      8  N   UNL d   1       3.054   0.182  -1.967  0.00  0.00    -0.268 N 
ATOM      9  HN  UNL d   1       4.057   0.334  -2.073  1.00  0.00     0.194 HD
BRANCH   8  10
ATOM     10  O   UNL d   1       2.189   0.046  -3.057  0.00  0.00    -0.289 OA
ATOM     11  H   UNL d   1       2.754   0.307  -3.807  0.00  0.00     0.244 HD
ENDBRANCH   8  10
BRANCH   7  12
ATOM     12  C   UNL d   1       3.379   0.135   0.394  0.00  0.00    -0.007 A 
ATOM     13  C   UNL d   1       2.977   0.652   1.630  0.00  0.00     0.014 A 
ATOM     14  C   UNL d   1       3.857   0.628   2.715  0.00  0.00     0.007 A 
ATOM     15  C   UNL d   1       5.154   0.114   2.570  0.00  0.00    -0.062 A 
ATOM     16  C   UNL d   1       5.564  -0.368   1.327  0.00  0.00     0.007 A 
ATOM     17  C   UNL d   1       6.086   0.099   3.745  0.00  0.00     0.048 C 
ATOM     18  C   UNL d   1       4.683  -0.357   0.246  0.00  0.00     0.014 A 
ENDBRANCH   7  12
ENDBRANCH   1   7
BRANCH   4  19
ATOM     19  O   UNL d   1      -3.153  -0.289  -0.018  0.00  0.00    -0.351 OA
BRANCH  19  20
ATOM     20  C   UNL d   1      -3.954   0.424  -0.961  0.00  0.00     0.175 C 
BRANCH  20  21
ATOM     21  C   UNL d   1      -5.433   0.262  -0.677  0.00  0.00     0.027 C 
BRANCH  21  22
ATOM     22  C   UNL d   1      -6.216   1.051  -1.725  0.00  0.00     0.002 C 
BRANCH  22  23
ATOM     23  C   UNL d   1      -7.714   0.938  -1.497  0.00  0.00     0.000 C 
BRANCH  23  24
ATOM     24  C   UNL d   1      -8.485   1.727  -2.551  0.00  0.00     0.000 C 
BRANCH  24  25
ATOM     25  C   UNL d   1      -9.985   1.600  -2.307  0.00  0.00     0.000 C 
BRANCH  25  26
ATOM     26  C   UNL d   1     -10.783   2.380  -3.345  0.00  0.00     0.000 C 
BRANCH  26  27
ATOM     27  C   UNL d   1     -12.282   2.243  -3.087  0.00  0.00    -0.000 C 
BRANCH  27  28
ATOM     28  C   UNL d   1     -13.093   3.016  -4.119  0.00  0.00    -0.005 C 
ATOM     29  C   UNL d   1     -14.583   2.877  -3.858  0.00  0.00     0.005 C 
ENDBRANCH  27  28
ENDBRANCH  26  27
ENDBRANCH  25  26
ENDBRANCH  24  25
ENDBRANCH  23  24
ENDBRANCH  22  23
ENDBRANCH  21  22
ENDBRANCH  20  21
ENDBRANCH  19  20
ENDBRANCH   4  19
TORSDOF 13
