REMARK  1 active torsions:
REMARK  status: ('A' for Active; 'I' for Inactive)
REMARK    1  A    between atoms: N_8  and  C_1 
ROOT
ATOM      1  C   UNL d   1       2.453   0.049  -0.013  0.00  0.00     0.143 A 
ATOM      2  N   UNL d   1       1.599   1.038  -0.004  0.00  0.00    -0.336 N 
ATOM      3  HN  UNL d   1       1.850   2.027  -0.000  1.00  0.00     0.168 HD
ATOM      4  S   UNL d   1       1.770  -1.524  -0.002  0.00  0.00    -0.052 SA
ATOM      5  C   UNL d   1       0.190  -0.841   0.001  0.00  0.00     0.036 A 
ATOM      6  C   UNL d   1       0.304   0.550  -0.001  0.00  0.00     0.051 A 
ATOM      7  C   UNL d   1      -1.056  -1.489   0.002  0.00  0.00     0.045 A 
ATOM      8  C   UNL d   1      -0.873   1.327   0.001  0.00  0.00     0.032 A 
ATOM      9  C   UNL d   1      -2.204  -0.693   0.002  0.00  0.00     0.035 A 
ATOM     10  C   UNL d   1      -2.122   0.696   0.002  0.00  0.00     0.026 A 
ATOM     11 CL   UNL d   1      -3.752  -1.450   0.001  0.00  0.00    -0.084 Cl
ENDROOT
BRANCH   1  12
ATOM     12  N   UNL d   1       3.777   0.229  -0.033  0.00  0.00    -0.380 N 
ATOM     13  H   UNL d   1       4.153   1.167   0.017  0.00  0.00     0.158 HD
ATOM     14  H   UNL d   1       4.428  -0.543   0.021  0.00  0.00     0.158 HD
ENDBRANCH   1  12
TORSDOF 1
