REMARK  2 active torsions:
REMARK  status: ('A' for Active; 'I' for Inactive)
REMARK    1  A    between atoms: C_8  and  C_6 
REMARK    2  A    between atoms: C_9  and  C_7 
ROOT
ATOM      1  O   UNL d   1      -1.090  -0.022  -0.063  0.00  0.00    -0.273 OA
ATOM      2  N   UNL d   1       1.041  -0.691   0.078  0.00  0.00    -0.277 N 
ATOM      3  HN  UNL d   1       1.862  -1.293   0.138  1.00  0.00     0.189 HD
ATOM      4  N   UNL d   1       1.028   0.688   0.068  0.00  0.00    -0.277 N 
ATOM      5  HN  UNL d   1       1.838   1.305   0.119  1.00  0.00     0.189 HD
ATOM      6  C   UNL d   1      -0.217  -1.078  -0.006  0.00  0.00     0.174 A 
ATOM      7  C   UNL d   1      -0.236   1.052  -0.019  0.00  0.00     0.174 A 
ENDROOT
BRANCH   6   8
ATOM      8  C   UNL d   1      -0.771  -2.424  -0.075  0.00  0.00     0.017 A 
ATOM      9  C   UNL d   1       0.095  -3.529  -0.044  0.00  0.00     0.017 A 
ATOM     10  C   UNL d   1      -0.399  -4.833  -0.142  0.00  0.00     0.020 A 
ATOM     11  C   UNL d   1      -1.769  -5.044  -0.269  0.00  0.00     0.011 A 
ATOM     12  C   UNL d   1      -2.648  -3.963  -0.290  0.00  0.00     0.020 A 
ATOM     13 BR   UNL d   1      -2.439  -6.803  -0.424  0.00  0.00    -0.051 Br
ATOM     14  C   UNL d   1      -2.150  -2.658  -0.192  0.00  0.00     0.017 A 
ENDBRANCH   6   8
BRANCH   7  15
ATOM     15  C   UNL d   1      -0.818   2.385  -0.104  0.00  0.00     0.017 A 
ATOM     16  C   UNL d   1       0.026   3.508  -0.107  0.00  0.00     0.016 A 
ATOM     17  C   UNL d   1      -0.498   4.798  -0.220  0.00  0.00     0.001 A 
ATOM     18  C   UNL d   1      -1.874   4.983  -0.327  0.00  0.00     0.000 A 
ATOM     19  C   UNL d   1      -2.727   3.881  -0.314  0.00  0.00     0.001 A 
ATOM     20  C   UNL d   1      -2.202   2.590  -0.202  0.00  0.00     0.016 A 
ENDBRANCH   7  15
TORSDOF 2
