REMARK  3 active torsions:
REMARK  status: ('A' for Active; 'I' for Inactive)
REMARK    1  A    between atoms: C_8  and  N_1 
REMARK    2  A    between atoms: C_7  and  N_4 
REMARK    3  A    between atoms: C_9  and  C_8 
ROOT
ATOM      1  N   UNL d   1      -0.391   1.005  -0.110  0.00  0.00    -0.293 N 
ATOM      2  C   UNL d   1       0.900   0.542  -0.055  0.00  0.00     0.150 C 
ATOM      3  C   UNL d   1      -1.391   0.069  -0.272  0.00  0.00     0.235 C 
ATOM      4  N   UNL d   1       1.906   1.333   0.124  0.00  0.00    -0.337 N 
ATOM      5  HN  UNL d   1       1.720   2.326   0.271  1.00  0.00     0.168 HD
ATOM      6  S   UNL d   1       0.931  -1.185  -0.304  0.00  0.00    -0.084 SA
ATOM      7  C   UNL d   1      -0.860  -1.337  -0.236  0.00  0.00     0.185 C 
ATOM      8  O   UNL d   1      -2.580   0.317  -0.431  0.00  0.00    -0.272 OA
ENDROOT
BRANCH   1   9
ATOM      9  C   UNL d   1      -0.711   2.422  -0.135  0.00  0.00     0.180 C 
BRANCH   9  10
ATOM     10  C   UNL d   1      -0.883   2.951   1.258  0.00  0.00     0.001 A 
ATOM     11  S   UNL d   1      -2.426   2.952   2.006  0.00  0.00    -0.105 SA
ATOM     12  C   UNL d   1      -1.819   3.711   3.411  0.00  0.00     0.050 A 
ATOM     13  C   UNL d   1      -0.468   3.960   3.321  0.00  0.00     0.008 A 
ATOM     14  C   UNL d   1       0.073   3.519   2.079  0.00  0.00     0.017 A 
ENDBRANCH   9  10
ENDBRANCH   1   9
BRANCH   4  15
ATOM     15  C   UNL d   1       3.242   0.898   0.127  0.00  0.00     0.037 A 
ATOM     16  C   UNL d   1       4.152   1.581  -0.686  0.00  0.00     0.053 A 
ATOM     17  C   UNL d   1       5.493   1.196  -0.730  0.00  0.00     0.037 A 
ATOM     18 CL   UNL d   1       6.596   2.059  -1.730  0.00  0.00    -0.084 Cl
ATOM     19  C   UNL d   1       5.947   0.122   0.027  0.00  0.00     0.048 A 
ATOM     20  C   UNL d   1       5.054  -0.534   0.867  0.00  0.00     0.037 A 
ATOM     21  C   UNL d   1       3.721  -0.128   0.948  0.00  0.00     0.053 A 
ATOM     22 CL   UNL d   1       5.594  -1.871   1.807  0.00  0.00    -0.084 Cl
ENDBRANCH   4  15
TORSDOF 3
