REMARK  4 active torsions:
REMARK  status: ('A' for Active; 'I' for Inactive)
REMARK    1  A    between atoms: C_2  and  C_1 
REMARK    2  A    between atoms: C_5  and  O_10 
REMARK    3  A    between atoms: N_13  and  C_5 
REMARK    4  A    between atoms: O_10  and  C_14 
ROOT
ATOM      1  C   UNL d   1      -0.449  -1.893  -0.041  0.00  0.00     0.066 A 
ATOM      2  C   UNL d   1       0.173   0.493   0.016  0.00  0.00     0.093 A 
ATOM      3  C   UNL d   1       0.590  -0.847  -0.011  0.00  0.00     0.013 A 
ATOM      4  O   UNL d   1      -1.191   0.851   0.025  0.00  0.00    -0.275 OA
ATOM      5  C   UNL d   1      -2.179  -0.106  -0.005  0.00  0.00     0.289 A 
ATOM      6  C   UNL d   1      -1.736  -1.502  -0.039  0.00  0.00     0.099 A 
ATOM      7  C   UNL d   1       1.062   1.568   0.046  0.00  0.00     0.075 A 
ATOM      8  C   UNL d   1       1.975  -1.074   0.001  0.00  0.00     0.018 A 
ATOM      9  C   UNL d   1       2.421   1.304   0.017  0.00  0.00     0.081 A 
ATOM     10  O   UNL d   1      -3.372   0.171   0.003  0.00  0.00    -0.260 OA
ATOM     11  C   UNL d   1       2.889  -0.007   0.017  0.00  0.00     0.038 A 
ENDROOT
BRANCH   9  12
ATOM     12  O   UNL d   1       3.384   2.345   0.119  0.00  0.00    -0.284 OA
BRANCH  12  13
ATOM     13  C   UNL d   1       3.420   3.599  -0.523  0.00  0.00     0.216 C 
ATOM     14  S   UNL d   1       2.631   3.818  -1.984  0.00  0.00    -0.033 SA
BRANCH  13  15
ATOM     15  N   UNL d   1       4.199   4.537   0.154  0.00  0.00    -0.361 N 
ATOM     16  C   UNL d   1       4.315   5.937  -0.250  0.00  0.00     0.152 C 
ATOM     17  C   UNL d   1       4.932   4.194   1.368  0.00  0.00     0.152 C 
ENDBRANCH  13  15
ENDBRANCH  12  13
ENDBRANCH   9  12
BRANCH   1  18
ATOM     18  C   UNL d   1      -0.175  -3.368  -0.077  0.00  0.00     0.418 C 
ATOM     19  F   UNL d   1       1.130  -3.725  -0.077  0.00  0.00    -0.166 F 
ATOM     20  F   UNL d   1      -0.740  -3.990   0.992  0.00  0.00    -0.166 F 
ATOM     21  F   UNL d   1      -0.727  -3.936  -1.182  0.00  0.00    -0.166 F 
ENDBRANCH   1  18
TORSDOF 4
