REMARK  4 active torsions:
REMARK  status: ('A' for Active; 'I' for Inactive)
REMARK    1  A    between atoms: N_4  and  C_1 
REMARK    2  A    between atoms: C_2  and  C_10 
REMARK    3  A    between atoms: N_17  and  C_3 
REMARK    4  A    between atoms: C_18  and  C_11 
ROOT
ATOM      1  C   UNL d   1       2.211   1.077  -0.926  0.00  0.00     0.145 C 
ATOM      2  C   UNL d   1       2.513   0.493  -2.112  0.00  0.00     0.125 C 
ATOM      3  C   UNL d   1       1.673   0.284   0.148  0.00  0.00     0.120 C 
ATOM      4  C   UNL d   1       2.291  -0.904  -2.348  0.00  0.00     0.114 C 
ATOM      5  N   UNL d   1       1.220  -0.320   1.030  0.00  0.00    -0.190 NA
ATOM      6  N   UNL d   1       2.139  -2.036  -2.555  0.00  0.00    -0.190 NA
ENDROOT
BRANCH   1   7
ATOM      7  N   UNL d   1       2.498   2.431  -0.768  0.00  0.00    -0.355 N 
ATOM      8  C   UNL d   1       1.753   3.126   0.033  0.00  0.00     0.100 C 
ATOM      9  HN  UNL d   1       3.273   2.864  -1.270  1.00  0.00     0.166 HD
BRANCH   8  10
ATOM     10  C   UNL d   1       1.969   4.579   0.214  0.00  0.00    -0.021 A 
ATOM     11  C   UNL d   1       2.949   5.247  -0.523  0.00  0.00     0.013 A 
ATOM     12  C   UNL d   1       3.118   6.625  -0.369  0.00  0.00     0.017 A 
ATOM     13  C   UNL d   1       2.311   7.349   0.522  0.00  0.00     0.048 A 
ATOM     14  C   UNL d   1       1.335   6.663   1.265  0.00  0.00     0.017 A 
ATOM     15  C   UNL d   1       1.162   5.284   1.112  0.00  0.00     0.013 A 
BRANCH  13  16
ATOM     16  C   UNL d   1       2.502   8.841   0.662  0.00  0.00     0.417 C 
ATOM     17  F   UNL d   1       1.643   9.421   1.545  0.00  0.00    -0.166 F 
ATOM     18  F   UNL d   1       3.754   9.167   1.087  0.00  0.00    -0.166 F 
ATOM     19  F   UNL d   1       2.325   9.498  -0.518  0.00  0.00    -0.166 F 
ENDBRANCH  13  16
ENDBRANCH   8  10
ENDBRANCH   1   7
BRANCH   2  20
ATOM     20  N   UNL d   1       3.071   1.172  -3.201  0.00  0.00    -0.291 NA
ATOM     21  H   UNL d   1       3.490   2.054  -2.900  0.00  0.00     0.125 HD
ATOM     22  H   UNL d   1       3.701   0.602  -3.762  0.00  0.00     0.125 HD
ENDBRANCH   2  20
TORSDOF 4
