REMARK  2 active torsions:
REMARK  status: ('A' for Active; 'I' for Inactive)
REMARK       I    between atoms: N_2  and  C_1 
REMARK       I    between atoms: N_3  and  C_1 
REMARK    1  A    between atoms: C_8  and  N_2 
REMARK    2  A    between atoms: C_9  and  N_3 
ROOT
ATOM      1  C   UNL d   1       0.990  -0.038   0.178  0.00  0.00     0.325 C 
ATOM      2  N   UNL d   1       0.397  -0.757  -0.849  0.00  0.00    -0.309 N 
ATOM      3  N   UNL d   1       0.113   0.886   0.724  0.00  0.00    -0.309 N 
ATOM      4  O   UNL d   1       2.154  -0.175   0.532  0.00  0.00    -0.247 OA
ATOM      5  H   UNL d   1      -0.506  -0.435  -1.163  0.00  0.00     0.170 HD
ATOM      6  H   UNL d   1      -0.863   0.775   0.498  0.00  0.00     0.170 HD
ENDROOT
BRANCH   2   7
ATOM      7  C   UNL d   1       1.047  -1.704  -1.678  0.00  0.00     0.038 A 
ATOM      8  C   UNL d   1       2.305  -2.248  -1.399  0.00  0.00     0.055 A 
ATOM      9  C   UNL d   1       2.938  -3.103  -2.310  0.00  0.00     0.058 A 
ATOM     10 CL   UNL d   1       4.508  -3.698  -1.899  0.00  0.00    -0.082 Cl
ATOM     11  C   UNL d   1       2.302  -3.438  -3.507  0.00  0.00     0.055 A 
ATOM     12  C   UNL d   1       1.025  -2.939  -3.771  0.00  0.00     0.028 A 
ATOM     13 CL   UNL d   1       3.037  -4.449  -4.698  0.00  0.00    -0.083 Cl
ATOM     14  C   UNL d   1       0.397  -2.084  -2.858  0.00  0.00     0.031 A 
ENDBRANCH   2   7
BRANCH   3  15
ATOM     15  C   UNL d   1       0.434   1.894   1.665  0.00  0.00     0.038 A 
ATOM     16  C   UNL d   1       1.734   2.167   2.107  0.00  0.00     0.055 A 
ATOM     17  C   UNL d   1       1.982   3.185   3.035  0.00  0.00     0.058 A 
ATOM     18 CL   UNL d   1       3.618   3.443   3.530  0.00  0.00    -0.082 Cl
ATOM     19  C   UNL d   1       0.924   3.953   3.525  0.00  0.00     0.055 A 
ATOM     20  C   UNL d   1      -0.374   3.700   3.080  0.00  0.00     0.028 A 
ATOM     21 CL   UNL d   1       1.152   5.226   4.670  0.00  0.00    -0.083 Cl
ATOM     22  C   UNL d   1      -0.618   2.677   2.156  0.00  0.00     0.031 A 
ENDBRANCH   3  15
TORSDOF 2
