REMARK  9 active torsions:
REMARK  status: ('A' for Active; 'I' for Inactive)
REMARK    1  A    between atoms: C_25  and  C_1 
REMARK    2  A    between atoms: C_2  and  C_11 
REMARK    3  A    between atoms: O_22  and  C_3 
REMARK    4  A    between atoms: N_6  and  C_17 
REMARK    5  A    between atoms: O_23  and  C_9 
REMARK    6  A    between atoms: C_19  and  C_10 
REMARK    7  A    between atoms: S_14  and  C_19 
REMARK    8  A    between atoms: C_20  and  S_14 
REMARK    9  A    between atoms: O_26  and  C_25 
ROOT
ATOM      1  C   UNL d   1       5.226   3.984  -0.183  0.00  0.00     0.049 A 
ATOM      2  C   UNL d   1       3.976   4.655  -0.091  0.00  0.00     0.027 A 
ATOM      3  C   UNL d   1       6.406   4.758  -0.076  0.00  0.00     0.031 A 
ATOM      4  C   UNL d   1       3.981   6.033   0.219  0.00  0.00     0.021 A 
ATOM      5  C   UNL d   1       6.381   6.125   0.190  0.00  0.00     0.002 A 
ATOM      6  C   UNL d   1       5.164   6.761   0.348  0.00  0.00     0.002 A 
ENDROOT
BRANCH   2   7
ATOM      7  S   UNL d   1       2.376   3.809  -0.307  0.00  0.00    -0.123 SA
BRANCH   7   8
ATOM      8  C   UNL d   1       1.333   5.118  -1.065  0.00  0.00     0.120 C 
BRANCH   8   9
ATOM      9  C   UNL d   1      -0.147   4.818  -1.218  0.00  0.00    -0.022 A 
ATOM     10  C   UNL d   1      -0.703   3.946  -2.181  0.00  0.00     0.009 A 
ATOM     11  C   UNL d   1      -2.113   3.889  -2.280  0.00  0.00     0.096 A 
ATOM     12  C   UNL d   1      -2.916   4.653  -1.430  0.00  0.00     0.039 A 
ATOM     13  C   UNL d   1      -4.416   4.591  -1.472  0.00  0.00     0.071 C 
ATOM     14  N   UNL d   1      -2.390   5.486  -0.504  0.00  0.00    -0.367 N 
ATOM     15  C   UNL d   1      -1.043   5.550  -0.428  0.00  0.00     0.096 A 
ATOM     16  HN  UNL d   1      -2.985   6.042   0.110  1.00  0.00     0.165 HD
BRANCH  10  17
ATOM     17  C   UNL d   1       0.209   3.135  -3.072  0.00  0.00     0.206 C 
BRANCH  17  18
ATOM     18  O   UNL d   1      -0.522   2.272  -3.945  0.00  0.00    -0.396 OA
ATOM     19  H   UNL d   1      -0.141   1.381  -3.828  0.00  0.00     0.209 HD
ENDBRANCH  17  18
ENDBRANCH  10  17
BRANCH  11  20
ATOM     20  O   UNL d   1      -2.738   3.109  -3.218  0.00  0.00    -0.358 OA
ATOM     21  H   UNL d   1      -2.034   2.718  -3.781  0.00  0.00     0.217 HD
ENDBRANCH  11  20
ENDBRANCH   8   9
ENDBRANCH   7   8
ENDBRANCH   2   7
BRANCH   1  22
ATOM     22  N   UNL d   1       5.355   2.593  -0.461  0.00  0.00    -0.364 N 
ATOM     23  C   UNL d   1       6.251   1.927   0.197  0.00  0.00     0.102 C 
ATOM     24  HN  UNL d   1       4.762   2.136  -1.155  1.00  0.00     0.165 HD
BRANCH  23  25
ATOM     25  C   UNL d   1       6.618   0.523  -0.115  0.00  0.00     0.016 A 
ATOM     26  C   UNL d   1       7.752  -0.064   0.457  0.00  0.00     0.099 A 
ATOM     27  C   UNL d   1       8.118  -1.371   0.102  0.00  0.00     0.069 A 
ATOM     28 CL   UNL d   1       9.527  -2.099   0.786  0.00  0.00    -0.081 Cl
ATOM     29  C   UNL d   1       7.360  -2.092  -0.815  0.00  0.00     0.050 A 
ATOM     30  C   UNL d   1       6.231  -1.499  -1.378  0.00  0.00     0.036 A 
ATOM     31  C   UNL d   1       5.857  -0.198  -1.041  0.00  0.00     0.039 A 
ATOM     32 CL   UNL d   1       5.299  -2.383  -2.525  0.00  0.00    -0.084 Cl
BRANCH  26  33
ATOM     33  O   UNL d   1       8.519   0.648   1.343  0.00  0.00    -0.358 OA
ATOM     34  H   UNL d   1       9.264   0.074   1.620  0.00  0.00     0.217 HD
ENDBRANCH  26  33
ENDBRANCH  23  25
ENDBRANCH   1  22
TORSDOF 9
