REMARK  4 active torsions:
REMARK  status: ('A' for Active; 'I' for Inactive)
REMARK    1  A    between atoms: C_7  and  C_1 
REMARK    2  A    between atoms: C_8  and  C_3 
REMARK    3  A    between atoms: O_13  and  C_7 
REMARK    4  A    between atoms: C_18  and  O_13 
ROOT
ATOM      1  C   UNL d   1       1.449   1.036   0.042  0.00  0.00     0.066 C 
ATOM      2  C   UNL d   1       1.366  -0.311  -0.005  0.00  0.00     0.024 C 
ATOM      3  C   UNL d   1       0.207   1.893  -0.072  0.00  0.00     0.161 C 
ATOM      4  C   UNL d   1      -1.071  -0.231  -0.043  0.00  0.00     0.321 C 
ATOM      5  N   UNL d   1       0.117  -0.889  -0.109  0.00  0.00    -0.312 N 
ATOM      6  N   UNL d   1      -1.000   1.110   0.117  0.00  0.00    -0.330 N 
ATOM      7  O   UNL d   1      -2.144  -0.822  -0.089  0.00  0.00    -0.247 OA
ATOM      8  C   UNL d   1       2.490  -1.314   0.015  0.00  0.00     0.069 C 
ATOM      9  H   UNL d   1       0.031  -1.898  -0.166  0.00  0.00     0.170 HD
ATOM     10  H   UNL d   1      -1.892   1.584   0.138  0.00  0.00     0.165 HD
ENDROOT
BRANCH   3  11
ATOM     11  C   UNL d   1       0.141   3.087   0.866  0.00  0.00    -0.031 A 
ATOM     12  C   UNL d   1      -0.021   4.382   0.345  0.00  0.00     0.010 A 
ATOM     13  C   UNL d   1      -0.014   5.494   1.187  0.00  0.00     0.007 A 
ATOM     14  C   UNL d   1       0.146   5.334   2.569  0.00  0.00    -0.062 A 
ATOM     15  C   UNL d   1       0.265   4.045   3.097  0.00  0.00     0.007 A 
ATOM     16  C   UNL d   1       0.202   6.542   3.456  0.00  0.00     0.048 C 
ATOM     17  C   UNL d   1       0.257   2.930   2.255  0.00  0.00     0.010 A 
ENDBRANCH   3  11
BRANCH   1  18
ATOM     18  C   UNL d   1       2.763   1.715   0.185  0.00  0.00     0.293 C 
ATOM     19  O   UNL d   1       3.728   1.235   0.753  0.00  0.00    -0.259 OA
BRANCH  18  20
ATOM     20  O   UNL d   1       2.741   2.946  -0.392  0.00  0.00    -0.318 OA
BRANCH  20  21
ATOM     21  C   UNL d   1       3.944   3.721  -0.257  0.00  0.00     0.174 C 
ATOM     22  C   UNL d   1       4.154   4.227   1.163  0.00  0.00     0.034 C 
ENDBRANCH  20  21
ENDBRANCH  18  20
ENDBRANCH   1  18
TORSDOF 4
