REMARK  8 active torsions:
REMARK  status: ('A' for Active; 'I' for Inactive)
REMARK    1  A    between atoms: N_11  and  C_9 
REMARK    2  A    between atoms: C_18  and  N_11 
REMARK    3  A    between atoms: N_17  and  C_20 
REMARK    4  A    between atoms: C_21  and  N_17 
REMARK    5  A    between atoms: C_20  and  C_18 
REMARK    6  A    between atoms: C_23  and  C_18 
REMARK    7  A    between atoms: O_19  and  C_22 
REMARK    8  A    between atoms: C_22  and  C_21 
ROOT
ATOM      1  C   UNL d   1      -1.031  -0.220  -0.846  0.00  0.00     0.160 A 
ATOM      2  C   UNL d   1      -0.406   0.947  -0.529  0.00  0.00     0.164 A 
ATOM      3  N   UNL d   1      -2.376  -0.146  -0.643  0.00  0.00    -0.174 N 
ATOM      4  HN  UNL d   1      -3.065  -0.884  -0.788  1.00  0.00     0.186 HD
ATOM      5  N   UNL d   1      -0.335  -1.308  -1.318  0.00  0.00    -0.287 N 
ATOM      6  N   UNL d   1       1.660   0.001  -1.154  0.00  0.00    -0.269 N 
ATOM      7  C   UNL d   1       1.051  -1.226  -1.472  0.00  0.00     0.332 A 
ATOM      8  C   UNL d   1       0.995   1.142  -0.690  0.00  0.00     0.282 A 
ATOM      9  C   UNL d   1      -2.598   1.081  -0.220  0.00  0.00     0.682 A 
ATOM     10  N   UNL d   1      -1.401   1.760  -0.056  0.00  0.00    -0.178 N 
ATOM     11  O   UNL d   1       1.706  -2.193  -1.869  0.00  0.00    -0.246 OA
ATOM     12  O   UNL d   1       1.564   2.204  -0.459  0.00  0.00    -0.265 OA
ATOM     13  C   UNL d   1      -0.993  -2.562  -1.622  0.00  0.00     0.163 C 
ATOM     14  C   UNL d   1       3.095   0.124  -1.332  0.00  0.00     0.164 C 
ATOM     15  C   UNL d   1      -1.238   3.039   0.590  0.00  0.00     0.176 C 
ENDROOT
BRANCH   9  16
ATOM     16  N   UNL d   1      -3.784   1.673   0.032  0.00  0.00    -0.220 N 
ATOM     17  H   UNL d   1      -3.864   2.642   0.316  0.00  0.00     0.178 HD
BRANCH  16  18
ATOM     18  C   UNL d   1      -5.016   0.884   0.137  0.00  0.00     0.127 C 
BRANCH  18  19
ATOM     19  C   UNL d   1      -5.387   0.736   1.644  0.00  0.00     0.295 C 
BRANCH  19  20
ATOM     20  N   UNL d   1      -6.651   0.023   1.849  0.00  0.00     0.087 N 
ATOM     21  H   UNL d   1      -6.590  -0.917   1.445  0.00  0.00     0.316 HD
BRANCH  20  22
ATOM     22  C   UNL d   1      -6.983  -0.134   3.268  0.00  0.00     0.295 C 
BRANCH  22  23
ATOM     23  C   UNL d   1      -8.274  -0.953   3.398  0.00  0.00     0.194 C 
BRANCH  23  24
ATOM     24  O   UNL d   1      -8.078  -2.256   2.846  0.00  0.00    -0.399 OA
ATOM     25  H   UNL d   1      -8.949  -2.689   2.838  0.00  0.00     0.209 HD
ENDBRANCH  23  24
ENDBRANCH  22  23
ENDBRANCH  20  22
ENDBRANCH  19  20
ENDBRANCH  18  19
BRANCH  18  26
ATOM     26  C   UNL d   1      -6.148   1.591  -0.639  0.00  0.00     0.023 C 
ATOM     27  C   UNL d   1      -5.938   1.584  -2.146  0.00  0.00     0.007 C 
ENDBRANCH  18  26
ENDBRANCH  16  18
ENDBRANCH   9  16
TORSDOF 8
