REMARK  6 active torsions:
REMARK  status: ('A' for Active; 'I' for Inactive)
REMARK    1  A    between atoms: N_2  and  C_1 
REMARK       I    between atoms: N_3  and  C_6 
REMARK       I    between atoms: C_4  and  N_3 
REMARK       I    between atoms: N_11  and  C_4 
REMARK    2  A    between atoms: C_5  and  C_9 
REMARK    3  A    between atoms: C_6  and  C_14 
REMARK    4  A    between atoms: O_13  and  C_8 
REMARK    5  A    between atoms: C_10  and  N_11 
REMARK    6  A    between atoms: C_30  and  O_13 
ROOT
ATOM      1  C   UNL d   1       5.943   1.288  -1.394  0.00  0.00     0.032 A 
ATOM      2  C   UNL d   1       5.012   0.464  -2.032  0.00  0.00     0.020 A 
ATOM      3  C   UNL d   1       5.492   2.215  -0.433  0.00  0.00     0.020 A 
ATOM      4  C   UNL d   1       3.235   1.424  -0.670  0.00  0.00     0.076 A 
ATOM      5  C   UNL d   1       4.154   2.268  -0.052  0.00  0.00     0.038 A 
ATOM      6  C   UNL d   1       3.660   0.512  -1.645  0.00  0.00     0.038 A 
ENDROOT
BRANCH   1   7
ATOM      7  C   UNL d   1       7.375   1.395  -1.757  0.00  0.00     0.259 C 
ATOM      8  N   UNL d   1       8.248   0.316  -1.903  0.00  0.00    -0.275 N 
ATOM      9  C   UNL d   1       8.438  -1.035  -1.689  0.00  0.00     0.327 C 
ATOM     10  H   UNL d   1       9.175   0.722  -1.823  0.00  0.00     0.173 HD
ATOM     11  N   UNL d   1       7.391  -1.897  -1.831  0.00  0.00    -0.309 N 
ATOM     12  O   UNL d   1       9.587  -1.361  -1.378  0.00  0.00    -0.247 OA
ATOM     13  H   UNL d   1       6.474  -1.507  -1.692  0.00  0.00     0.170 HD
ATOM     14  O   UNL d   1       7.846   2.521  -1.836  0.00  0.00    -0.267 OA
BRANCH  11  15
ATOM     15  C   UNL d   1       7.546  -3.265  -1.472  0.00  0.00     0.039 C 
ATOM     16  C   UNL d   1       6.535  -3.853  -0.714  0.00  0.00     0.053 C 
ATOM     17  C   UNL d   1       6.815  -5.016   0.003  0.00  0.00     0.037 C 
ATOM     18 CL   UNL d   1       5.649  -5.615   1.118  0.00  0.00    -0.084 Cl
ATOM     19  C   UNL d   1       8.053  -5.647  -0.103  0.00  0.00     0.048 C 
ATOM     20  C   UNL d   1       8.993  -5.146  -0.996  0.00  0.00     0.037 C 
ATOM     21  C   UNL d   1       8.739  -3.969  -1.696  0.00  0.00     0.053 C 
ATOM     22 CL   UNL d   1      10.513  -5.935  -1.167  0.00  0.00    -0.084 Cl
ENDBRANCH  11  15
ENDBRANCH   1   7
BRANCH   4  23
ATOM     23  O   UNL d   1       1.891   1.503  -0.359  0.00  0.00    -0.308 OA
BRANCH  23  24
ATOM     24  C   UNL d   1       1.281   2.734  -0.554  0.00  0.00     0.109 A 
ATOM     25  C   UNL d   1       0.275   3.212   0.303  0.00  0.00     0.137 A 
ATOM     26  C   UNL d   1      -0.379   4.435   0.019  0.00  0.00     0.055 A 
ATOM     27  C   UNL d   1      -0.019   5.189  -1.109  0.00  0.00     0.050 A 
ATOM     28  C   UNL d   1       1.004   4.720  -1.935  0.00  0.00     0.019 A 
ATOM     29  C   UNL d   1       1.630   3.501  -1.676  0.00  0.00     0.040 A 
BRANCH  25  30
ATOM     30  N   UNL d   1      -0.116   2.499   1.530  0.00  0.00    -0.113 N 
ATOM     31  O   UNL d   1      -1.129   2.902   2.123  0.00  0.00    -0.532 OA
ATOM     32  O   UNL d   1       0.601   1.576   1.932  0.00  0.00    -0.532 OA
ENDBRANCH  25  30
BRANCH  27  33
ATOM     33  C   UNL d   1      -0.725   6.477  -1.470  0.00  0.00     0.417 C 
ATOM     34  F   UNL d   1      -1.756   6.782  -0.641  0.00  0.00    -0.166 F 
ATOM     35  F   UNL d   1       0.115   7.545  -1.442  0.00  0.00    -0.166 F 
ATOM     36  F   UNL d   1      -1.245   6.441  -2.728  0.00  0.00    -0.166 F 
ENDBRANCH  27  33
ENDBRANCH  23  24
ENDBRANCH   4  23
TORSDOF 6
