REMARK  3 active torsions:
REMARK  status: ('A' for Active; 'I' for Inactive)
REMARK    1  A    between atoms: C_4  and  N_1 
REMARK    2  A    between atoms: C_16  and  C_5 
REMARK    3  A    between atoms: C_13  and  C_16 
ROOT
ATOM      1  C   UNL d   1       0.004   2.306  -0.126  0.00  0.00     0.046 A 
ATOM      2  C   UNL d   1      -2.134   5.218   0.868  0.00  0.00    -0.078 C 
ATOM      3  C   UNL d   1      -3.045   5.832   1.351  0.00  0.00     0.018 C 
ATOM      4  C   UNL d   1      -1.062   3.071   0.375  0.00  0.00     0.050 A 
ATOM      5  C   UNL d   1      -1.048   4.471   0.311  0.00  0.00     0.019 A 
ATOM      6  C   UNL d   1       1.079   3.002  -0.706  0.00  0.00     0.030 A 
ATOM      7  C   UNL d   1       1.089   4.398  -0.787  0.00  0.00     0.004 A 
ATOM      8  C   UNL d   1       0.027   5.134  -0.276  0.00  0.00     0.021 A 
ENDROOT
BRANCH   1   9
ATOM      9  N   UNL d   1      -0.005   0.878  -0.058  0.00  0.00    -0.252 N 
ATOM     10  C   UNL d   1      -1.139   0.112   0.086  0.00  0.00     0.232 A 
ATOM     11  C   UNL d   1      -0.769  -1.340   0.066  0.00  0.00     0.118 A 
ATOM     12  O   UNL d   1      -2.307   0.467   0.178  0.00  0.00    -0.273 OA
ATOM     13  C   UNL d   1       0.740  -1.359  -0.077  0.00  0.00     0.091 A 
ATOM     14  C   UNL d   1       1.126   0.095  -0.126  0.00  0.00     0.236 A 
ATOM     15  O   UNL d   1       2.299   0.445  -0.180  0.00  0.00    -0.272 OA
BRANCH  13  16
ATOM     16  C   UNL d   1       1.253  -2.057  -1.337  0.00  0.00     0.041 C 
BRANCH  16  17
ATOM     17  C   UNL d   1       0.906  -3.518  -1.374  0.00  0.00    -0.036 C 
ATOM     18  C   UNL d   1       0.172  -4.082  -2.341  0.00  0.00     0.007 C 
ENDBRANCH  16  17
ENDBRANCH  13  16
ENDBRANCH   1   9
TORSDOF 3
