REMARK  3 active torsions:
REMARK  status: ('A' for Active; 'I' for Inactive)
REMARK    1  A    between atoms: C_7  and  N_1 
REMARK    2  A    between atoms: C_2  and  O_8 
REMARK    3  A    between atoms: O_8  and  C_14 
ROOT
ATOM      1  C   UNL d   1       2.114  -1.477  -0.036  0.00  0.00     0.039 A 
ATOM      2  C   UNL d   1       2.362  -2.279  -1.158  0.00  0.00     0.033 A 
ATOM      3  C   UNL d   1       3.049  -1.453   1.002  0.00  0.00     0.033 A 
ATOM      4  C   UNL d   1       4.515  -2.933  -0.250  0.00  0.00     0.078 A 
ATOM      5  C   UNL d   1       3.555  -3.010  -1.258  0.00  0.00     0.039 A 
ATOM      6  C   UNL d   1       4.239  -2.177   0.891  0.00  0.00     0.039 A 
ENDROOT
BRANCH   1   7
ATOM      7  N   UNL d   1       0.940  -0.665   0.034  0.00  0.00    -0.320 N 
ATOM      8  C   UNL d   1      -0.348  -1.027  -0.370  0.00  0.00     0.013 A 
ATOM      9  C   UNL d   1      -1.185   0.054  -0.167  0.00  0.00     0.027 A 
ATOM     10  C   UNL d   1      -0.753  -2.380  -0.848  0.00  0.00     0.068 C 
ATOM     11  C   UNL d   1      -0.426   1.093   0.386  0.00  0.00     0.027 A 
ATOM     12  C   UNL d   1       0.878   0.652   0.496  0.00  0.00     0.013 A 
ATOM     13  C   UNL d   1       2.048   1.470   0.938  0.00  0.00     0.068 C 
ENDBRANCH   1   7
BRANCH   4  14
ATOM     14  O   UNL d   1       5.743  -3.527  -0.249  0.00  0.00    -0.255 OA
BRANCH  14  15
ATOM     15  C   UNL d   1       6.225  -4.049  -1.476  0.00  0.00     0.530 C 
ATOM     16  F   UNL d   1       6.055  -3.182  -2.498  0.00  0.00    -0.144 F 
ATOM     17  F   UNL d   1       7.550  -4.287  -1.352  0.00  0.00    -0.144 F 
ATOM     18  F   UNL d   1       5.612  -5.215  -1.768  0.00  0.00    -0.144 F 
ENDBRANCH  14  15
ENDBRANCH   4  14
TORSDOF 3
