REMARK  4 active torsions:
REMARK  status: ('A' for Active; 'I' for Inactive)
REMARK    1  A    between atoms: C_5  and  C_1 
REMARK    2  A    between atoms: N_4  and  C_13 
REMARK    3  A    between atoms: C_6  and  N_4 
REMARK    4  A    between atoms: C_10  and  C_6 
ROOT
ATOM      1  N   UNL d   1       1.970  -3.697   6.674  0.00  0.00    -0.195 NA
ATOM      2  C   UNL d   1       0.931  -3.467   6.209  0.00  0.00     0.089 C 
ATOM      3  C   UNL d   1      -0.395  -3.168   5.598  0.00  0.00     0.223 C 
ENDROOT
BRANCH   3   4
ATOM      4  N   UNL d   1      -0.519  -1.782   5.116  0.00  0.00    -0.369 N 
ATOM      5  H   UNL d   1      -0.176  -1.107   5.798  0.00  0.00     0.161 HD
BRANCH   4   6
ATOM      6  C   UNL d   1      -0.135  -1.421   3.826  0.00  0.00     0.029 A 
ATOM      7  C   UNL d   1      -0.710  -0.268   3.277  0.00  0.00     0.030 A 
ATOM      8  C   UNL d   1      -0.379   0.174   1.991  0.00  0.00     0.018 A 
ATOM      9  C   UNL d   1       0.568  -0.517   1.226  0.00  0.00     0.048 A 
ATOM     10  C   UNL d   1       1.173  -1.652   1.784  0.00  0.00     0.018 A 
ATOM     11  C   UNL d   1       0.827  -2.095   3.067  0.00  0.00     0.030 A 
BRANCH   9  12
ATOM     12  C   UNL d   1       0.922  -0.038  -0.160  0.00  0.00     0.417 C 
ATOM     13  F   UNL d   1       1.884  -0.788  -0.767  0.00  0.00    -0.166 F 
ATOM     14  F   UNL d   1       1.388   1.242  -0.167  0.00  0.00    -0.166 F 
ATOM     15  F   UNL d   1      -0.147  -0.051  -1.004  0.00  0.00    -0.166 F 
ENDBRANCH   9  12
ENDBRANCH   4   6
ENDBRANCH   3   4
BRANCH   3  16
ATOM     16  C   UNL d   1      -1.534  -3.418   6.586  0.00  0.00    -0.022 A 
ATOM     17  C   UNL d   1      -1.579  -2.776   7.837  0.00  0.00     0.010 A 
ATOM     18  C   UNL d   1      -2.633  -3.014   8.722  0.00  0.00     0.001 A 
ATOM     19  C   UNL d   1      -3.657  -3.890   8.372  0.00  0.00     0.000 A 
ATOM     20  C   UNL d   1      -3.633  -4.528   7.134  0.00  0.00     0.001 A 
ATOM     21  C   UNL d   1      -2.582  -4.292   6.245  0.00  0.00     0.010 A 
ENDBRANCH   3  16
TORSDOF 4
