REMARK  6 active torsions:
REMARK  status: ('A' for Active; 'I' for Inactive)
REMARK    1  A    between atoms: N_2  and  C_3 
REMARK       I    between atoms: C_6  and  N_4 
REMARK    2  A    between atoms: C_24  and  C_6 
REMARK    3  A    between atoms: C_11  and  C_26 
REMARK    4  A    between atoms: O_23  and  C_11 
REMARK    5  A    between atoms: S_20  and  C_24 
REMARK    6  A    between atoms: C_26  and  S_20 
ROOT
ATOM      1  N   UNL d   1      -2.724  -2.677   0.045  0.00  0.00    -0.377 N 
ATOM      2  N   UNL d   1      -3.265  -5.474   0.272  0.00  0.00    -0.348 N 
ATOM      3  C   UNL d   1      -3.817  -6.702   0.582  0.00  0.00     0.229 C 
ATOM      4  C   UNL d   1      -2.323  -3.389   1.272  0.00  0.00     0.143 C 
ATOM      5  C   UNL d   1      -3.985  -3.207  -0.524  0.00  0.00     0.143 C 
ATOM      6  C   UNL d   1      -3.779  -4.702  -0.874  0.00  0.00     0.145 C 
ATOM      7  C   UNL d   1      -2.089  -4.872   0.931  0.00  0.00     0.145 C 
ATOM      8  O   UNL d   1      -4.803  -7.156  -0.012  0.00  0.00    -0.273 OA
ENDROOT
BRANCH   1   9
ATOM      9  C   UNL d   1      -2.485  -1.298  -0.035  0.00  0.00     0.044 A 
ATOM     10  C   UNL d   1      -2.198  -0.668  -1.284  0.00  0.00     0.017 A 
ATOM     11  C   UNL d   1      -1.857   0.708  -1.273  0.00  0.00     0.046 A 
ATOM     12  C   UNL d   1      -2.182  -1.344  -2.530  0.00  0.00     0.018 A 
ATOM     13  C   UNL d   1      -1.542   1.345  -2.464  0.00  0.00     0.054 A 
ATOM     14  N   UNL d   1      -1.797   1.437  -0.152  0.00  0.00    -0.365 N 
ATOM     15  C   UNL d   1      -1.566   0.665  -3.678  0.00  0.00     0.036 A 
ATOM     16  C   UNL d   1      -1.891  -0.681  -3.720  0.00  0.00     0.025 A 
ATOM     17 CL   UNL d   1      -1.172   1.493  -5.134  0.00  0.00    -0.084 Cl
ATOM     18  C   UNL d   1      -2.078   0.825   1.012  0.00  0.00     0.090 A 
ATOM     19  HN  UNL d   1      -1.547   2.425  -0.180  1.00  0.00     0.165 HD
ATOM     20  C   UNL d   1      -2.425  -0.508   1.118  0.00  0.00     0.047 A 
ENDBRANCH   1   9
BRANCH   3  21
ATOM     21  C   UNL d   1      -3.263  -7.486   1.766  0.00  0.00     0.177 C 
BRANCH  21  22
ATOM     22  S   UNL d   1      -4.123  -6.984   3.296  0.00  0.00    -0.149 SA
BRANCH  22  23
ATOM     23  C   UNL d   1      -5.848  -7.414   2.875  0.00  0.00     0.184 C 
BRANCH  23  24
ATOM     24  C   UNL d   1      -6.014  -8.886   2.559  0.00  0.00     0.149 C 
ATOM     25  O   UNL d   1      -6.164  -9.751   3.409  0.00  0.00    -0.649 OA
BRANCH  24  26
ATOM     26  O   UNL d   1      -5.953  -9.182   1.241  0.00  0.00    -0.776 OA
ATOM     27  H   UNL d   1      -5.763  -8.418   0.642  0.00  0.00     0.167 HD
ENDBRANCH  24  26
ENDBRANCH  23  24
ENDBRANCH  22  23
ENDBRANCH  21  22
ENDBRANCH   3  21
TORSDOF 6
