REMARK  7 active torsions:
REMARK  status: ('A' for Active; 'I' for Inactive)
REMARK    1  A    between atoms: C_4  and  N_1 
REMARK    2  A    between atoms: N_2  and  C_3 
REMARK    3  A    between atoms: O_8  and  C_5 
REMARK    4  A    between atoms: C_6  and  O_7 
REMARK    5  A    between atoms: O_7  and  C_23 
REMARK    6  A    between atoms: C_24  and  O_8 
REMARK    7  A    between atoms: C_17  and  C_18 
ROOT
ATOM      1  C   UNL d   1       1.898  -2.415   3.846  0.00  0.00    -0.026 A 
ATOM      2  C   UNL d   1       2.839  -2.149   4.856  0.00  0.00     0.015 A 
ATOM      3  C   UNL d   1       1.705  -3.766   3.500  0.00  0.00     0.015 A 
ATOM      4  C   UNL d   1       3.362  -4.512   5.090  0.00  0.00     0.077 A 
ATOM      5  C   UNL d   1       2.396  -4.799   4.131  0.00  0.00     0.038 A 
ATOM      6  C   UNL d   1       3.565  -3.185   5.470  0.00  0.00     0.038 A 
ENDROOT
BRANCH   1   7
ATOM      7  C   UNL d   1       1.121  -1.355   3.157  0.00  0.00    -0.026 A 
ATOM      8  C   UNL d   1       1.621  -0.060   2.930  0.00  0.00     0.015 A 
ATOM      9  C   UNL d   1       0.870   0.904   2.235  0.00  0.00     0.038 A 
ATOM     10  C   UNL d   1      -0.399   0.593   1.746  0.00  0.00     0.077 A 
ATOM     11  C   UNL d   1      -0.897  -0.694   1.932  0.00  0.00     0.038 A 
ATOM     12  C   UNL d   1      -0.165  -1.633   2.655  0.00  0.00     0.015 A 
BRANCH  10  13
ATOM     13  O   UNL d   1      -1.069   1.577   1.049  0.00  0.00    -0.291 OA
BRANCH  13  14
ATOM     14  C   UNL d   1      -2.453   1.522   1.050  0.00  0.00     0.181 A 
ATOM     15  C   UNL d   1      -3.168   1.772  -0.107  0.00  0.00     0.154 A 
ATOM     16  C   UNL d   1      -4.563   1.689  -0.098  0.00  0.00     0.042 A 
ATOM     17  C   UNL d   1      -5.202   1.356   1.093  0.00  0.00     0.020 A 
ATOM     18  C   UNL d   1      -4.423   1.152   2.222  0.00  0.00     0.090 A 
ATOM     19  N   UNL d   1      -3.075   1.246   2.229  0.00  0.00    -0.345 N 
ATOM     20  HN  UNL d   1      -2.542   1.114   3.088  1.00  0.00     0.167 HD
BRANCH  15  21
ATOM     21  N   UNL d   1      -2.489   2.095  -1.333  0.00  0.00    -0.111 N 
ATOM     22  O   UNL d   1      -1.663   1.279  -1.763  0.00  0.00    -0.532 OA
ATOM     23  O   UNL d   1      -2.832   3.140  -1.901  0.00  0.00    -0.532 OA
ENDBRANCH  15  21
ENDBRANCH  13  14
ENDBRANCH  10  13
ENDBRANCH   1   7
BRANCH   4  24
ATOM     24  O   UNL d   1       4.109  -5.478   5.733  0.00  0.00    -0.291 OA
BRANCH  24  25
ATOM     25  C   UNL d   1       4.366  -6.651   5.047  0.00  0.00     0.181 A 
ATOM     26  C   UNL d   1       4.271  -7.891   5.664  0.00  0.00     0.154 A 
ATOM     27  C   UNL d   1       4.487  -9.043   4.888  0.00  0.00     0.042 A 
ATOM     28  C   UNL d   1       4.803  -8.916   3.538  0.00  0.00     0.020 A 
ATOM     29  C   UNL d   1       4.918  -7.644   3.012  0.00  0.00     0.090 A 
ATOM     30  N   UNL d   1       4.725  -6.522   3.736  0.00  0.00    -0.345 N 
ATOM     31  HN  UNL d   1       4.843  -5.601   3.315  1.00  0.00     0.167 HD
BRANCH  26  32
ATOM     32  N   UNL d   1       3.933  -8.044   7.076  0.00  0.00    -0.111 N 
ATOM     33  O   UNL d   1       3.682  -7.038   7.750  0.00  0.00    -0.532 OA
ATOM     34  O   UNL d   1       3.915  -9.197   7.529  0.00  0.00    -0.532 OA
ENDBRANCH  26  32
ENDBRANCH  24  25
ENDBRANCH   4  24
TORSDOF 7
