REMARK  7 active torsions:
REMARK  status: ('A' for Active; 'I' for Inactive)
REMARK    1  A    between atoms: C_5  and  C_1 
REMARK    2  A    between atoms: O_7  and  C_2 
REMARK    3  A    between atoms: C_3  and  C_10 
REMARK       I    between atoms: C_4  and  N_8 
REMARK       I    between atoms: N_14  and  C_4 
REMARK    4  A    between atoms: O_29  and  C_5 
REMARK    5  A    between atoms: N_8  and  C_6 
REMARK    6  A    between atoms: C_11  and  O_7 
REMARK    7  A    between atoms: C_18  and  N_14 
ROOT
ATOM      1  C   UNL d   1       2.010   3.368   0.774  0.00  0.00     0.071 A 
ATOM      2  C   UNL d   1       2.311   5.702   0.126  0.00  0.00     0.050 A 
ATOM      3  C   UNL d   1       2.169   2.994  -0.569  0.00  0.00     0.102 A 
ATOM      4  C   UNL d   1       2.026   4.729   1.100  0.00  0.00     0.048 A 
ATOM      5  C   UNL d   1       2.579   5.294  -1.189  0.00  0.00     0.019 A 
ATOM      6  C   UNL d   1       2.508   3.947  -1.535  0.00  0.00     0.040 A 
ENDROOT
BRANCH   1   7
ATOM      7  N   UNL d   1       1.772   2.459   1.819  0.00  0.00    -0.306 N 
ATOM      8  C   UNL d   1       2.424   1.293   2.150  0.00  0.00     0.325 C 
ATOM      9  N   UNL d   1       3.569   1.011   1.450  0.00  0.00    -0.309 N 
ATOM     10  O   UNL d   1       2.020   0.684   3.138  0.00  0.00    -0.247 OA
ATOM     11  H   UNL d   1       3.732   1.570   0.628  0.00  0.00     0.170 HD
ATOM     12  H   UNL d   1       1.248   2.790   2.622  0.00  0.00     0.171 HD
BRANCH   9  13
ATOM     13  C   UNL d   1       4.585   0.091   1.787  0.00  0.00     0.038 A 
ATOM     14  C   UNL d   1       4.527  -0.784   2.877  0.00  0.00     0.056 A 
ATOM     15  C   UNL d   1       5.608  -1.625   3.164  0.00  0.00     0.074 A 
ATOM     16 CL   UNL d   1       5.521  -2.691   4.516  0.00  0.00    -0.081 Cl
ATOM     17  C   UNL d   1       6.749  -1.593   2.368  0.00  0.00     0.138 A 
ATOM     18  C   UNL d   1       6.821  -0.733   1.279  0.00  0.00     0.046 A 
ATOM     19  F   UNL d   1       7.799  -2.383   2.635  0.00  0.00    -0.204 F 
ATOM     20  C   UNL d   1       5.740   0.103   0.988  0.00  0.00     0.032 A 
ENDBRANCH   9  13
ENDBRANCH   1   7
BRANCH   3  21
ATOM     21  O   UNL d   1       1.944   1.691  -0.954  0.00  0.00    -0.307 OA
BRANCH  21  22
ATOM     22  C   UNL d   1       1.000   1.419  -1.904  0.00  0.00     0.099 A 
ATOM     23  C   UNL d   1       1.000   0.222  -2.597  0.00  0.00     0.114 A 
ATOM     24  S   UNL d   1      -0.299   0.161  -3.726  0.00  0.00    -0.093 SA
ATOM     25  C   UNL d   1      -0.856   1.711  -3.288  0.00  0.00     0.053 A 
ATOM     26  C   UNL d   1      -0.099   2.260  -2.280  0.00  0.00     0.046 A 
BRANCH  23  27
ATOM     27  C   UNL d   1       1.895  -0.917  -2.532  0.00  0.00     0.302 C 
ATOM     28  O   UNL d   1       1.662  -2.040  -2.963  0.00  0.00    -0.259 OA
BRANCH  27  29
ATOM     29  O   UNL d   1       3.076  -0.559  -1.949  0.00  0.00    -0.322 OA
ATOM     30  C   UNL d   1       4.043  -1.605  -1.865  0.00  0.00     0.213 C 
ENDBRANCH  27  29
ENDBRANCH  23  27
ENDBRANCH  21  22
ENDBRANCH   3  21
BRANCH   2  31
ATOM     31  C   UNL d   1       2.358   7.170   0.476  0.00  0.00     0.417 C 
ATOM     32  F   UNL d   1       1.947   7.439   1.745  0.00  0.00    -0.166 F 
ATOM     33  F   UNL d   1       3.612   7.686   0.367  0.00  0.00    -0.166 F 
ATOM     34  F   UNL d   1       1.570   7.922  -0.341  0.00  0.00    -0.166 F 
ENDBRANCH   2  31
TORSDOF 7
