REMARK  6 active torsions:
REMARK  status: ('A' for Active; 'I' for Inactive)
REMARK    1  A    between atoms: C_5  and  C_1 
REMARK    2  A    between atoms: C_6  and  C_2 
REMARK       I    between atoms: N_9  and  C_5 
REMARK    3  A    between atoms: C_19  and  N_9 
REMARK    4  A    between atoms: C_20  and  N_9 
REMARK    5  A    between atoms: C_13  and  C_19 
REMARK    6  A    between atoms: C_14  and  C_20 
ROOT
ATOM      1  C   UNL d   1      -0.043  -1.226  -0.050  0.00  0.00     0.092 C 
ATOM      2  C   UNL d   1      -1.357  -0.632  -0.049  0.00  0.00     0.086 C 
ATOM      3  N   UNL d   1      -1.250   0.674  -0.368  0.00  0.00    -0.259 N 
ATOM      4  HN  UNL d   1      -2.016   1.308  -0.600  1.00  0.00     0.195 HD
ATOM      5  O   UNL d   1       0.083   0.986  -0.323  0.00  0.00    -0.241 OA
ATOM      6  C   UNL d   1       0.804  -0.129  -0.069  0.00  0.00     0.090 C 
ATOM      7  C   UNL d   1       2.252   0.073   0.133  0.00  0.00     0.080 C 
ENDROOT
BRANCH   1   8
ATOM      8  C   UNL d   1       0.356  -2.610   0.125  0.00  0.00     0.259 C 
ATOM      9  N   UNL d   1       1.250  -3.172  -0.813  0.00  0.00    -0.341 N 
ATOM     10  O   UNL d   1      -0.115  -3.257   1.058  0.00  0.00    -0.267 OA
BRANCH   9  11
ATOM     11  C   UNL d   1       1.624  -4.575  -0.625  0.00  0.00     0.153 C 
BRANCH  11  12
ATOM     12  C   UNL d   1       3.027  -4.767  -0.115  0.00  0.00    -0.017 C 
ATOM     13  C   UNL d   1       3.897  -3.859   0.347  0.00  0.00     0.008 C 
ENDBRANCH  11  12
ENDBRANCH   9  11
BRANCH   9  14
ATOM     14  C   UNL d   1       1.762  -2.497  -2.013  0.00  0.00     0.153 C 
BRANCH  14  15
ATOM     15  C   UNL d   1       1.261  -3.135  -3.272  0.00  0.00    -0.017 C 
ATOM     16  C   UNL d   1       2.057  -3.613  -4.238  0.00  0.00     0.008 C 
ENDBRANCH  14  15
ENDBRANCH   9  14
ENDBRANCH   1   8
BRANCH   2  17
ATOM     17  C   UNL d   1      -2.687  -1.194   0.242  0.00  0.00     0.037 A 
ATOM     18  C   UNL d   1      -3.567  -0.523   1.132  0.00  0.00     0.048 A 
ATOM     19 CL   UNL d   1      -3.157   0.940   1.977  0.00  0.00    -0.083 Cl
ATOM     20  C   UNL d   1      -4.849  -1.022   1.415  0.00  0.00     0.025 A 
ATOM     21  C   UNL d   1      -5.276  -2.217   0.856  0.00  0.00     0.003 A 
ATOM     22  C   UNL d   1      -4.431  -2.898  -0.014  0.00  0.00     0.025 A 
ATOM     23  C   UNL d   1      -3.163  -2.383  -0.341  0.00  0.00     0.048 A 
ATOM     24 CL   UNL d   1      -2.300  -3.257  -1.561  0.00  0.00    -0.083 Cl
ENDBRANCH   2  17
TORSDOF 6
