REMARK  7 active torsions:
REMARK  status: ('A' for Active; 'I' for Inactive)
REMARK    1  A    between atoms: C_2  and  C_1 
REMARK    2  A    between atoms: N_3  and  C_1 
REMARK    3  A    between atoms: C_4  and  C_1 
REMARK    4  A    between atoms: N_5  and  C_1 
REMARK       I    between atoms: C_6  and  N_3 
REMARK    5  A    between atoms: O_15  and  C_4 
REMARK    6  A    between atoms: C_7  and  N_5 
REMARK    7  A    between atoms: C_21  and  O_15 
ROOT
ATOM      1  C   UNL d   1       0.869  -0.043  -0.019  0.00  0.00     0.296 C 
ENDROOT
BRANCH   1   2
ATOM      2  C   UNL d   1       0.119  -1.306   0.545  0.00  0.00     0.442 C 
ATOM      3  F   UNL d   1      -0.416  -1.071   1.774  0.00  0.00    -0.166 F 
ATOM      4  F   UNL d   1      -0.890  -1.747  -0.243  0.00  0.00    -0.166 F 
ATOM      5  F   UNL d   1       0.962  -2.361   0.708  0.00  0.00    -0.166 F 
ENDBRANCH   1   2
BRANCH   1   6
ATOM      6  N   UNL d   1       0.549   1.244   0.592  0.00  0.00    -0.319 N 
ATOM      7  C   UNL d   1      -0.744   1.666   0.721  0.00  0.00     0.216 C 
ATOM      8  O   UNL d   1      -1.697   0.972   0.392  0.00  0.00    -0.274 OA
ATOM      9  C   UNL d   1      -0.905   3.047   1.291  0.00  0.00     0.117 C 
ATOM     10  H   UNL d   1       1.326   1.825   0.863  0.00  0.00     0.165 HD
ENDBRANCH   1   6
BRANCH   1  11
ATOM     11  C   UNL d   1       0.502   0.032  -1.534  0.00  0.00     0.318 C 
ATOM     12  O   UNL d   1       0.096   1.033  -2.113  0.00  0.00    -0.260 OA
BRANCH  11  13
ATOM     13  O   UNL d   1       0.839  -1.126  -2.192  0.00  0.00    -0.318 OA
BRANCH  13  14
ATOM     14  C   UNL d   1       0.445  -1.182  -3.573  0.00  0.00     0.174 C 
ATOM     15  C   UNL d   1       1.431  -0.441  -4.460  0.00  0.00     0.034 C 
ENDBRANCH  13  14
ENDBRANCH  11  13
ENDBRANCH   1  11
BRANCH   1  16
ATOM     16  N   UNL d   1       2.361  -0.069   0.070  0.00  0.00    -0.348 N 
ATOM     17  H   UNL d   1       2.825   0.265  -0.769  0.00  0.00     0.163 HD
BRANCH  16  18
ATOM     18  C   UNL d   1       3.156  -0.184   1.192  0.00  0.00     0.033 A 
ATOM     19  C   UNL d   1       2.676  -0.361   2.490  0.00  0.00     0.071 A 
ATOM     20  C   UNL d   1       3.558  -0.501   3.563  0.00  0.00     0.118 A 
ATOM     21  F   UNL d   1       3.065  -0.653   4.800  0.00  0.00    -0.206 F 
ATOM     22  C   UNL d   1       4.933  -0.483   3.378  0.00  0.00     0.042 A 
ATOM     23  C   UNL d   1       5.435  -0.335   2.092  0.00  0.00     0.005 A 
ATOM     24  C   UNL d   1       4.553  -0.196   1.015  0.00  0.00     0.029 A 
ENDBRANCH  16  18
ENDBRANCH   1  16
TORSDOF 7
