REMARK  9 active torsions:
REMARK  status: ('A' for Active; 'I' for Inactive)
REMARK    1  A    between atoms: C_7  and  C_1 
REMARK    2  A    between atoms: N_8  and  C_2 
REMARK    3  A    between atoms: C_9  and  C_3 
REMARK       I    between atoms: C_10  and  N_8 
REMARK    4  A    between atoms: C_25  and  C_10 
REMARK    5  A    between atoms: C_11  and  C_26 
REMARK    6  A    between atoms: O_22  and  C_11 
REMARK    7  A    between atoms: S_19  and  C_25 
REMARK    8  A    between atoms: C_26  and  S_19 
REMARK    9  A    between atoms: O_27  and  C_21 
ROOT
ATOM      1  C   UNL d   1       1.319   0.690  -0.110  0.00  0.00     0.147 A 
ATOM      2  C   UNL d   1       0.079  -1.171  -0.017  0.00  0.00     0.138 A 
ATOM      3  C   UNL d   1       1.404  -0.747  -0.007  0.00  0.00     0.053 A 
ATOM      4  N   UNL d   1       0.033   1.091  -0.118  0.00  0.00    -0.292 N 
ATOM      5  HN  UNL d   1      -0.316   2.050  -0.125  1.00  0.00     0.187 HD
ATOM      6  N   UNL d   1      -0.690  -0.036  -0.115  0.00  0.00    -0.280 N 
ATOM      7  C   UNL d   1      -2.126   0.087  -0.050  0.00  0.00     0.179 C 
ENDROOT
BRANCH   2   8
ATOM      8  N   UNL d   1      -0.344  -2.497   0.074  0.00  0.00    -0.310 N 
ATOM      9  C   UNL d   1      -1.288  -3.043  -0.868  0.00  0.00     0.232 C 
ATOM     10  O   UNL d   1      -1.736  -2.337  -1.759  0.00  0.00    -0.272 OA
ATOM     11  H   UNL d   1       0.174  -3.118   0.688  0.00  0.00     0.170 HD
BRANCH   9  12
ATOM     12  C   UNL d   1      -1.609  -4.513  -0.711  0.00  0.00     0.177 C 
BRANCH  12  13
ATOM     13  S   UNL d   1      -3.132  -4.691   0.272  0.00  0.00    -0.149 SA
BRANCH  13  14
ATOM     14  C   UNL d   1      -3.380  -6.500   0.152  0.00  0.00     0.184 C 
BRANCH  14  15
ATOM     15  C   UNL d   1      -2.290  -7.298   0.847  0.00  0.00     0.149 C 
ATOM     16  O   UNL d   1      -1.210  -6.857   1.191  0.00  0.00    -0.649 OA
BRANCH  15  17
ATOM     17  O   UNL d   1      -2.604  -8.605   0.994  0.00  0.00    -0.776 OA
ATOM     18  H   UNL d   1      -3.492  -8.868   0.688  0.00  0.00     0.167 HD
ENDBRANCH  15  17
ENDBRANCH  14  15
ENDBRANCH  13  14
ENDBRANCH  12  13
ENDBRANCH   9  12
ENDBRANCH   2   8
BRANCH   3  19
ATOM     19  C   UNL d   1       2.575  -1.626  -0.075  0.00  0.00    -0.020 A 
ATOM     20  C   UNL d   1       2.558  -2.797  -0.852  0.00  0.00     0.015 A 
ATOM     21  C   UNL d   1       3.713  -3.572  -1.034  0.00  0.00     0.037 A 
ATOM     22  C   UNL d   1       4.921  -3.164  -0.477  0.00  0.00     0.068 A 
ATOM     23  C   UNL d   1       4.945  -2.015   0.312  0.00  0.00     0.037 A 
ATOM     24  C   UNL d   1       3.779  -1.273   0.542  0.00  0.00     0.015 A 
BRANCH  22  25
ATOM     25  O   UNL d   1       6.130  -3.778  -0.639  0.00  0.00    -0.356 OA
ATOM     26  C   UNL d   1       6.153  -4.976  -1.407  0.00  0.00     0.210 C 
ENDBRANCH  22  25
ENDBRANCH   3  19
BRANCH   1  27
ATOM     27  C   UNL d   1       2.416   1.729  -0.223  0.00  0.00     0.434 C 
ATOM     28  F   UNL d   1       3.631   1.210  -0.534  0.00  0.00    -0.165 F 
ATOM     29  F   UNL d   1       2.152   2.653  -1.185  0.00  0.00    -0.165 F 
ATOM     30  F   UNL d   1       2.577   2.408   0.945  0.00  0.00    -0.165 F 
ENDBRANCH   1  27
TORSDOF 9
