REMARK  2 active torsions:
REMARK  status: ('A' for Active; 'I' for Inactive)
REMARK    1  A    between atoms: C_2  and  C_1 
REMARK    2  A    between atoms: C_14  and  N_3 
ROOT
ATOM      1  C   UNL d   1      -0.849  -1.956  -0.282  0.00  0.00     0.157 C 
ATOM      2  N   UNL d   1      -1.774  -1.090  -0.817  0.00  0.00    -0.222 N 
ATOM      3  N   UNL d   1      -1.113  -0.004  -1.284  0.00  0.00    -0.219 N 
ATOM      4  HN  UNL d   1      -1.488   0.738  -1.875  1.00  0.00     0.210 HD
ATOM      5  N   UNL d   1       0.116  -0.107  -0.817  0.00  0.00    -0.226 N 
ATOM      6  HN  UNL d   1       0.841   0.600  -0.940  1.00  0.00     0.210 HD
ATOM      7  N   UNL d   1       0.290  -1.290  -0.143  0.00  0.00    -0.268 N 
ATOM      8  HN  UNL d   1       1.123  -1.595   0.360  1.00  0.00     0.190 HD
ENDROOT
BRANCH   1   9
ATOM      9  C   UNL d   1      -0.902  -3.440  -0.126  0.00  0.00     0.039 C 
ATOM     10  C   UNL d   1      -1.527  -4.414  -0.972  0.00  0.00     0.006 C 
ATOM     11  C   UNL d   1      -0.707  -5.538  -0.843  0.00  0.00     0.043 C 
ATOM     12  C   UNL d   1      -2.515  -4.436  -1.986  0.00  0.00     0.021 C 
ATOM     13  C   UNL d   1      -0.624  -6.533  -1.818  0.00  0.00     0.031 C 
ATOM     14  N   UNL d   1      -0.003  -5.404   0.331  0.00  0.00    -0.364 N 
ATOM     15  C   UNL d   1      -1.481  -6.429  -2.910  0.00  0.00     0.009 C 
ATOM     16  C   UNL d   1      -2.496  -5.469  -2.944  0.00  0.00    -0.061 C 
ATOM     17  C   UNL d   1      -3.503  -5.546  -4.057  0.00  0.00     0.048 C 
ATOM     18  C   UNL d   1      -0.032  -4.096   0.717  0.00  0.00     0.104 C 
ATOM     19  H   UNL d   1       0.592  -6.118   0.726  0.00  0.00     0.165 HD
ENDBRANCH   1   9
BRANCH   2  20
ATOM     20  C   UNL d   1      -3.174  -1.091  -0.683  0.00  0.00     0.060 A 
ATOM     21  C   UNL d   1      -3.768  -1.783   0.373  0.00  0.00     0.033 A 
ATOM     22  C   UNL d   1      -5.145  -1.717   0.568  0.00  0.00     0.026 A 
ATOM     23  C   UNL d   1      -5.933  -0.963  -0.310  0.00  0.00     0.034 A 
ATOM     24  C   UNL d   1      -5.344  -0.263  -1.357  0.00  0.00     0.026 A 
ATOM     25 CL   UNL d   1      -7.634  -0.891  -0.070  0.00  0.00    -0.084 Cl
ATOM     26  C   UNL d   1      -3.960  -0.307  -1.541  0.00  0.00     0.033 A 
ENDBRANCH   2  20
TORSDOF 2
