REMARK  6 active torsions:
REMARK  status: ('A' for Active; 'I' for Inactive)
REMARK    1  A    between atoms: C_13  and  N_1 
REMARK    2  A    between atoms: C_9  and  C_2 
REMARK    3  A    between atoms: C_8  and  C_7 
REMARK    4  A    between atoms: C_17  and  C_8 
REMARK    5  A    between atoms: C_10  and  N_16 
REMARK    6  A    between atoms: N_16  and  C_12 
ROOT
ATOM      1  N   UNL d   1       3.766  -3.286   0.175  0.00  0.00    -0.365 N 
ATOM      2  H   UNL d   1       2.823  -2.902   0.205  0.00  0.00     0.165 HD
ENDROOT
BRANCH   1   3
ATOM      3  C   UNL d   1       3.817  -4.694   0.081  0.00  0.00     0.046 A 
ATOM      4  C   UNL d   1       3.064  -5.410  -0.873  0.00  0.00     0.042 A 
ATOM      5  C   UNL d   1       3.114  -6.818  -0.897  0.00  0.00     0.018 A 
ATOM      6  C   UNL d   1       3.934  -7.522  -0.016  0.00  0.00     0.008 A 
ATOM      7  C   UNL d   1       4.713  -6.833   0.912  0.00  0.00    -0.060 A 
ATOM      8  C   UNL d   1       4.640  -5.434   0.954  0.00  0.00     0.037 A 
ATOM      9  C   UNL d   1       5.610  -7.559   1.871  0.00  0.00     0.048 C 
BRANCH   4  10
ATOM     10  C   UNL d   1       2.160  -4.782  -1.869  0.00  0.00     0.194 C 
ATOM     11  O   UNL d   1       1.064  -5.306  -2.067  0.00  0.00    -0.287 OA
BRANCH  10  12
ATOM     12  C   UNL d   1       2.526  -3.582  -2.669  0.00  0.00     0.015 A 
ATOM     13  C   UNL d   1       1.487  -2.799  -3.193  0.00  0.00     0.015 A 
ATOM     14  C   UNL d   1       1.770  -1.686  -3.986  0.00  0.00     0.001 A 
ATOM     15  C   UNL d   1       3.094  -1.351  -4.265  0.00  0.00     0.000 A 
ATOM     16  C   UNL d   1       4.133  -2.131  -3.757  0.00  0.00     0.001 A 
ATOM     17  C   UNL d   1       3.852  -3.252  -2.969  0.00  0.00     0.015 A 
ENDBRANCH  10  12
ENDBRANCH   4  10
ENDBRANCH   1   3
BRANCH   1  18
ATOM     18  C   UNL d   1       4.773  -2.436   0.582  0.00  0.00     0.092 C 
ATOM     19  C   UNL d   1       6.093  -2.603   0.438  0.00  0.00     0.068 C 
BRANCH  19  20
ATOM     20  C   UNL d   1       7.016  -1.613   0.846  0.00  0.00     0.139 A 
ATOM     21  N   UNL d   1       8.199  -1.331   0.151  0.00  0.00    -0.225 N 
ATOM     22  N   UNL d   1       8.925  -0.484   0.930  0.00  0.00     0.001 NA
ATOM     23  N   UNL d   1       8.178  -0.198   1.981  0.00  0.00    -0.007 NA
ATOM     24  N   UNL d   1       6.992  -0.868   1.935  0.00  0.00    -0.270 N 
ATOM     25  HN  UNL d   1       6.232  -0.806   2.613  1.00  0.00     0.185 HD
BRANCH  21  26
ATOM     26  C   UNL d   1       8.714  -1.759  -1.112  0.00  0.00     0.056 A 
ATOM     27  C   UNL d   1       7.946  -2.470  -2.043  0.00  0.00     0.031 A 
ATOM     28  C   UNL d   1       8.527  -2.964  -3.217  0.00  0.00     0.002 A 
ATOM     29  C   UNL d   1       9.866  -2.712  -3.497  0.00  0.00     0.000 A 
ATOM     30  C   UNL d   1      10.620  -1.939  -2.619  0.00  0.00     0.002 A 
ATOM     31  C   UNL d   1      10.050  -1.462  -1.435  0.00  0.00     0.031 A 
ENDBRANCH  21  26
ENDBRANCH  19  20
ENDBRANCH   1  18
TORSDOF 6
