REMARK  6 active torsions:
REMARK  status: ('A' for Active; 'I' for Inactive)
REMARK    1  A    between atoms: S_10  and  C_2 
REMARK    2  A    between atoms: S_11  and  C_5 
REMARK    3  A    between atoms: C_7  and  C_13 
REMARK    4  A    between atoms: C_8  and  C_12 
REMARK    5  A    between atoms: C_12  and  S_10 
REMARK    6  A    between atoms: C_13  and  S_11 
ROOT
ATOM      1  C   UNL d   1      -0.357  -1.226  -0.100  0.00  0.00     0.103 A 
ATOM      2  C   UNL d   1       0.942  -0.737  -0.093  0.00  0.00     0.082 A 
ATOM      3  N   UNL d   1      -0.806   1.086  -0.072  0.00  0.00    -0.319 N 
ATOM      4  HN  UNL d   1      -1.350   1.949  -0.064  1.00  0.00     0.175 HD
ATOM      5  C   UNL d   1      -1.307  -0.143  -0.093  0.00  0.00     0.099 A 
ATOM      6  S   UNL d   1       0.838   0.991  -0.062  0.00  0.00    -0.005 SA
ATOM      7  C   UNL d   1      -0.718  -2.604  -0.118  0.00  0.00     0.104 C 
ATOM      8  N   UNL d   1      -0.976  -3.737  -0.139  0.00  0.00    -0.191 NA
ENDROOT
BRANCH   2   9
ATOM      9  S   UNL d   1       2.554  -1.442  -0.095  0.00  0.00    -0.115 SA
BRANCH   9  10
ATOM     10  C   UNL d   1       2.395  -3.241  -0.215  0.00  0.00     0.122 C 
BRANCH  10  11
ATOM     11  C   UNL d   1       3.755  -3.916  -0.174  0.00  0.00    -0.005 A 
ATOM     12  C   UNL d   1       4.370  -4.251   1.051  0.00  0.00     0.042 A 
ATOM     13 CL   UNL d   1       3.622  -3.913   2.576  0.00  0.00    -0.084 Cl
ATOM     14  C   UNL d   1       5.626  -4.870   1.093  0.00  0.00     0.024 A 
ATOM     15  C   UNL d   1       6.307  -5.163  -0.084  0.00  0.00     0.003 A 
ATOM     16  C   UNL d   1       5.730  -4.826  -1.306  0.00  0.00     0.024 A 
ATOM     17  C   UNL d   1       4.474  -4.205  -1.352  0.00  0.00     0.042 A 
ATOM     18 CL   UNL d   1       3.866  -3.806  -2.922  0.00  0.00    -0.084 Cl
ENDBRANCH  10  11
ENDBRANCH   9  10
ENDBRANCH   2   9
BRANCH   5  19
ATOM     19  S   UNL d   1      -3.067  -0.344  -0.082  0.00  0.00    -0.105 SA
BRANCH  19  20
ATOM     20  C   UNL d   1      -3.611   1.258  -0.772  0.00  0.00     0.123 C 
BRANCH  20  21
ATOM     21  C   UNL d   1      -5.115   1.348  -0.941  0.00  0.00    -0.005 A 
ATOM     22  C   UNL d   1      -5.931   1.988   0.015  0.00  0.00     0.042 A 
ATOM     23 CL   UNL d   1      -5.286   2.684   1.462  0.00  0.00    -0.084 Cl
ATOM     24  C   UNL d   1      -7.316   2.099  -0.167  0.00  0.00     0.024 A 
ATOM     25  C   UNL d   1      -7.924   1.566  -1.299  0.00  0.00     0.003 A 
ATOM     26  C   UNL d   1      -7.144   0.917  -2.249  0.00  0.00     0.024 A 
ATOM     27  C   UNL d   1      -5.757   0.808  -2.075  0.00  0.00     0.042 A 
ATOM     28 CL   UNL d   1      -4.880  -0.006  -3.326  0.00  0.00    -0.084 Cl
ENDBRANCH  20  21
ENDBRANCH  19  20
ENDBRANCH   5  19
TORSDOF 6
