REMARK  2 active torsions:
REMARK  status: ('A' for Active; 'I' for Inactive)
REMARK    1  A    between atoms: C_11  and  C_6 
REMARK    2  A    between atoms: C_14  and  C_10 
ROOT
ATOM      1  N   UNL d   1      -0.308  -0.582   0.082  0.00  0.00    -0.203 N 
ATOM      2  C   UNL d   1      -0.265   0.794  -0.057  0.00  0.00     0.133 A 
ATOM      3  N   UNL d   1      -1.581  -1.050   0.166  0.00  0.00    -0.287 N 
ATOM      4  HN  UNL d   1      -1.891  -2.012   0.301  1.00  0.00     0.188 HD
ATOM      5  C   UNL d   1      -1.562   1.226  -0.121  0.00  0.00     0.084 A 
ATOM      6  C   UNL d   1      -2.336   0.050   0.031  0.00  0.00     0.086 A 
ATOM      7  C   UNL d   1       0.826  -1.410   0.143  0.00  0.00     0.270 A 
ATOM      8  C   UNL d   1       2.119  -0.675   0.088  0.00  0.00     0.106 A 
ATOM      9  N   UNL d   1       0.943   1.403  -0.104  0.00  0.00    -0.340 N 
ATOM     10  C   UNL d   1       2.110   0.665  -0.015  0.00  0.00     0.049 A 
ATOM     11  O   UNL d   1       0.747  -2.628   0.245  0.00  0.00    -0.266 OA
ATOM     12  H   UNL d   1       1.050   2.415  -0.168  0.00  0.00     0.167 HD
ENDROOT
BRANCH  10  13
ATOM     13  C   UNL d   1       3.387   1.387  -0.004  0.00  0.00    -0.009 A 
ATOM     14  C   UNL d   1       4.040   1.704  -1.200  0.00  0.00     0.013 A 
ATOM     15  C   UNL d   1       5.285   2.337  -1.173  0.00  0.00     0.001 A 
ATOM     16  C   UNL d   1       5.880   2.657   0.047  0.00  0.00     0.000 A 
ATOM     17  C   UNL d   1       5.229   2.355   1.243  0.00  0.00     0.001 A 
ATOM     18  C   UNL d   1       3.985   1.723   1.218  0.00  0.00     0.013 A 
ENDBRANCH  10  13
BRANCH   6  19
ATOM     19  C   UNL d   1      -3.827   0.008   0.048  0.00  0.00     0.103 A 
ATOM     20  O   UNL d   1      -4.635   1.089  -0.187  0.00  0.00    -0.320 OA
ATOM     21  C   UNL d   1      -5.919   0.659  -0.099  0.00  0.00     0.142 A 
ATOM     22  C   UNL d   1      -5.961  -0.679   0.211  0.00  0.00     0.027 A 
ATOM     23  C   UNL d   1      -4.612  -1.101   0.299  0.00  0.00     0.041 A 
ENDBRANCH   6  19
TORSDOF 2
