REMARK  3 active torsions:
REMARK  status: ('A' for Active; 'I' for Inactive)
REMARK    1  A    between atoms: N_2  and  S_1 
REMARK    2  A    between atoms: O_15  and  C_8 
REMARK    3  A    between atoms: O_16  and  C_10 
ROOT
ATOM      1  N   UNL d   1       0.643  -0.380   1.518  0.00  0.00    -0.302 N 
ATOM      2  C   UNL d   1       0.685  -2.219   3.244  0.00  0.00    -0.026 A 
ATOM      3  C   UNL d   1       0.957  -1.819   1.796  0.00  0.00     0.125 C 
ATOM      4  C   UNL d   1       0.448  -1.265   4.245  0.00  0.00    -0.045 A 
ATOM      5  C   UNL d   1       0.698  -3.581   3.592  0.00  0.00     0.049 A 
ATOM      6  C   UNL d   1       1.099   0.527   2.602  0.00  0.00     0.140 C 
ATOM      7  C   UNL d   1       0.533  -3.995   4.917  0.00  0.00     0.102 A 
ATOM      8  C   UNL d   1       0.237  -1.682   5.572  0.00  0.00     0.047 A 
ATOM      9  C   UNL d   1       0.292  -3.038   5.918  0.00  0.00     0.102 A 
ATOM     10  C   UNL d   1       0.346   0.196   3.890  0.00  0.00     0.060 C 
ATOM     11  C   UNL d   1       2.409  -2.173   1.432  0.00  0.00     0.038 C 
ENDROOT
BRANCH   1  12
ATOM     12  S   UNL d   1       0.909   0.139  -0.070  0.00  0.00     0.225 S 
ATOM     13  O   UNL d   1       0.528  -0.935  -0.964  0.00  0.00    -0.206 OA
ATOM     14  O   UNL d   1       2.226   0.736  -0.130  0.00  0.00    -0.206 OA
ATOM     15  C   UNL d   1      -0.306   1.426  -0.252  0.00  0.00     0.186 C 
ENDBRANCH   1  12
BRANCH   7  16
ATOM     16  O   UNL d   1       0.563  -5.314   5.299  0.00  0.00    -0.353 OA
ATOM     17  C   UNL d   1       1.356  -6.176   4.490  0.00  0.00     0.210 C 
ENDBRANCH   7  16
BRANCH   9  18
ATOM     18  O   UNL d   1       0.132  -3.523   7.192  0.00  0.00    -0.353 OA
ATOM     19  C   UNL d   1      -0.059  -2.579   8.237  0.00  0.00     0.210 C 
ENDBRANCH   9  18
TORSDOF 3
