REMARK  6 active torsions:
REMARK  status: ('A' for Active; 'I' for Inactive)
REMARK    1  A    between atoms: N_2  and  S_1 
REMARK    2  A    between atoms: C_3  and  S_1 
REMARK    3  A    between atoms: C_4  and  N_2 
REMARK    4  A    between atoms: C_15  and  C_4 
REMARK    5  A    between atoms: S_14  and  C_15 
REMARK    6  A    between atoms: C_16  and  S_14 
ROOT
ATOM      1  N   UNL d   1       0.596   0.083   1.751  0.00  0.00    -0.269 N 
ATOM      2  H   UNL d   1      -0.180   0.719   1.945  0.00  0.00     0.180 HD
ENDROOT
BRANCH   1   3
ATOM      3  S   UNL d   1       1.402   0.445   0.350  0.00  0.00     0.264 S 
ATOM      4  O   UNL d   1       0.584   1.390  -0.373  0.00  0.00    -0.200 OA
ATOM      5  O   UNL d   1       1.867  -0.789  -0.248  0.00  0.00    -0.200 OA
BRANCH   3   6
ATOM      6  C   UNL d   1       2.827   1.312   0.960  0.00  0.00     0.083 A 
ATOM      7  C   UNL d   1       3.958   0.590   1.351  0.00  0.00     0.049 A 
ATOM      8  C   UNL d   1       5.107   1.280   1.733  0.00  0.00     0.037 A 
ATOM      9 CL   UNL d   1       6.511   0.402   2.200  0.00  0.00    -0.084 Cl
ATOM     10  C   UNL d   1       5.137   2.673   1.725  0.00  0.00     0.047 A 
ATOM     11  C   UNL d   1       4.001   3.381   1.337  0.00  0.00     0.037 A 
ATOM     12  C   UNL d   1       2.841   2.711   0.952  0.00  0.00     0.049 A 
ATOM     13 CL   UNL d   1       4.039   5.100   1.309  0.00  0.00    -0.084 Cl
ENDBRANCH   3   6
ENDBRANCH   1   3
BRANCH   1  14
ATOM     14  C   UNL d   1       0.822  -0.968   2.650  0.00  0.00     0.094 C 
ATOM     15  N   UNL d   1       1.579  -1.967   2.353  0.00  0.00    -0.388 N 
ATOM     16  H   UNL d   1       1.867  -1.909   1.365  0.00  0.00     0.157 HD
ATOM     17  HN  UNL d   1       1.854  -2.706   3.000  1.00  0.00     0.157 HD
BRANCH  14  18
ATOM     18  C   UNL d   1       0.189  -0.874   4.031  0.00  0.00     0.156 C 
BRANCH  18  19
ATOM     19  S   UNL d   1      -1.444  -0.058   3.945  0.00  0.00    -0.122 SA
BRANCH  19  20
ATOM     20  C   UNL d   1      -1.942   0.041   5.658  0.00  0.00     0.001 A 
ATOM     21  C   UNL d   1      -2.719   1.147   6.036  0.00  0.00     0.020 A 
ATOM     22  C   UNL d   1      -3.231   1.256   7.332  0.00  0.00     0.025 A 
ATOM     23  C   UNL d   1      -2.974   0.254   8.262  0.00  0.00     0.034 A 
ATOM     24  C   UNL d   1      -2.197  -0.846   7.906  0.00  0.00     0.025 A 
ATOM     25 CL   UNL d   1      -3.637   0.364   9.845  0.00  0.00    -0.084 Cl
ATOM     26  C   UNL d   1      -1.683  -0.954   6.607  0.00  0.00     0.020 A 
ENDBRANCH  19  20
ENDBRANCH  18  19
ENDBRANCH  14  18
ENDBRANCH   1  14
TORSDOF 6
