REMARK  6 active torsions:
REMARK  status: ('A' for Active; 'I' for Inactive)
REMARK    1  A    between atoms: C_2  and  C_1 
REMARK       I    between atoms: N_4  and  C_1 
REMARK    2  A    between atoms: C_20  and  N_4 
REMARK    3  A    between atoms: C_11  and  C_19 
REMARK    4  A    between atoms: S_14  and  C_21 
REMARK    5  A    between atoms: C_19  and  S_14 
REMARK    6  A    between atoms: C_21  and  C_20 
ROOT
ATOM      1  C   UNL d   1       2.569   1.220  -0.425  0.00  0.00     0.251 C 
ATOM      2  O   UNL d   1       3.265   2.028   0.176  0.00  0.00    -0.268 OA
ATOM      3  N   UNL d   1       2.562  -0.135  -0.156  0.00  0.00    -0.356 N 
ATOM      4  H   UNL d   1       1.778  -0.676  -0.496  0.00  0.00     0.162 HD
ENDROOT
BRANCH   3   5
ATOM      5  C   UNL d   1       3.287  -0.698   0.971  0.00  0.00     0.133 C 
BRANCH   5   6
ATOM      6  C   UNL d   1       4.810  -0.652   0.817  0.00  0.00     0.093 C 
BRANCH   6   7
ATOM      7  S   UNL d   1       5.569  -1.599   2.181  0.00  0.00    -0.163 SA
BRANCH   7   8
ATOM      8  C   UNL d   1       7.321  -1.317   1.788  0.00  0.00     0.112 C 
BRANCH   8   9
ATOM      9  C   UNL d   1       8.214  -1.974   2.814  0.00  0.00    -0.049 A 
ATOM     10  C   UNL d   1       8.580  -3.323   2.684  0.00  0.00     0.009 A 
ATOM     11  C   UNL d   1       9.390  -3.935   3.644  0.00  0.00     0.024 A 
ATOM     12  C   UNL d   1       9.835  -3.203   4.742  0.00  0.00     0.034 A 
ATOM     13  C   UNL d   1       9.470  -1.867   4.894  0.00  0.00     0.024 A 
ATOM     14 CL   UNL d   1      10.839  -3.954   5.921  0.00  0.00    -0.084 Cl
ATOM     15  C   UNL d   1       8.659  -1.256   3.935  0.00  0.00     0.009 A 
ENDBRANCH   8   9
ENDBRANCH   7   8
ENDBRANCH   6   7
ENDBRANCH   5   6
ENDBRANCH   3   5
BRANCH   1  16
ATOM     16  C   UNL d   1       1.626   1.673  -1.490  0.00  0.00     0.032 A 
ATOM     17  C   UNL d   1       1.240   0.827  -2.539  0.00  0.00     0.018 A 
ATOM     18  C   UNL d   1       0.342   1.277  -3.511  0.00  0.00     0.025 A 
ATOM     19  C   UNL d   1      -0.162   2.575  -3.441  0.00  0.00     0.034 A 
ATOM     20  C   UNL d   1       0.231   3.431  -2.413  0.00  0.00     0.025 A 
ATOM     21 CL   UNL d   1      -1.270   3.123  -4.637  0.00  0.00    -0.084 Cl
ATOM     22  C   UNL d   1       1.129   2.982  -1.439  0.00  0.00     0.018 A 
ENDBRANCH   1  16
TORSDOF 6
