REMARK  3 active torsions:
REMARK  status: ('A' for Active; 'I' for Inactive)
REMARK    1  A    between atoms: C_7  and  C_3 
REMARK    2  A    between atoms: C_8  and  O_9 
REMARK    3  A    between atoms: O_9  and  C_12 
ROOT
ATOM      1  C   UNL d   1       2.039  -2.406  -0.043  0.00  0.00    -0.009 A 
ATOM      2  C   UNL d   1       1.918  -3.322  -1.098  0.00  0.00     0.016 A 
ATOM      3  C   UNL d   1       3.049  -2.602   0.906  0.00  0.00     0.016 A 
ATOM      4  C   UNL d   1       3.818  -4.572  -0.281  0.00  0.00     0.074 A 
ATOM      5  C   UNL d   1       3.937  -3.672   0.778  0.00  0.00     0.038 A 
ATOM      6  C   UNL d   1       2.808  -4.393  -1.227  0.00  0.00     0.038 A 
ENDROOT
BRANCH   1   7
ATOM      7  C   UNL d   1       1.144  -1.260   0.026  0.00  0.00     0.049 A 
ATOM      8  N   UNL d   1      -0.149  -1.317  -0.469  0.00  0.00    -0.353 N 
ATOM      9  C   UNL d   1      -0.739  -0.149  -0.317  0.00  0.00     0.047 A 
ATOM     10  HN  UNL d   1      -0.580  -2.140  -0.889  1.00  0.00     0.166 HD
ATOM     11  S   UNL d   1       0.223   1.082   0.399  0.00  0.00    -0.087 SA
ATOM     12  C   UNL d   1      -2.136   0.152  -0.726  0.00  0.00     0.076 C 
ATOM     13  C   UNL d   1       1.520  -0.029   0.528  0.00  0.00     0.081 A 
ENDBRANCH   1   7
BRANCH   4  14
ATOM     14  O   UNL d   1       4.768  -5.552  -0.305  0.00  0.00    -0.290 OA
BRANCH  14  15
ATOM     15  C   UNL d   1       4.371  -6.779  -0.890  0.00  0.00     0.505 C 
ATOM     16  F   UNL d   1       4.642  -6.737  -2.217  0.00  0.00    -0.184 F 
ATOM     17  F   UNL d   1       5.164  -7.747  -0.361  0.00  0.00    -0.184 F 
ENDBRANCH  14  15
ENDBRANCH   4  14
TORSDOF 3
