REMARK  3 active torsions:
REMARK  status: ('A' for Active; 'I' for Inactive)
REMARK       I    between atoms: N_2  and  C_1 
REMARK       I    between atoms: N_4  and  C_1 
REMARK    1  A    between atoms: C_3  and  N_2 
REMARK    2  A    between atoms: N_7  and  C_3 
REMARK    3  A    between atoms: C_10  and  N_7 
ROOT
ATOM      1  C   UNL d   1       0.752   0.046   0.496  0.00  0.00     0.676 C 
ATOM      2  N   UNL d   1       0.398   1.044  -0.396  0.00  0.00    -0.167 N 
ATOM      3  N   UNL d   1      -0.162  -0.934   0.798  0.00  0.00    -0.214 N 
ATOM      4  N   UNL d   1       1.908   0.081   1.068  0.00  0.00    -0.234 N 
ATOM      5  HN  UNL d   1       2.252  -0.591   1.753  1.00  0.00     0.174 HD
ATOM      6  O   UNL d   1      -1.082  -3.654   0.733  0.00  0.00    -0.388 OA
ATOM      7  C   UNL d   1       0.080  -1.861   1.921  0.00  0.00     0.167 C 
ATOM      8  C   UNL d   1      -1.341  -1.312   0.005  0.00  0.00     0.167 C 
ATOM      9  C   UNL d   1       0.137  -3.305   1.412  0.00  0.00     0.188 C 
ATOM     10  C   UNL d   1      -1.272  -2.795  -0.401  0.00  0.00     0.188 C 
ATOM     11  H   UNL d   1      -0.563   0.995  -0.684  0.00  0.00     0.186 HD
ATOM     12  H   UNL d   1       2.425   0.896   0.720  0.00  0.00     0.174 HD
ENDROOT
BRANCH   2  13
ATOM     13  C   UNL d   1       1.084   2.080  -1.024  0.00  0.00     0.191 C 
ATOM     14  S   UNL d   1       2.741   2.262  -1.119  0.00  0.00    -0.040 SA
BRANCH  13  15
ATOM     15  N   UNL d   1       0.291   2.965  -1.721  0.00  0.00    -0.333 N 
ATOM     16  H   UNL d   1       0.778   3.486  -2.444  0.00  0.00     0.168 HD
BRANCH  15  17
ATOM     17  C   UNL d   1      -1.060   3.300  -1.506  0.00  0.00     0.034 A 
ATOM     18  C   UNL d   1      -1.679   3.166  -0.258  0.00  0.00     0.029 A 
ATOM     19  C   UNL d   1      -3.029   3.482  -0.101  0.00  0.00     0.002 A 
ATOM     20  C   UNL d   1      -3.765   3.943  -1.189  0.00  0.00     0.000 A 
ATOM     21  C   UNL d   1      -3.143   4.120  -2.425  0.00  0.00     0.002 A 
ATOM     22  C   UNL d   1      -1.788   3.820  -2.579  0.00  0.00     0.029 A 
ENDBRANCH  15  17
ENDBRANCH  13  15
ENDBRANCH   2  13
TORSDOF 3
