REMARK  5 active torsions:
REMARK  status: ('A' for Active; 'I' for Inactive)
REMARK    1  A    between atoms: O_6  and  C_1 
REMARK    2  A    between atoms: N_4  and  C_2 
REMARK    3  A    between atoms: N_5  and  C_3 
REMARK    4  A    between atoms: C_11  and  O_6 
REMARK    5  A    between atoms: C_7  and  C_8 
ROOT
ATOM      1  C   UNL d   1       1.303  -0.404   0.093  0.00  0.00     0.142 A 
ATOM      2  C   UNL d   1       0.293  -1.369   0.212  0.00  0.00     0.140 A 
ATOM      3  C   UNL d   1       0.867   0.919  -0.102  0.00  0.00     0.140 A 
ATOM      4  C   UNL d   1      -1.479   0.284  -0.133  0.00  0.00     0.052 A 
ATOM      5  C   UNL d   1      -0.492   1.271  -0.218  0.00  0.00     0.055 A 
ATOM      6  C   UNL d   1      -1.075  -1.042   0.076  0.00  0.00     0.055 A 
ENDROOT
BRANCH   1   7
ATOM      7  O   UNL d   1       2.659  -0.569   0.240  0.00  0.00    -0.303 OA
BRANCH   7   8
ATOM      8  C   UNL d   1       3.329  -1.693  -0.170  0.00  0.00     0.115 A 
ATOM      9  C   UNL d   1       3.027  -2.460  -1.296  0.00  0.00     0.153 A 
ATOM     10  C   UNL d   1       3.728  -3.630  -1.569  0.00  0.00     0.087 A 
ATOM     11  F   UNL d   1       2.026  -2.101  -2.113  0.00  0.00    -0.203 F 
ATOM     12  C   UNL d   1       4.782  -3.994  -0.739  0.00  0.00     0.119 A 
ATOM     13  C   UNL d   1       5.157  -3.197   0.337  0.00  0.00     0.045 A 
ATOM     14  F   UNL d   1       5.452  -5.128  -0.981  0.00  0.00    -0.206 F 
ATOM     15  C   UNL d   1       4.431  -2.040   0.619  0.00  0.00     0.043 A 
ENDBRANCH   7   8
ENDBRANCH   1   7
BRANCH   2  16
ATOM     16  N   UNL d   1       0.569  -2.746   0.575  0.00  0.00    -0.113 N 
ATOM     17  O   UNL d   1       1.183  -2.939   1.632  0.00  0.00    -0.532 OA
ATOM     18  O   UNL d   1       0.119  -3.626  -0.171  0.00  0.00    -0.532 OA
ENDBRANCH   2  16
BRANCH   3  19
ATOM     19  N   UNL d   1       1.833   2.005  -0.145  0.00  0.00    -0.113 N 
ATOM     20  O   UNL d   1       2.556   2.164   0.847  0.00  0.00    -0.532 OA
ATOM     21  O   UNL d   1       1.815   2.725  -1.152  0.00  0.00    -0.532 OA
ENDBRANCH   3  19
BRANCH   4  22
ATOM     22  C   UNL d   1      -2.951   0.621  -0.224  0.00  0.00     0.417 C 
ATOM     23  F   UNL d   1      -3.192   1.956  -0.321  0.00  0.00    -0.166 F 
ATOM     24  F   UNL d   1      -3.545   0.045  -1.300  0.00  0.00    -0.166 F 
ATOM     25  F   UNL d   1      -3.639   0.191   0.868  0.00  0.00    -0.166 F 
ENDBRANCH   4  22
TORSDOF 5
