REMARK  5 active torsions:
REMARK  status: ('A' for Active; 'I' for Inactive)
REMARK    1  A    between atoms: C_4  and  C_1 
REMARK    2  A    between atoms: N_7  and  N_2 
REMARK    3  A    between atoms: O_9  and  C_4 
REMARK    4  A    between atoms: C_10  and  N_7 
REMARK    5  A    between atoms: C_11  and  O_9 
ROOT
ATOM      1  C   UNL d   1       0.876   0.090  -0.032  0.00  0.00     0.204 C 
ATOM      2  N   UNL d   1       0.226   0.127  -1.163  0.00  0.00    -0.285 N 
ATOM      3  HN  UNL d   1      -0.790   0.213  -1.169  1.00  0.00     0.188 HD
ATOM      4  C   UNL d   1       2.314   0.018  -0.053  0.00  0.00     0.125 C 
ATOM      5  N   UNL d   1       3.473  -0.047  -0.134  0.00  0.00    -0.190 NA
ENDROOT
BRANCH   1   6
ATOM      6  C   UNL d   1       0.166   0.070   1.296  0.00  0.00     0.322 C 
ATOM      7  O   UNL d   1       0.686   0.516   2.303  0.00  0.00    -0.257 OA
BRANCH   6   8
ATOM      8  O   UNL d   1      -0.962  -0.663   1.208  0.00  0.00    -0.316 OA
BRANCH   8   9
ATOM      9  C   UNL d   1      -1.404  -1.251   2.438  0.00  0.00     0.175 C 
ATOM     10  C   UNL d   1      -0.744  -2.614   2.549  0.00  0.00     0.034 C 
ENDBRANCH   8   9
ENDBRANCH   6   8
ENDBRANCH   1   6
BRANCH   2  11
ATOM     11  N   UNL d   1       0.918   0.047  -2.337  0.00  0.00    -0.300 N 
ATOM     12  H   UNL d   1       1.934   0.113  -2.406  0.00  0.00     0.187 HD
BRANCH  11  13
ATOM     13  C   UNL d   1       0.241   0.144  -3.566  0.00  0.00     0.048 A 
ATOM     14  C   UNL d   1      -1.143   0.332  -3.655  0.00  0.00     0.031 A 
ATOM     15  C   UNL d   1      -1.779   0.395  -4.898  0.00  0.00     0.002 A 
ATOM     16  C   UNL d   1      -1.041   0.246  -6.070  0.00  0.00     0.000 A 
ATOM     17  C   UNL d   1       0.332   0.026  -5.999  0.00  0.00     0.002 A 
ATOM     18  C   UNL d   1       0.965  -0.030  -4.755  0.00  0.00     0.031 A 
ENDBRANCH  11  13
ENDBRANCH   2  11
TORSDOF 5
