REMARK  3 active torsions:
REMARK  status: ('A' for Active; 'I' for Inactive)
REMARK    1  A    between atoms: N_2  and  C_1 
REMARK    2  A    between atoms: N_3  and  C_1 
REMARK    3  A    between atoms: C_4  and  N_2 
ROOT
ATOM      1  N   UNL d   1       0.535  -1.069  -0.548  0.00  0.00    -0.332 N 
ATOM      2  H   UNL d   1      -0.345  -1.040  -1.054  0.00  0.00     0.168 HD
ENDROOT
BRANCH   1   3
ATOM      3  C   UNL d   1       1.077   0.183  -0.292  0.00  0.00     0.174 C 
ATOM      4  S   UNL d   1       2.650   0.608  -0.722  0.00  0.00    -0.041 SA
BRANCH   3   5
ATOM      5  N   UNL d   1       0.139   1.070   0.280  0.00  0.00    -0.358 N 
ATOM      6  C   UNL d   1       0.409   2.512   0.355  0.00  0.00     0.125 C 
ATOM      7  C   UNL d   1      -0.824   3.410   0.453  0.00  0.00     0.020 C 
ATOM      8  C   UNL d   1      -1.958   2.997  -0.485  0.00  0.00     0.002 C 
ATOM      9  C   UNL d   1      -2.895   1.969   0.150  0.00  0.00     0.002 C 
ATOM     10  C   UNL d   1      -2.296   0.579   0.359  0.00  0.00     0.020 C 
ATOM     11  C   UNL d   1      -0.967   0.562   1.105  0.00  0.00     0.125 C 
ENDBRANCH   3   5
ENDBRANCH   1   3
BRANCH   1  12
ATOM     12  C   UNL d   1       1.191  -2.322  -0.554  0.00  0.00     0.056 A 
ATOM     13  C   UNL d   1       0.712  -3.362  -1.366  0.00  0.00     0.062 A 
ATOM     14  C   UNL d   1       1.316  -4.622  -1.346  0.00  0.00     0.045 A 
ATOM     15 CL   UNL d   1      -0.625  -3.112  -2.437  0.00  0.00    -0.082 Cl
ATOM     16  C   UNL d   1       2.389  -4.851  -0.488  0.00  0.00     0.012 A 
ATOM     17  C   UNL d   1       2.859  -3.840   0.346  0.00  0.00     0.021 A 
ATOM     18 BR   UNL d   1       3.204  -6.556  -0.435  0.00  0.00    -0.051 Br
ATOM     19  C   UNL d   1       2.259  -2.580   0.314  0.00  0.00     0.032 A 
ENDBRANCH   1  12
TORSDOF 3
