REMARK  1 active torsions:
REMARK  status: ('A' for Active; 'I' for Inactive)
REMARK    1  A    between atoms: C_11  and  C_4 
ROOT
ATOM      1  S   UNL d   1       0.886   1.461  -0.404  0.00  0.00     0.158 S 
ATOM      2  S   UNL d   1       0.896  -1.465  -0.395  0.00  0.00     0.158 S 
ATOM      3  C   UNL d   1       1.723   0.003   0.089  0.00  0.00     0.279 C 
ATOM      4  C   UNL d   1      -1.447  -0.007  -0.234  0.00  0.00     0.046 C 
ATOM      5  C   UNL d   1      -0.746  -1.277   0.246  0.00  0.00     0.151 C 
ATOM      6  C   UNL d   1      -0.755   1.267   0.242  0.00  0.00     0.151 C 
ATOM      7  O   UNL d   1       1.490   2.557   0.330  0.00  0.00    -0.227 OA
ATOM      8  O   UNL d   1       0.802   1.516  -1.848  0.00  0.00    -0.227 OA
ATOM      9  O   UNL d   1       0.816  -1.531  -1.839  0.00  0.00    -0.227 OA
ATOM     10  O   UNL d   1       1.507  -2.552   0.349  0.00  0.00    -0.227 OA
ENDROOT
BRANCH   4  11
ATOM     11  C   UNL d   1      -2.884  -0.019   0.275  0.00  0.00    -0.052 A 
ATOM     12  C   UNL d   1      -3.953  -0.046  -0.631  0.00  0.00     0.007 A 
ATOM     13  C   UNL d   1      -5.272  -0.086  -0.170  0.00  0.00     0.001 A 
ATOM     14  C   UNL d   1      -5.538  -0.097   1.197  0.00  0.00     0.000 A 
ATOM     15  C   UNL d   1      -4.487  -0.060   2.108  0.00  0.00     0.001 A 
ATOM     16  C   UNL d   1      -3.171  -0.020   1.652  0.00  0.00     0.007 A 
ENDBRANCH   4  11
TORSDOF 1
