REMARK  7 active torsions:
REMARK  status: ('A' for Active; 'I' for Inactive)
REMARK    1  A    between atoms: N_2  and  C_1 
REMARK       I    between atoms: C_3  and  N_2 
REMARK    2  A    between atoms: C_10  and  C_3 
REMARK    3  A    between atoms: C_4  and  C_11 
REMARK    4  A    between atoms: O_9  and  C_4 
REMARK    5  A    between atoms: C_16  and  C_6 
REMARK    6  A    between atoms: C_12  and  C_10 
REMARK    7  A    between atoms: C_11  and  C_12 
ROOT
ATOM      1  N   UNL d   1       1.213   2.478  -0.046  0.00  0.00    -0.326 N 
ATOM      2  C   UNL d   1       1.034   3.509  -0.954  0.00  0.00     0.222 C 
ATOM      3  O   UNL d   1       0.234   3.507  -1.883  0.00  0.00    -0.273 OA
ATOM      4  H   UNL d   1       2.136   2.411   0.361  0.00  0.00     0.169 HD
ENDROOT
BRANCH   1   5
ATOM      5  C   UNL d   1       0.414   1.311  -0.023  0.00  0.00     0.047 A 
ATOM      6  C   UNL d   1      -0.999   1.389   0.041  0.00  0.00    -0.035 A 
ATOM      7  C   UNL d   1      -1.751   0.205   0.084  0.00  0.00     0.009 A 
ATOM      8  C   UNL d   1      -1.789   2.670   0.112  0.00  0.00     0.050 C 
ATOM      9  C   UNL d   1      -1.130  -1.040   0.102  0.00  0.00     0.001 A 
ATOM     10  C   UNL d   1       0.257  -1.115   0.063  0.00  0.00     0.009 A 
ATOM     11  C   UNL d   1       1.053   0.046   0.002  0.00  0.00    -0.031 A 
BRANCH  11  12
ATOM     12  C   UNL d   1       2.546  -0.142  -0.207  0.00  0.00     0.036 C 
ATOM     13  C   UNL d   1       3.232  -0.972   0.870  0.00  0.00     0.010 C 
ENDBRANCH  11  12
ENDBRANCH   1   5
BRANCH   2  14
ATOM     14  C   UNL d   1       1.972   4.677  -0.697  0.00  0.00     0.103 C 
BRANCH  14  15
ATOM     15  C   UNL d   1       1.501   5.973  -1.369  0.00  0.00     0.019 C 
BRANCH  15  16
ATOM     16  C   UNL d   1       0.128   6.465  -0.903  0.00  0.00     0.110 C 
BRANCH  16  17
ATOM     17  C   UNL d   1       0.082   6.761   0.578  0.00  0.00     0.139 C 
ATOM     18  O   UNL d   1       1.036   7.133   1.240  0.00  0.00    -0.650 OA
BRANCH  17  19
ATOM     19  O   UNL d   1      -1.146   6.588   1.113  0.00  0.00    -0.776 OA
ATOM     20  H   UNL d   1      -1.822   6.290   0.475  0.00  0.00     0.167 HD
ENDBRANCH  17  19
ENDBRANCH  16  17
ENDBRANCH  15  16
ENDBRANCH  14  15
ENDBRANCH   2  14
TORSDOF 7
