REMARK  3 active torsions:
REMARK  status: ('A' for Active; 'I' for Inactive)
REMARK    1  A    between atoms: C_7  and  C_1 
REMARK    2  A    between atoms: C_8  and  C_4 
REMARK       I    between atoms: N_10  and  C_7 
REMARK    3  A    between atoms: N_11  and  N_10 
ROOT
ATOM      1  C   UNL d   1       0.024  -1.351  -0.029  0.00  0.00     0.093 A 
ATOM      2  N   UNL d   1      -1.298   0.509  -0.029  0.00  0.00    -0.259 N 
ATOM      3  HN  UNL d   1      -2.107   1.130  -0.040  1.00  0.00     0.195 HD
ATOM      4  C   UNL d   1      -1.319  -0.835  -0.014  0.00  0.00     0.083 A 
ATOM      5  O   UNL d   1       0.020   0.884  -0.028  0.00  0.00    -0.241 OA
ATOM      6  C   UNL d   1       0.815  -0.214  -0.021  0.00  0.00     0.090 A 
ATOM      7  C   UNL d   1       2.263   0.074  -0.042  0.00  0.00     0.080 C 
ENDROOT
BRANCH   1   8
ATOM      8  C   UNL d   1       0.449  -2.736  -0.078  0.00  0.00     0.270 C 
ATOM      9  O   UNL d   1      -0.218  -3.623  -0.613  0.00  0.00    -0.266 OA
ATOM     10  N   UNL d   1       1.643  -3.033   0.573  0.00  0.00    -0.290 N 
ATOM     11  H   UNL d   1       2.187  -2.317   1.041  0.00  0.00     0.183 HD
BRANCH  10  12
ATOM     12  N   UNL d   1       2.081  -4.378   0.661  0.00  0.00    -0.247 NA
ATOM     13  H   UNL d   1       1.466  -4.932   0.045  0.00  0.00     0.143 HD
ATOM     14  H   UNL d   1       1.863  -4.726   1.599  0.00  0.00     0.143 HD
ENDBRANCH  10  12
ENDBRANCH   1   8
BRANCH   4  15
ATOM     15  C   UNL d   1      -2.606  -1.539   0.051  0.00  0.00    -0.006 A 
ATOM     16  C   UNL d   1      -3.743  -0.991  -0.565  0.00  0.00     0.014 A 
ATOM     17  C   UNL d   1      -4.979  -1.640  -0.497  0.00  0.00     0.001 A 
ATOM     18  C   UNL d   1      -5.096  -2.849   0.186  0.00  0.00     0.000 A 
ATOM     19  C   UNL d   1      -3.982  -3.399   0.814  0.00  0.00     0.001 A 
ATOM     20  C   UNL d   1      -2.750  -2.741   0.758  0.00  0.00     0.014 A 
ENDBRANCH   4  15
TORSDOF 3
