REMARK  2 active torsions:
REMARK  status: ('A' for Active; 'I' for Inactive)
REMARK    1  A    between atoms: C_12  and  C_9 
REMARK    2  A    between atoms: C_13  and  C_10 
ROOT
ATOM      1  N   UNL d   1      -0.316  -0.565   0.018  0.00  0.00    -0.203 N 
ATOM      2  C   UNL d   1      -0.281   0.816  -0.003  0.00  0.00     0.133 A 
ATOM      3  N   UNL d   1      -1.584  -1.044   0.018  0.00  0.00    -0.289 N 
ATOM      4  HN  UNL d   1      -1.880  -2.020   0.029  1.00  0.00     0.188 HD
ATOM      5  C   UNL d   1       0.823  -1.389   0.025  0.00  0.00     0.270 A 
ATOM      6  C   UNL d   1      -1.581   1.240  -0.013  0.00  0.00     0.082 A 
ATOM      7  C   UNL d   1       2.111  -0.646   0.011  0.00  0.00     0.106 A 
ATOM      8  N   UNL d   1       0.923   1.435  -0.017  0.00  0.00    -0.340 N 
ATOM      9  C   UNL d   1       2.093   0.701  -0.006  0.00  0.00     0.049 A 
ATOM     10  C   UNL d   1      -2.365   0.050   0.002  0.00  0.00     0.062 A 
ATOM     11  O   UNL d   1       0.752  -2.611   0.041  0.00  0.00    -0.266 OA
ATOM     12  H   UNL d   1       1.024   2.448  -0.037  0.00  0.00     0.167 HD
ENDROOT
BRANCH   9  13
ATOM     13  C   UNL d   1       3.372   1.423   0.007  0.00  0.00    -0.009 A 
ATOM     14  C   UNL d   1       4.008   1.766  -1.192  0.00  0.00     0.013 A 
ATOM     15  C   UNL d   1       5.263   2.379  -1.169  0.00  0.00     0.001 A 
ATOM     16  C   UNL d   1       5.886   2.652   0.048  0.00  0.00     0.000 A 
ATOM     17  C   UNL d   1       5.250   2.328   1.246  0.00  0.00     0.001 A 
ATOM     18  C   UNL d   1       3.994   1.718   1.226  0.00  0.00     0.013 A 
ENDBRANCH   9  13
BRANCH  10  19
ATOM     19  C   UNL d   1      -3.825  -0.059  -0.018  0.00  0.00    -0.008 A 
ATOM     20  C   UNL d   1      -4.632   0.958   0.512  0.00  0.00     0.014 A 
ATOM     21  C   UNL d   1      -6.025   0.852   0.474  0.00  0.00     0.001 A 
ATOM     22  C   UNL d   1      -6.626  -0.271  -0.093  0.00  0.00     0.000 A 
ATOM     23  C   UNL d   1      -5.836  -1.291  -0.618  0.00  0.00     0.001 A 
ATOM     24  C   UNL d   1      -4.444  -1.187  -0.579  0.00  0.00     0.014 A 
ENDBRANCH  10  19
TORSDOF 2
