REMARK  7 active torsions:
REMARK  status: ('A' for Active; 'I' for Inactive)
REMARK    1  A    between atoms: N_2  and  C_1 
REMARK    2  A    between atoms: C_3  and  N_7 
REMARK    3  A    between atoms: N_11  and  C_3 
REMARK    4  A    between atoms: N_9  and  C_4 
REMARK    5  A    between atoms: C_5  and  C_10 
REMARK    6  A    between atoms: C_6  and  C_12 
REMARK    7  A    between atoms: C_19  and  N_11 
ROOT
ATOM      1  N   UNL d   1       1.649  -5.559   0.570  0.00  0.00    -0.356 N 
ATOM      2  N   UNL d   1       1.093  -2.634   0.024  0.00  0.00    -0.377 N 
ATOM      3  C   UNL d   1       1.169  -5.041  -0.721  0.00  0.00     0.145 C 
ATOM      4  C   UNL d   1       1.486  -3.572  -1.054  0.00  0.00     0.143 C 
ATOM      5  C   UNL d   1       1.308  -3.712   2.258  0.00  0.00     0.040 C 
ATOM      6  C   UNL d   1       0.920  -5.099   1.758  0.00  0.00     0.127 C 
ATOM      7  C   UNL d   1       1.945  -2.783   1.235  0.00  0.00     0.124 C 
ENDROOT
BRANCH   1   8
ATOM      8  C   UNL d   1       2.798  -6.312   0.664  0.00  0.00     0.174 C 
ATOM      9  S   UNL d   1       4.280  -5.819   0.052  0.00  0.00    -0.041 SA
BRANCH   8  10
ATOM     10  N   UNL d   1       2.773  -7.518   1.306  0.00  0.00    -0.333 N 
ATOM     11  H   UNL d   1       3.704  -7.883   1.479  0.00  0.00     0.168 HD
BRANCH  10  12
ATOM     12  C   UNL d   1       1.709  -8.379   1.642  0.00  0.00     0.035 C 
ATOM     13  C   UNL d   1       0.392  -8.161   1.251  0.00  0.00     0.045 C 
ATOM     14  C   UNL d   1      -0.662  -8.905   1.793  0.00  0.00     0.050 C 
ATOM     15  C   UNL d   1      -0.365 -10.004   2.606  0.00  0.00     0.016 C 
ATOM     16  C   UNL d   1       0.963 -10.322   2.891  0.00  0.00     0.003 C 
ATOM     17  C   UNL d   1       1.995  -9.501   2.427  0.00  0.00     0.029 C 
BRANCH  14  18
ATOM     18  C   UNL d   1      -2.082  -8.449   1.582  0.00  0.00     0.417 C 
ATOM     19  F   UNL d   1      -2.184  -7.327   0.810  0.00  0.00    -0.166 F 
ATOM     20  F   UNL d   1      -2.867  -9.387   0.988  0.00  0.00    -0.166 F 
ATOM     21  F   UNL d   1      -2.693  -8.133   2.760  0.00  0.00    -0.166 F 
ENDBRANCH  14  18
ENDBRANCH  10  12
ENDBRANCH   8  10
ENDBRANCH   1   8
BRANCH   2  22
ATOM     22  C   UNL d   1       0.812  -1.277  -0.241  0.00  0.00     0.063 A 
ATOM     23  C   UNL d   1       1.170  -0.484  -1.348  0.00  0.00     0.130 A 
ATOM     24  C   UNL d   1       0.986   0.913  -1.378  0.00  0.00     0.054 A 
ATOM     25  C   UNL d   1       0.406   1.576  -0.291  0.00  0.00     0.050 A 
ATOM     26  C   UNL d   1      -0.075   0.804   0.767  0.00  0.00     0.018 A 
ATOM     27  C   UNL d   1       0.112  -0.583   0.776  0.00  0.00     0.032 A 
BRANCH  23  28
ATOM     28  N   UNL d   1       1.801  -1.022  -2.532  0.00  0.00    -0.113 N 
ATOM     29  O   UNL d   1       3.019  -1.258  -2.469  0.00  0.00    -0.532 OA
ATOM     30  O   UNL d   1       1.096  -1.145  -3.539  0.00  0.00    -0.532 OA
ENDBRANCH  23  28
BRANCH  25  31
ATOM     31  C   UNL d   1       0.327   3.081  -0.233  0.00  0.00     0.417 C 
ATOM     32  F   UNL d   1       0.870   3.693  -1.321  0.00  0.00    -0.166 F 
ATOM     33  F   UNL d   1      -0.949   3.539  -0.137  0.00  0.00    -0.166 F 
ATOM     34  F   UNL d   1       0.991   3.584   0.845  0.00  0.00    -0.166 F 
ENDBRANCH  25  31
ENDBRANCH   2  22
TORSDOF 7
