REMARK  6 active torsions:
REMARK  status: ('A' for Active; 'I' for Inactive)
REMARK    1  A    between atoms: S_10  and  C_3 
REMARK    2  A    between atoms: C_4  and  C_13 
REMARK    3  A    between atoms: O_19  and  C_5 
REMARK    4  A    between atoms: C_11  and  C_6 
REMARK    5  A    between atoms: C_13  and  S_10 
REMARK    6  A    between atoms: O_20  and  C_12 
ROOT
ATOM      1  C   UNL d   1       3.550  -2.303   0.235  0.00  0.00     0.123 C 
ENDROOT
BRANCH   1   2
ATOM      2  C   UNL d   1       4.236  -3.650   0.191  0.00  0.00    -0.014 A 
ATOM      3  C   UNL d   1       5.599  -3.709   0.568  0.00  0.00     0.026 A 
ATOM      4  C   UNL d   1       6.312  -4.914   0.564  0.00  0.00     0.010 A 
ATOM      5  C   UNL d   1       5.642  -6.088   0.205  0.00  0.00     0.018 A 
ATOM      6  C   UNL d   1       4.293  -6.053  -0.153  0.00  0.00     0.038 A 
ATOM      7  C   UNL d   1       3.595  -4.842  -0.182  0.00  0.00     0.075 A 
BRANCH   4   8
ATOM      8  C   UNL d   1       7.756  -5.017   0.942  0.00  0.00     0.155 C 
ATOM      9  O   UNL d   1       8.280  -6.128   1.017  0.00  0.00    -0.293 OA
ATOM     10  C   UNL d   1       8.568  -3.783   1.249  0.00  0.00     0.096 C 
ENDBRANCH   4   8
BRANCH   7  11
ATOM     11  O   UNL d   1       2.261  -4.947  -0.465  0.00  0.00    -0.355 OA
ATOM     12  C   UNL d   1       1.847  -4.241  -1.630  0.00  0.00     0.210 C 
ENDBRANCH   7  11
ENDBRANCH   1   2
BRANCH   1  13
ATOM     13  S   UNL d   1       2.335  -2.162   1.572  0.00  0.00    -0.089 SA
BRANCH  13  14
ATOM     14  C   UNL d   1       1.866  -0.462   1.364  0.00  0.00     0.146 A 
ATOM     15  N   UNL d   1       0.766  -0.062   2.018  0.00  0.00    -0.318 N 
ATOM     16  C   UNL d   1       0.472   1.234   1.892  0.00  0.00     0.142 A 
ATOM     17  HN  UNL d   1       0.195  -0.701   2.570  1.00  0.00     0.170 HD
ATOM     18  C   UNL d   1       1.189   2.150   1.173  0.00  0.00     0.073 A 
ATOM     19  C   UNL d   1       2.288   1.635   0.538  0.00  0.00     0.094 A 
ATOM     20  N   UNL d   1       2.646   0.339   0.613  0.00  0.00    -0.347 N 
ATOM     21  HN  UNL d   1       3.468  -0.018   0.126  1.00  0.00     0.167 HD
BRANCH  16  22
ATOM     22  O   UNL d   1      -0.642   1.620   2.565  0.00  0.00    -0.346 OA
ATOM     23  H   UNL d   1      -0.912   0.773   2.966  0.00  0.00     0.219 HD
ENDBRANCH  16  22
ENDBRANCH  13  14
ENDBRANCH   1  13
TORSDOF 6
