REMARK  3 active torsions:
REMARK  status: ('A' for Active; 'I' for Inactive)
REMARK       I    between atoms: N_2  and  C_1 
REMARK    1  A    between atoms: C_4  and  C_1 
REMARK       I    between atoms: C_5  and  N_2 
REMARK       I    between atoms: N_8  and  C_5 
REMARK    2  A    between atoms: C_6  and  N_7 
REMARK    3  A    between atoms: N_7  and  N_8 
ROOT
ATOM      1  C   UNL d   1       4.728   0.607  -1.015  0.00  0.00     0.106 A 
ATOM      2  C   UNL d   1       4.199   1.318   0.090  0.00  0.00     0.053 A 
ATOM      3  C   UNL d   1       4.095  -0.569  -1.534  0.00  0.00     0.104 C 
ATOM      4  N   UNL d   1       3.613  -1.542  -1.950  0.00  0.00    -0.191 NA
ATOM      5  C   UNL d   1       5.900   1.048  -1.638  0.00  0.00     0.139 A 
ATOM      6  F   UNL d   1       6.422   0.362  -2.666  0.00  0.00    -0.204 F 
ATOM      7  C   UNL d   1       4.874   2.491   0.492  0.00  0.00     0.027 A 
ATOM      8  C   UNL d   1       6.040   2.922  -0.151  0.00  0.00     0.005 A 
ATOM      9  C   UNL d   1       6.560   2.194  -1.211  0.00  0.00     0.044 A 
ENDROOT
BRANCH   2  10
ATOM     10  N   UNL d   1       3.047   0.828   0.773  0.00  0.00    -0.196 NA
ATOM     11  C   UNL d   1       3.366  -0.298   1.669  0.00  0.00     0.143 C 
BRANCH  10  12
ATOM     12  N   UNL d   1       2.241   1.816   1.382  0.00  0.00    -0.266 N 
ATOM     13  C   UNL d   1       0.921   1.560   1.675  0.00  0.00     0.337 C 
ATOM     14  N   UNL d   1       0.284   2.530   2.426  0.00  0.00    -0.274 N 
ATOM     15  O   UNL d   1       0.299   0.546   1.365  0.00  0.00    -0.246 OA
ATOM     16  C   UNL d   1       0.767   3.753   2.869  0.00  0.00     0.263 C 
ATOM     17  H   UNL d   1      -0.666   2.260   2.638  0.00  0.00     0.173 HD
ATOM     18  O   UNL d   1       1.866   4.163   2.507  0.00  0.00    -0.267 OA
ATOM     19  H   UNL d   1       2.674   2.627   1.815  0.00  0.00     0.186 HD
BRANCH  16  20
ATOM     20  C   UNL d   1      -0.088   4.540   3.832  0.00  0.00     0.075 A 
ATOM     21  C   UNL d   1       0.518   5.460   4.719  0.00  0.00     0.051 A 
ATOM     22 CL   UNL d   1       2.220   5.789   4.789  0.00  0.00    -0.083 Cl
ATOM     23  C   UNL d   1      -0.245   6.167   5.664  0.00  0.00     0.025 A 
ATOM     24  C   UNL d   1      -1.616   5.973   5.759  0.00  0.00     0.003 A 
ATOM     25  C   UNL d   1      -2.236   5.090   4.886  0.00  0.00     0.025 A 
ATOM     26  C   UNL d   1      -1.489   4.392   3.921  0.00  0.00     0.051 A 
ATOM     27 CL   UNL d   1      -2.436   3.397   2.863  0.00  0.00    -0.083 Cl
ENDBRANCH  16  20
ENDBRANCH  10  12
ENDBRANCH   2  10
TORSDOF 3
