REMARK  5 active torsions:
REMARK  status: ('A' for Active; 'I' for Inactive)
REMARK    1  A    between atoms: C_8  and  N_1 
REMARK    2  A    between atoms: C_7  and  C_2 
REMARK    3  A    between atoms: C_10  and  C_4 
REMARK    4  A    between atoms: O_15  and  C_7 
REMARK    5  A    between atoms: C_14  and  C_8 
ROOT
ATOM      1  N   UNL d   1      -2.126  -0.237   0.071  0.00  0.00    -0.334 N 
ATOM      2  C   UNL d   1      -0.436  -2.039   0.234  0.00  0.00     0.145 C 
ATOM      3  C   UNL d   1      -1.195   0.755   0.361  0.00  0.00     0.255 C 
ATOM      4  C   UNL d   1      -1.712  -1.532  -0.484  0.00  0.00     0.139 C 
ATOM      5  C   UNL d   1       0.647  -0.976   0.246  0.00  0.00    -0.026 A 
ATOM      6  C   UNL d   1       0.248   0.377   0.285  0.00  0.00     0.039 A 
ATOM      7  O   UNL d   1      -1.495   1.901   0.672  0.00  0.00    -0.267 OA
ATOM      8  C   UNL d   1       2.018  -1.271   0.246  0.00  0.00     0.009 A 
ATOM      9  C   UNL d   1       1.200   1.399   0.189  0.00  0.00     0.017 A 
ATOM     10  C   UNL d   1       2.961  -0.246   0.139  0.00  0.00     0.001 A 
ATOM     11  C   UNL d   1       2.552   1.085   0.085  0.00  0.00     0.001 A 
ENDROOT
BRANCH   1  12
ATOM     12  C   UNL d   1      -3.553   0.084   0.121  0.00  0.00     0.165 C 
BRANCH  12  13
ATOM     13  C   UNL d   1      -4.228  -0.280   1.430  0.00  0.00    -0.040 A 
ATOM     14  C   UNL d   1      -3.777   0.251   2.651  0.00  0.00     0.012 A 
ATOM     15  C   UNL d   1      -4.490   0.028   3.834  0.00  0.00     0.043 A 
ATOM     16  C   UNL d   1      -5.656  -0.721   3.802  0.00  0.00     0.116 A 
ATOM     17  C   UNL d   1      -6.112  -1.272   2.613  0.00  0.00     0.043 A 
ATOM     18  F   UNL d   1      -6.360  -0.899   4.928  0.00  0.00    -0.206 F 
ATOM     19  C   UNL d   1      -5.402  -1.055   1.429  0.00  0.00     0.012 A 
ENDBRANCH  12  13
ENDBRANCH   1  12
BRANCH   4  20
ATOM     20  C   UNL d   1      -1.621  -1.464  -2.018  0.00  0.00    -0.032 A 
ATOM     21  C   UNL d   1      -2.479  -2.256  -2.792  0.00  0.00     0.026 A 
ATOM     22  C   UNL d   1      -2.382  -2.207  -4.177  0.00  0.00     0.088 A 
ATOM     23  N   UNL d   1      -1.495  -1.438  -4.845  0.00  0.00    -0.375 N 
ATOM     24  C   UNL d   1      -0.684  -0.674  -4.098  0.00  0.00     0.088 A 
ATOM     25  HN  UNL d   1      -1.445  -1.438  -5.864  1.00  0.00     0.164 HD
ATOM     26  C   UNL d   1      -0.714  -0.646  -2.711  0.00  0.00     0.026 A 
ENDBRANCH   4  20
BRANCH   2  27
ATOM     27  C   UNL d   1      -0.093  -3.414  -0.303  0.00  0.00     0.150 C 
ATOM     28  O   UNL d   1      -0.575  -4.437   0.165  0.00  0.00    -0.649 OA
BRANCH  27  29
ATOM     29  O   UNL d   1       0.724  -3.462  -1.377  0.00  0.00    -0.776 OA
ATOM     30  H   UNL d   1       0.986  -2.597  -1.750  0.00  0.00     0.167 HD
ENDBRANCH  27  29
ENDBRANCH   2  27
TORSDOF 5
