REMARK  8 active torsions:
REMARK  status: ('A' for Active; 'I' for Inactive)
REMARK    1  A    between atoms: C_3  and  C_1 
REMARK    2  A    between atoms: N_4  and  C_2 
REMARK    3  A    between atoms: O_11  and  C_3 
REMARK       I    between atoms: C_5  and  N_4 
REMARK    4  A    between atoms: C_15  and  C_5 
REMARK    5  A    between atoms: C_7  and  C_16 
REMARK    6  A    between atoms: O_13  and  C_7 
REMARK    7  A    between atoms: C_17  and  C_15 
REMARK    8  A    between atoms: C_16  and  C_17 
ROOT
ATOM      1  C   UNL d   1      -1.594  -0.089  -0.454  0.00  0.00     0.102 A 
ATOM      2  C   UNL d   1      -1.092  -1.333  -0.035  0.00  0.00     0.054 A 
ATOM      3  C   UNL d   1      -0.772   1.036  -0.358  0.00  0.00     0.135 A 
ATOM      4  F   UNL d   1      -1.200   2.225  -0.808  0.00  0.00    -0.205 F 
ATOM      5  C   UNL d   1       0.207  -1.409   0.494  0.00  0.00     0.031 A 
ATOM      6  C   UNL d   1       1.008  -0.271   0.596  0.00  0.00     0.005 A 
ATOM      7  C   UNL d   1       0.522   0.957   0.163  0.00  0.00     0.043 A 
ENDROOT
BRANCH   2   8
ATOM      8  N   UNL d   1      -1.886  -2.501  -0.143  0.00  0.00    -0.326 N 
ATOM      9  C   UNL d   1      -1.376  -3.738  -0.473  0.00  0.00     0.222 C 
ATOM     10  O   UNL d   1      -0.208  -3.942  -0.796  0.00  0.00    -0.273 OA
ATOM     11  H   UNL d   1      -2.889  -2.358  -0.297  0.00  0.00     0.169 HD
BRANCH   9  12
ATOM     12  C   UNL d   1      -2.406  -4.847  -0.424  0.00  0.00     0.103 C 
BRANCH  12  13
ATOM     13  C   UNL d   1      -1.764  -6.238  -0.502  0.00  0.00     0.019 C 
BRANCH  13  14
ATOM     14  C   UNL d   1      -0.761  -6.537   0.621  0.00  0.00     0.110 C 
BRANCH  14  15
ATOM     15  C   UNL d   1      -1.388  -6.486   1.991  0.00  0.00     0.139 C 
ATOM     16  O   UNL d   1      -2.541  -6.805   2.237  0.00  0.00    -0.650 OA
BRANCH  15  17
ATOM     17  O   UNL d   1      -0.535  -6.066   2.952  0.00  0.00    -0.776 OA
ATOM     18  H   UNL d   1       0.358  -5.849   2.623  0.00  0.00     0.167 HD
ENDBRANCH  15  17
ENDBRANCH  14  15
ENDBRANCH  13  14
ENDBRANCH  12  13
ENDBRANCH   9  12
ENDBRANCH   2   8
BRANCH   1  19
ATOM     19  C   UNL d   1      -2.951   0.004  -1.046  0.00  0.00     0.181 C 
ATOM     20  O   UNL d   1      -3.826  -0.813  -0.794  0.00  0.00    -0.646 OA
BRANCH  19  21
ATOM     21  O   UNL d   1      -3.123   0.990  -1.952  0.00  0.00    -0.773 OA
ATOM     22  H   UNL d   1      -2.363   1.595  -2.071  0.00  0.00     0.167 HD
ENDBRANCH  19  21
ENDBRANCH   1  19
TORSDOF 8
