REMARK  5 active torsions:
REMARK  status: ('A' for Active; 'I' for Inactive)
REMARK    1  A    between atoms: C_2  and  S_1 
REMARK    2  A    between atoms: C_11  and  S_1 
REMARK    3  A    between atoms: C_3  and  C_2 
REMARK       I    between atoms: N_7  and  C_3 
REMARK    4  A    between atoms: C_10  and  N_7 
REMARK    5  A    between atoms: C_16  and  C_11 
ROOT
ATOM      1  C   UNL d   1       0.497  -0.766   1.605  0.00  0.00     0.243 C 
ENDROOT
BRANCH   1   2
ATOM      2  S   UNL d   1       1.013   0.358   0.368  0.00  0.00     0.156 S 
ATOM      3  O   UNL d   1       0.487  -0.126  -0.897  0.00  0.00    -0.227 OA
ATOM      4  O   UNL d   1       2.435   0.572   0.535  0.00  0.00    -0.227 OA
BRANCH   2   5
ATOM      5  C   UNL d   1       0.126   1.842   0.862  0.00  0.00     0.179 C 
BRANCH   5   6
ATOM      6  C   UNL d   1       0.372   2.959  -0.117  0.00  0.00    -0.043 A 
ATOM      7  C   UNL d   1      -0.464   3.128  -1.233  0.00  0.00     0.033 A 
ATOM      8  C   UNL d   1      -0.249   4.174  -2.140  0.00  0.00     0.056 A 
ATOM      9 CL   UNL d   1      -1.331   4.309  -3.480  0.00  0.00    -0.083 Cl
ATOM     10  C   UNL d   1       0.809   5.064  -1.938  0.00  0.00     0.055 A 
ATOM     11  C   UNL d   1       1.640   4.909  -0.825  0.00  0.00     0.026 A 
ATOM     12 CL   UNL d   1       1.145   6.369  -3.018  0.00  0.00    -0.083 Cl
ATOM     13  C   UNL d   1       1.424   3.864   0.079  0.00  0.00     0.010 A 
ENDBRANCH   5   6
ENDBRANCH   2   5
ENDBRANCH   1   2
BRANCH   1  14
ATOM     14  C   UNL d   1       0.964  -2.191   1.508  0.00  0.00     0.236 C 
ATOM     15  N   UNL d   1       1.686  -2.622   0.418  0.00  0.00    -0.326 N 
ATOM     16  H   UNL d   1       1.891  -1.956  -0.322  0.00  0.00     0.169 HD
ATOM     17  O   UNL d   1       0.619  -2.926   2.442  0.00  0.00    -0.272 OA
BRANCH  15  18
ATOM     18  C   UNL d   1       2.081  -3.960   0.144  0.00  0.00     0.036 A 
ATOM     19  C   UNL d   1       1.893  -5.034   1.024  0.00  0.00     0.056 A 
ATOM     20  C   UNL d   1       2.232  -6.337   0.644  0.00  0.00     0.074 A 
ATOM     21 CL   UNL d   1       1.959  -7.638   1.741  0.00  0.00    -0.081 Cl
ATOM     22  C   UNL d   1       2.774  -6.577  -0.613  0.00  0.00     0.138 A 
ATOM     23  C   UNL d   1       3.007  -5.521  -1.487  0.00  0.00     0.046 A 
ATOM     24  F   UNL d   1       3.078  -7.822  -1.006  0.00  0.00    -0.204 F 
ATOM     25  C   UNL d   1       2.669  -4.216  -1.105  0.00  0.00     0.032 A 
ENDBRANCH  15  18
ENDBRANCH   1  14
TORSDOF 5
