REMARK  3 active torsions:
REMARK  status: ('A' for Active; 'I' for Inactive)
REMARK    1  A    between atoms: C_5  and  C_1 
REMARK    2  A    between atoms: N_9  and  C_2 
REMARK       I    between atoms: C_8  and  N_9 
REMARK       I    between atoms: N_10  and  C_8 
REMARK    3  A    between atoms: C_14  and  N_10 
ROOT
ATOM      1  C   UNL d   1      -1.655  -0.667   0.187  0.00  0.00     0.097 A 
ATOM      2  C   UNL d   1      -0.215  -0.800   0.146  0.00  0.00     0.097 A 
ATOM      3  N   UNL d   1      -1.969   0.620   0.425  0.00  0.00    -0.258 N 
ATOM      4  HN  UNL d   1      -2.909   1.011   0.477  1.00  0.00     0.195 HD
ATOM      5  C   UNL d   1       0.248   0.480   0.384  0.00  0.00     0.101 A 
ATOM      6  O   UNL d   1      -0.802   1.307   0.586  0.00  0.00    -0.240 OA
ATOM      7  C   UNL d   1       1.558   1.155   0.331  0.00  0.00     0.081 C 
ENDROOT
BRANCH   2   8
ATOM      8  N   UNL d   1       0.583  -1.792  -0.417  0.00  0.00    -0.305 N 
ATOM      9  C   UNL d   1       1.052  -2.953   0.119  0.00  0.00     0.321 C 
ATOM     10  N   UNL d   1       1.331  -2.987   1.458  0.00  0.00    -0.335 N 
ATOM     11  O   UNL d   1       1.244  -3.888  -0.653  0.00  0.00    -0.247 OA
ATOM     12  H   UNL d   1       1.345  -2.080   1.904  0.00  0.00     0.165 HD
ATOM     13  H   UNL d   1       0.255  -2.058  -1.341  0.00  0.00     0.171 HD
BRANCH  10  14
ATOM     14  C   UNL d   1       2.224  -4.015   2.056  0.00  0.00     0.023 C 
ATOM     15  C   UNL d   1       3.688  -3.668   1.730  0.00  0.00     0.037 C 
ATOM     16  C   UNL d   1       2.033  -4.004   3.582  0.00  0.00     0.037 C 
ATOM     17  C   UNL d   1       1.946  -5.458   1.579  0.00  0.00     0.037 C 
ENDBRANCH  10  14
ENDBRANCH   2   8
BRANCH   1  18
ATOM     18  C   UNL d   1      -2.761  -1.626  -0.014  0.00  0.00     0.038 A 
ATOM     19  C   UNL d   1      -3.919  -1.562   0.808  0.00  0.00     0.048 A 
ATOM     20 CL   UNL d   1      -4.103  -0.477   2.156  0.00  0.00    -0.083 Cl
ATOM     21  C   UNL d   1      -5.021  -2.408   0.598  0.00  0.00     0.025 A 
ATOM     22  C   UNL d   1      -4.982  -3.381  -0.388  0.00  0.00     0.003 A 
ATOM     23  C   UNL d   1      -3.856  -3.479  -1.195  0.00  0.00     0.025 A 
ATOM     24  C   UNL d   1      -2.777  -2.589  -1.044  0.00  0.00     0.048 A 
ATOM     25 CL   UNL d   1      -1.581  -2.699  -2.289  0.00  0.00    -0.083 Cl
ENDBRANCH   1  18
TORSDOF 3
