REMARK  6 active torsions:
REMARK  status: ('A' for Active; 'I' for Inactive)
REMARK    1  A    between atoms: C_16  and  N_3 
REMARK    2  A    between atoms: C_13  and  C_5 
REMARK    3  A    between atoms: C_11  and  C_18 
REMARK    4  A    between atoms: C_26  and  C_16 
REMARK    5  A    between atoms: C_18  and  S_21 
REMARK    6  A    between atoms: S_21  and  C_26 
ROOT
ATOM      1  C   UNL d   1       0.188  -0.672  -0.125  0.00  0.00     0.070 A 
ATOM      2  C   UNL d   1       0.107   0.730  -0.184  0.00  0.00     0.026 A 
ATOM      3  N   UNL d   1       2.250   0.163  -0.065  0.00  0.00    -0.348 N 
ATOM      4  C   UNL d   1       1.521  -1.022  -0.090  0.00  0.00     0.025 A 
ATOM      5  C   UNL d   1       1.390   1.270  -0.130  0.00  0.00     0.058 A 
ATOM      6  C   UNL d   1      -1.002  -1.501  -0.084  0.00  0.00     0.274 A 
ATOM      7  N   UNL d   1      -2.277   0.643  -0.192  0.00  0.00    -0.306 N 
ATOM      8  HN  UNL d   1      -3.188   1.101  -0.226  1.00  0.00     0.186 HD
ATOM      9  N   UNL d   1      -2.197  -0.750  -0.083  0.00  0.00    -0.262 N 
ATOM     10  C   UNL d   1      -1.188   1.355  -0.252  0.00  0.00     0.122 A 
ATOM     11  O   UNL d   1      -0.963  -2.724  -0.032  0.00  0.00    -0.266 OA
ATOM     12  C   UNL d   1       2.099  -2.398  -0.033  0.00  0.00     0.069 C 
ATOM     13  C   UNL d   1      -3.455  -1.464  -0.007  0.00  0.00     0.181 C 
ENDROOT
BRANCH   3  14
ATOM     14  C   UNL d   1       3.694   0.201   0.168  0.00  0.00     0.139 C 
BRANCH  14  15
ATOM     15  C   UNL d   1       4.507  -0.068  -1.099  0.00  0.00     0.094 C 
BRANCH  15  16
ATOM     16  S   UNL d   1       6.304  -0.043  -0.771  0.00  0.00    -0.163 SA
BRANCH  16  17
ATOM     17  C   UNL d   1       6.428  -1.572   0.208  0.00  0.00     0.116 C 
BRANCH  17  18
ATOM     18  C   UNL d   1       7.850  -1.910   0.571  0.00  0.00    -0.005 A 
ATOM     19  C   UNL d   1       8.439  -1.417   1.754  0.00  0.00     0.042 A 
ATOM     20 CL   UNL d   1       7.587  -0.372   2.841  0.00  0.00    -0.084 Cl
ATOM     21  C   UNL d   1       9.748  -1.762   2.110  0.00  0.00     0.024 A 
ATOM     22  C   UNL d   1      10.499  -2.598   1.291  0.00  0.00     0.003 A 
ATOM     23  C   UNL d   1       9.947  -3.080   0.108  0.00  0.00     0.024 A 
ATOM     24  C   UNL d   1       8.639  -2.735  -0.252  0.00  0.00     0.042 A 
ATOM     25 CL   UNL d   1       8.046  -3.385  -1.744  0.00  0.00    -0.084 Cl
ENDBRANCH  17  18
ENDBRANCH  16  17
ENDBRANCH  15  16
ENDBRANCH  14  15
ENDBRANCH   3  14
BRANCH   5  26
ATOM     26  C   UNL d   1       1.801   2.692  -0.054  0.00  0.00    -0.008 A 
ATOM     27  C   UNL d   1       1.053   3.607   0.706  0.00  0.00     0.014 A 
ATOM     28  C   UNL d   1       1.418   4.956   0.790  0.00  0.00     0.001 A 
ATOM     29  C   UNL d   1       2.568   5.409   0.154  0.00  0.00     0.000 A 
ATOM     30  C   UNL d   1       3.330   4.521  -0.596  0.00  0.00     0.001 A 
ATOM     31  C   UNL d   1       2.928   3.187  -0.724  0.00  0.00     0.014 A 
ENDBRANCH   5  26
TORSDOF 6
