REMARK  4 active torsions:
REMARK  status: ('A' for Active; 'I' for Inactive)
REMARK    1  A    between atoms: C_3  and  C_1 
REMARK       I    between atoms: N_8  and  C_3 
REMARK    2  A    between atoms: C_6  and  O_9 
REMARK    3  A    between atoms: C_14  and  N_8 
REMARK    4  A    between atoms: O_9  and  C_12 
ROOT
ATOM      1  C   UNL d   1      -2.349  -0.203  -0.183  0.00  0.00     0.102 A 
ATOM      2  N   UNL d   1      -1.576   0.928  -0.021  0.00  0.00    -0.351 N 
ATOM      3  C   UNL d   1      -1.467  -1.253  -0.371  0.00  0.00     0.049 A 
ATOM      4  C   UNL d   1      -0.142  -0.750  -0.229  0.00  0.00    -0.004 A 
ATOM      5  C   UNL d   1      -0.239   0.627  -0.046  0.00  0.00     0.043 A 
ATOM      6  C   UNL d   1       1.138  -1.336  -0.238  0.00  0.00     0.051 A 
ATOM      7  C   UNL d   1       2.277  -0.537  -0.050  0.00  0.00     0.079 A 
ATOM      8  C   UNL d   1       0.882   1.454   0.075  0.00  0.00     0.033 A 
ATOM      9  C   UNL d   1       2.144   0.847   0.052  0.00  0.00     0.039 A 
ATOM     10  H   UNL d   1      -1.970   1.854   0.113  0.00  0.00     0.166 HD
ENDROOT
BRANCH   1  11
ATOM     11  C   UNL d   1      -3.791  -0.109  -0.174  0.00  0.00     0.272 C 
ATOM     12  N   UNL d   1      -4.471  -1.312  -0.232  0.00  0.00    -0.322 N 
ATOM     13  H   UNL d   1      -3.920  -2.153  -0.137  0.00  0.00     0.169 HD
ATOM     14  O   UNL d   1      -4.321   0.991  -0.076  0.00  0.00    -0.266 OA
BRANCH  12  15
ATOM     15  C   UNL d   1      -5.854  -1.488  -0.463  0.00  0.00     0.035 A 
ATOM     16  C   UNL d   1      -6.717  -0.439  -0.784  0.00  0.00     0.030 A 
ATOM     17  C   UNL d   1      -8.047  -0.687  -1.129  0.00  0.00     0.009 A 
ATOM     18  C   UNL d   1      -8.544  -1.992  -1.155  0.00  0.00    -0.062 A 
ATOM     19  C   UNL d   1      -7.703  -3.041  -0.774  0.00  0.00     0.009 A 
ATOM     20  C   UNL d   1      -9.951  -2.234  -1.618  0.00  0.00     0.048 C 
ATOM     21  C   UNL d   1      -6.365  -2.791  -0.435  0.00  0.00     0.030 A 
ENDBRANCH  12  15
ENDBRANCH   1  11
BRANCH   7  22
ATOM     22  O   UNL d   1       3.450  -1.228  -0.050  0.00  0.00    -0.255 OA
BRANCH  22  23
ATOM     23  C   UNL d   1       4.548  -0.762   0.722  0.00  0.00     0.530 C 
ATOM     24  F   UNL d   1       4.288   0.328   1.474  0.00  0.00    -0.144 F 
ATOM     25  F   UNL d   1       4.938  -1.753   1.557  0.00  0.00    -0.144 F 
ATOM     26  F   UNL d   1       5.579  -0.482  -0.104  0.00  0.00    -0.144 F 
ENDBRANCH  22  23
ENDBRANCH   7  22
TORSDOF 4
