REMARK  3 active torsions:
REMARK  status: ('A' for Active; 'I' for Inactive)
REMARK    1  A    between atoms: C_6  and  C_1 
REMARK    2  A    between atoms: N_5  and  C_2 
REMARK    3  A    between atoms: C_3  and  C_4 
REMARK       I    between atoms: C_4  and  N_5 
REMARK       I    between atoms: N_15  and  C_6 
ROOT
ATOM      1  C   UNL d   1       0.059   1.291  -0.053  0.00  0.00     0.093 A 
ATOM      2  C   UNL d   1       1.386   0.847  -0.047  0.00  0.00     0.057 A 
ATOM      3  S   UNL d   1      -1.027  -0.081  -0.005  0.00  0.00    -0.095 SA
ATOM      4  C   UNL d   1       1.449  -0.596  -0.116  0.00  0.00     0.038 A 
ATOM      5  C   UNL d   1       0.226  -1.210  -0.087  0.00  0.00     0.053 A 
ENDROOT
BRANCH   2   6
ATOM      6  N   UNL d   1       2.622   1.502  -0.018  0.00  0.00    -0.318 N 
ATOM      7  C   UNL d   1       2.954   2.744   0.500  0.00  0.00     0.330 C 
ATOM      8  O   UNL d   1       2.149   3.527   1.002  0.00  0.00    -0.263 OA
ATOM      9  H   UNL d   1       3.423   0.897  -0.196  0.00  0.00     0.169 HD
BRANCH   7  10
ATOM     10  C   UNL d   1       4.464   3.045   0.400  0.00  0.00     0.472 C 
ATOM     11  F   UNL d   1       5.159   1.960  -0.054  0.00  0.00    -0.162 F 
ATOM     12  F   UNL d   1       4.737   4.062  -0.459  0.00  0.00    -0.162 F 
ATOM     13  F   UNL d   1       5.015   3.375   1.598  0.00  0.00    -0.162 F 
ENDBRANCH   7  10
ENDBRANCH   2   6
BRANCH   1  14
ATOM     14  C   UNL d   1      -0.658   2.565  -0.155  0.00  0.00     0.237 C 
ATOM     15  O   UNL d   1      -1.880   2.695  -0.051  0.00  0.00    -0.274 OA
ATOM     16  N   UNL d   1       0.033   3.706  -0.431  0.00  0.00    -0.268 NA
ATOM     17  H   UNL d   1       0.938   3.798   0.013  0.00  0.00     0.127 HD
ATOM     18  H   UNL d   1      -0.544   4.531  -0.327  0.00  0.00     0.127 HD
ENDBRANCH   1  14
TORSDOF 3
