REMARK  3 active torsions:
REMARK  status: ('A' for Active; 'I' for Inactive)
REMARK    1  A    between atoms: C_14  and  C_6 
REMARK    2  A    between atoms: O_24  and  C_7 
REMARK    3  A    between atoms: C_8  and  C_13 
ROOT
ATOM      1  C   UNL d   1       0.778  -0.300  -0.093  0.00  0.00     0.052 A 
ATOM      2  N   UNL d   1       1.461  -1.467  -0.070  0.00  0.00    -0.335 N 
ATOM      3  HN  UNL d   1       0.971  -2.360  -0.118  1.00  0.00     0.168 HD
ATOM      4  C   UNL d   1       1.429   0.948  -0.076  0.00  0.00    -0.017 A 
ATOM      5  C   UNL d   1       3.546  -0.239   0.079  0.00  0.00     0.107 A 
ATOM      6  C   UNL d   1       2.866   1.008   0.005  0.00  0.00     0.008 A 
ATOM      7  C   UNL d   1       2.805  -1.421   0.019  0.00  0.00     0.164 A 
ATOM      8  C   UNL d   1      -0.699  -0.419  -0.077  0.00  0.00    -0.003 A 
ATOM      9  C   UNL d   1       4.958  -0.357   0.275  0.00  0.00     0.104 C 
ATOM     10  N   UNL d   1       6.116  -0.445   0.403  0.00  0.00    -0.191 NA
ATOM     11  C   UNL d   1       0.568   2.188  -0.021  0.00  0.00     0.046 C 
ATOM     12  C   UNL d   1      -1.517   0.724  -0.109  0.00  0.00    -0.045 A 
ATOM     13  C   UNL d   1      -0.933   2.092  -0.253  0.00  0.00     0.044 C 
ATOM     14  C   UNL d   1      -1.348  -1.667  -0.008  0.00  0.00     0.014 A 
ATOM     15  C   UNL d   1      -2.918   0.619  -0.057  0.00  0.00     0.008 A 
ATOM     16  C   UNL d   1      -2.744  -1.770   0.030  0.00  0.00     0.001 A 
ATOM     17  C   UNL d   1      -3.529  -0.625   0.012  0.00  0.00     0.001 A 
ENDROOT
BRANCH   6  18
ATOM     18  C   UNL d   1       3.622   2.320   0.050  0.00  0.00    -0.024 A 
ATOM     19  C   UNL d   1       4.852   2.514  -0.609  0.00  0.00     0.013 A 
ATOM     20  C   UNL d   1       5.599   3.699  -0.465  0.00  0.00     0.017 A 
ATOM     21  C   UNL d   1       5.090   4.784   0.252  0.00  0.00     0.048 A 
ATOM     22  C   UNL d   1       3.832   4.655   0.826  0.00  0.00     0.017 A 
ATOM     23  C   UNL d   1       3.163   3.430   0.784  0.00  0.00     0.013 A 
BRANCH  21  24
ATOM     24  C   UNL d   1       5.898   6.036   0.472  0.00  0.00     0.417 C 
ATOM     25  F   UNL d   1       5.214   7.006   1.145  0.00  0.00    -0.166 F 
ATOM     26  F   UNL d   1       7.021   5.802   1.205  0.00  0.00    -0.166 F 
ATOM     27  F   UNL d   1       6.313   6.611  -0.689  0.00  0.00    -0.166 F 
ENDBRANCH  21  24
ENDBRANCH   6  18
BRANCH   7  28
ATOM     28  O   UNL d   1       3.499  -2.617   0.075  0.00  0.00    -0.340 OA
ATOM     29  C   UNL d   1       2.668  -3.774   0.038  0.00  0.00     0.211 C 
ENDBRANCH   7  28
TORSDOF 3
