REMARK  1 active torsions:
REMARK  status: ('A' for Active; 'I' for Inactive)
REMARK    1  A    between atoms: C_9  and  C_6 
ROOT
ATOM      1  C   UNL d   1      -1.030  -2.031   0.766  0.00  0.00     0.125 C 
ATOM      2  N   UNL d   1      -1.203  -3.954   2.483  0.00  0.00    -0.191 NA
ATOM      3  N   UNL d   1      -3.045  -0.440   0.466  0.00  0.00    -0.191 NA
ATOM      4  C   UNL d   1      -1.124  -3.093   1.709  0.00  0.00     0.111 C 
ATOM      5  C   UNL d   1      -2.148  -1.161   0.613  0.00  0.00     0.111 C 
ATOM      6  C   UNL d   1       0.069  -1.825   0.014  0.00  0.00     0.046 C 
ENDROOT
BRANCH   6   7
ATOM      7  C   UNL d   1       1.282  -2.646   0.040  0.00  0.00    -0.019 A 
ATOM      8  C   UNL d   1       1.432  -3.735  -0.815  0.00  0.00     0.099 A 
ATOM      9  N   UNL d   1       2.538  -4.512  -0.867  0.00  0.00    -0.374 N 
ATOM     10  C   UNL d   1       3.543  -4.194  -0.023  0.00  0.00     0.087 A 
ATOM     11  HN  UNL d   1       2.609  -5.299  -1.511  1.00  0.00     0.164 HD
ATOM     12  C   UNL d   1       3.489  -3.137   0.871  0.00  0.00     0.018 A 
ATOM     13  C   UNL d   1       2.338  -2.352   0.903  0.00  0.00     0.014 A 
ENDBRANCH   6   7
TORSDOF 1
