REMARK  3 active torsions:
REMARK  status: ('A' for Active; 'I' for Inactive)
REMARK    1  A    between atoms: N_2  and  C_1 
REMARK    2  A    between atoms: N_6  and  C_1 
REMARK    3  A    between atoms: C_3  and  N_2 
ROOT
ATOM      1  C   UNL d   1       1.015   2.522  -0.626  0.00  0.00     0.073 A 
ATOM      2  C   UNL d   1       2.071   2.541  -1.546  0.00  0.00     0.145 A 
ATOM      3  C   UNL d   1       2.569   3.747  -2.035  0.00  0.00     0.086 A 
ATOM      4  C   UNL d   1       0.409   3.733  -0.262  0.00  0.00     0.036 A 
ATOM      5  C   UNL d   1       1.998   4.937  -1.611  0.00  0.00     0.119 A 
ATOM      6  F   UNL d   1       2.610   1.404  -2.007  0.00  0.00    -0.204 F 
ATOM      7  C   UNL d   1       0.916   4.941  -0.737  0.00  0.00     0.044 A 
ATOM      8  F   UNL d   1       2.495   6.101  -2.048  0.00  0.00    -0.206 F 
ENDROOT
BRANCH   1   9
ATOM      9  N   UNL d   1       0.494   1.354  -0.034  0.00  0.00    -0.331 N 
ATOM     10  H   UNL d   1      -0.508   1.370   0.129  0.00  0.00     0.168 HD
BRANCH   9  11
ATOM     11  C   UNL d   1       1.027   0.111   0.147  0.00  0.00     0.173 C 
ATOM     12  S   UNL d   1      -0.107  -1.136   0.121  0.00  0.00    -0.041 SA
BRANCH  11  13
ATOM     13  N   UNL d   1       2.368  -0.039   0.468  0.00  0.00    -0.367 N 
ATOM     14  C   UNL d   1       3.226   1.047   0.935  0.00  0.00     0.151 C 
ATOM     15  C   UNL d   1       3.020  -1.349   0.533  0.00  0.00     0.151 C 
ENDBRANCH  11  13
ENDBRANCH   9  11
ENDBRANCH   1   9
TORSDOF 3
