REMARK  3 active torsions:
REMARK  status: ('A' for Active; 'I' for Inactive)
REMARK    1  A    between atoms: N_6  and  C_1 
REMARK    2  A    between atoms: C_10  and  N_2 
REMARK       I    between atoms: C_7  and  N_6 
REMARK    3  A    between atoms: C_8  and  C_7 
ROOT
ATOM      1  C   UNL d   1      -0.368  -1.095  -0.184  0.00  0.00     0.132 C 
ATOM      2  N   UNL d   1       0.929  -0.712   0.154  0.00  0.00    -0.240 N 
ATOM      3  N   UNL d   1       0.991   0.612   0.454  0.00  0.00    -0.297 N 
ATOM      4  HN  UNL d   1       1.746   1.114   0.921  1.00  0.00     0.187 HD
ATOM      5  C   UNL d   1      -1.039   0.082  -0.437  0.00  0.00     0.076 C 
ATOM      6  C   UNL d   1      -0.166   1.106  -0.004  0.00  0.00     0.026 C 
ATOM      7  C   UNL d   1      -0.414   2.567   0.009  0.00  0.00     0.070 C 
ENDROOT
BRANCH   1   8
ATOM      8  N   UNL d   1      -0.792  -2.415  -0.199  0.00  0.00    -0.308 N 
ATOM      9  C   UNL d   1      -1.932  -2.847  -0.873  0.00  0.00     0.278 C 
ATOM     10  O   UNL d   1      -2.542  -2.132  -1.673  0.00  0.00    -0.268 OA
ATOM     11  H   UNL d   1      -0.225  -3.099   0.302  0.00  0.00     0.170 HD
BRANCH   9  12
ATOM     12  C   UNL d   1      -2.294  -4.339  -0.643  0.00  0.00     0.269 C 
ATOM     13 CL   UNL d   1      -1.861  -4.838   1.022  0.00  0.00    -0.073 Cl
ATOM     14 CL   UNL d   1      -4.035  -4.594  -0.891  0.00  0.00    -0.073 Cl
ATOM     15 CL   UNL d   1      -1.345  -5.310  -1.802  0.00  0.00    -0.073 Cl
ENDBRANCH   9  12
ENDBRANCH   1   8
BRANCH   2  16
ATOM     16  C   UNL d   1       2.118  -1.497   0.098  0.00  0.00     0.058 A 
ATOM     17  C   UNL d   1       2.181  -2.619  -0.746  0.00  0.00     0.031 A 
ATOM     18  C   UNL d   1       3.360  -3.360  -0.837  0.00  0.00     0.002 A 
ATOM     19  C   UNL d   1       4.471  -2.988  -0.090  0.00  0.00     0.000 A 
ATOM     20  C   UNL d   1       4.417  -1.866   0.737  0.00  0.00     0.002 A 
ATOM     21  C   UNL d   1       3.245  -1.111   0.825  0.00  0.00     0.031 A 
ENDBRANCH   2  16
TORSDOF 3
