REMARK  3 active torsions:
REMARK  status: ('A' for Active; 'I' for Inactive)
REMARK    1  A    between atoms: N_3  and  C_1 
REMARK    2  A    between atoms: C_7  and  N_3 
REMARK    3  A    between atoms: C_16  and  C_10 
ROOT
ATOM      1  N   UNL d   1      -2.574  -0.714  -0.259  0.00  0.00    -0.336 N 
ATOM      2  H   UNL d   1      -3.053  -0.095   0.386  0.00  0.00     0.168 HD
ENDROOT
BRANCH   1   3
ATOM      3  C   UNL d   1      -2.283  -0.111  -1.460  0.00  0.00     0.148 C 
ATOM      4  S   UNL d   1      -2.858   1.538  -1.524  0.00  0.00    -0.017 SA
ATOM      5  C   UNL d   1      -1.677   2.169  -2.636  0.00  0.00     0.195 C 
ATOM      6  O   UNL d   1      -1.262   3.318  -2.499  0.00  0.00    -0.285 OA
ATOM      7  C   UNL d   1      -1.295   1.349  -3.827  0.00  0.00     0.111 C 
ATOM      8  C   UNL d   1      -1.663  -0.110  -3.768  0.00  0.00     0.130 C 
ATOM      9  N   UNL d   1      -1.701  -0.699  -2.446  0.00  0.00    -0.370 N 
ATOM     10  HN  UNL d   1      -1.255  -1.603  -2.292  1.00  0.00     0.161 HD
ENDBRANCH   1   3
BRANCH   1  11
ATOM     11  C   UNL d   1      -3.115  -2.030  -0.146  0.00  0.00     0.046 C 
ATOM     12  C   UNL d   1      -4.031  -2.575  -1.081  0.00  0.00    -0.035 C 
ATOM     13  C   UNL d   1      -4.453  -3.911  -0.944  0.00  0.00     0.009 C 
ATOM     14  C   UNL d   1      -4.623  -1.823  -2.244  0.00  0.00     0.050 C 
ATOM     15  C   UNL d   1      -4.062  -4.680   0.141  0.00  0.00     0.001 C 
ATOM     16  C   UNL d   1      -3.274  -4.111   1.132  0.00  0.00     0.009 C 
ATOM     17  C   UNL d   1      -2.819  -2.783   1.020  0.00  0.00    -0.031 C 
BRANCH  17  18
ATOM     18  C   UNL d   1      -2.022  -2.222   2.179  0.00  0.00     0.036 C 
ATOM     19  C   UNL d   1      -0.543  -2.561   2.103  0.00  0.00     0.010 C 
ENDBRANCH  17  18
ENDBRANCH   1  11
TORSDOF 3
