REMARK  5 active torsions:
REMARK  status: ('A' for Active; 'I' for Inactive)
REMARK    1  A    between atoms: C_5  and  C_1 
REMARK    2  A    between atoms: C_7  and  C_2 
REMARK       I    between atoms: N_10  and  C_7 
REMARK    3  A    between atoms: C_9  and  C_16 
REMARK       I    between atoms: N_15  and  C_9 
REMARK    4  A    between atoms: C_16  and  N_10 
REMARK    5  A    between atoms: N_19  and  N_15 
ROOT
ATOM      1  C   UNL d   1      -1.302  -0.598  -0.100  0.00  0.00     0.086 A 
ATOM      2  C   UNL d   1      -0.020  -1.233  -0.027  0.00  0.00     0.092 A 
ATOM      3  N   UNL d   1      -1.154   0.704  -0.401  0.00  0.00    -0.259 N 
ATOM      4  HN  UNL d   1      -1.900   1.376  -0.581  1.00  0.00     0.195 HD
ATOM      5  O   UNL d   1       0.195   0.955  -0.418  0.00  0.00    -0.241 OA
ATOM      6  C   UNL d   1       0.876  -0.191  -0.177  0.00  0.00     0.090 A 
ATOM      7  C   UNL d   1       2.343  -0.036  -0.092  0.00  0.00     0.080 C 
ENDROOT
BRANCH   2   8
ATOM      8  C   UNL d   1       0.298  -2.624   0.209  0.00  0.00     0.257 C 
ATOM      9  N   UNL d   1       1.365  -3.095  -0.522  0.00  0.00    -0.348 N 
ATOM     10  H   UNL d   1       1.739  -2.537  -1.285  0.00  0.00     0.163 HD
ATOM     11  O   UNL d   1      -0.356  -3.337   0.962  0.00  0.00    -0.267 OA
BRANCH   9  12
ATOM     12  C   UNL d   1       1.754  -4.490  -0.491  0.00  0.00     0.227 C 
BRANCH  12  13
ATOM     13  C   UNL d   1       2.986  -4.715  -1.365  0.00  0.00     0.249 C 
ATOM     14  O   UNL d   1       3.389  -3.882  -2.181  0.00  0.00    -0.270 OA
ATOM     15  N   UNL d   1       3.580  -5.961  -1.186  0.00  0.00    -0.293 N 
ATOM     16  H   UNL d   1       3.328  -6.529  -0.378  0.00  0.00     0.183 HD
BRANCH  15  17
ATOM     17  N   UNL d   1       4.792  -6.255  -1.853  0.00  0.00    -0.247 NA
ATOM     18  H   UNL d   1       5.062  -5.416  -2.385  0.00  0.00     0.143 HD
ATOM     19  H   UNL d   1       4.602  -6.959  -2.571  0.00  0.00     0.143 HD
ENDBRANCH  15  17
ENDBRANCH  12  13
ENDBRANCH   9  12
ENDBRANCH   2   8
BRANCH   1  20
ATOM     20  C   UNL d   1      -2.651  -1.145   0.062  0.00  0.00     0.037 A 
ATOM     21  C   UNL d   1      -3.542  -0.582   1.003  0.00  0.00     0.048 A 
ATOM     22 CL   UNL d   1      -3.078   0.663   2.120  0.00  0.00    -0.083 Cl
ATOM     23  C   UNL d   1      -4.870  -1.023   1.097  0.00  0.00     0.025 A 
ATOM     24  C   UNL d   1      -5.328  -2.051   0.281  0.00  0.00     0.003 A 
ATOM     25  C   UNL d   1      -4.458  -2.637  -0.634  0.00  0.00     0.025 A 
ATOM     26  C   UNL d   1      -3.135  -2.183  -0.755  0.00  0.00     0.048 A 
ATOM     27 CL   UNL d   1      -2.185  -2.926  -2.000  0.00  0.00    -0.083 Cl
ENDBRANCH   1  20
TORSDOF 5
