REMARK  5 active torsions:
REMARK  status: ('A' for Active; 'I' for Inactive)
REMARK    1  A    between atoms: N_3  and  C_1 
REMARK    2  A    between atoms: O_5  and  C_2 
REMARK    3  A    between atoms: C_4  and  O_5 
REMARK    4  A    between atoms: C_7  and  C_4 
REMARK    5  A    between atoms: C_6  and  C_9 
ROOT
ATOM      1  C   UNL d   1       2.264  -1.219   0.017  0.00  0.00     0.139 A 
ATOM      2  C   UNL d   1       0.962  -1.104   0.550  0.00  0.00     0.130 A 
ATOM      3  C   UNL d   1       3.041  -0.060  -0.201  0.00  0.00     0.055 A 
ATOM      4  C   UNL d   1       2.544   1.210   0.114  0.00  0.00     0.051 A 
ATOM      5  C   UNL d   1       0.499   0.163   0.942  0.00  0.00     0.048 A 
ATOM      6  C   UNL d   1       1.267   1.307   0.689  0.00  0.00     0.038 A 
ATOM      7 BR   UNL d   1      -1.103   0.409   1.935  0.00  0.00    -0.048 Br
ENDROOT
BRANCH   2   8
ATOM      8  O   UNL d   1       0.183  -2.258   0.756  0.00  0.00    -0.271 OA
BRANCH   8   9
ATOM      9  C   UNL d   1      -0.977  -2.378   0.007  0.00  0.00     0.300 C 
ATOM     10  O   UNL d   1      -1.492  -1.484  -0.649  0.00  0.00    -0.259 OA
BRANCH   9  11
ATOM     11  C   UNL d   1      -1.464  -3.789  -0.063  0.00  0.00     0.061 A 
ATOM     12  C   UNL d   1      -1.063  -4.847   0.764  0.00  0.00     0.050 A 
ATOM     13 CL   UNL d   1      -0.132  -4.662   2.208  0.00  0.00    -0.083 Cl
ATOM     14  C   UNL d   1      -1.468  -6.158   0.463  0.00  0.00     0.025 A 
ATOM     15  C   UNL d   1      -2.308  -6.419  -0.621  0.00  0.00     0.002 A 
ATOM     16  C   UNL d   1      -2.774  -5.367  -1.398  0.00  0.00     0.001 A 
ATOM     17  C   UNL d   1      -2.356  -4.063  -1.120  0.00  0.00     0.019 A 
ENDBRANCH   9  11
ENDBRANCH   8   9
ENDBRANCH   2   8
BRANCH   1  18
ATOM     18  N   UNL d   1       2.873  -2.520  -0.290  0.00  0.00    -0.113 N 
ATOM     19  O   UNL d   1       2.187  -3.544  -0.222  0.00  0.00    -0.532 OA
ATOM     20  O   UNL d   1       4.074  -2.519  -0.615  0.00  0.00    -0.532 OA
ENDBRANCH   1  18
BRANCH   4  21
ATOM     21  C   UNL d   1       3.360   2.456  -0.139  0.00  0.00     0.417 C 
ATOM     22  F   UNL d   1       4.670   2.198  -0.400  0.00  0.00    -0.166 F 
ATOM     23  F   UNL d   1       2.896   3.167  -1.201  0.00  0.00    -0.166 F 
ATOM     24  F   UNL d   1       3.350   3.309   0.921  0.00  0.00    -0.166 F 
ENDBRANCH   4  21
TORSDOF 5
