REMARK  7 active torsions:
REMARK  status: ('A' for Active; 'I' for Inactive)
REMARK    1  A    between atoms: C_2  and  S_1 
REMARK    2  A    between atoms: N_9  and  S_1 
REMARK    3  A    between atoms: C_10  and  C_3 
REMARK    4  A    between atoms: C_5  and  C_11 
REMARK    5  A    between atoms: C_15  and  C_20 
REMARK    6  A    between atoms: O_27  and  C_15 
REMARK    7  A    between atoms: C_28  and  O_27 
ROOT
ATOM      1  C   UNL d   1       0.514  -0.431  -1.797  0.00  0.00     0.116 A 
ATOM      2  S   UNL d   1      -1.040   0.053  -2.327  0.00  0.00    -0.075 SA
ATOM      3  C   UNL d   1      -0.833  -0.682  -3.855  0.00  0.00     0.035 A 
ATOM      4  C   UNL d   1       1.216  -1.054  -2.813  0.00  0.00     0.034 A 
ATOM      5  C   UNL d   1       0.432  -1.215  -3.994  0.00  0.00     0.023 A 
ENDROOT
BRANCH   1   6
ATOM      6  S   UNL d   1       0.942  -0.102  -0.088  0.00  0.00     0.250 S 
ATOM      7  O   UNL d   1       0.201   1.076   0.301  0.00  0.00    -0.205 OA
ATOM      8  O   UNL d   1       2.390  -0.126  -0.078  0.00  0.00    -0.205 OA
BRANCH   6   9
ATOM      9  N   UNL d   1       0.383  -1.438   0.849  0.00  0.00    -0.206 NA
ATOM     10  C   UNL d   1      -1.094  -1.532   0.956  0.00  0.00     0.108 C 
ATOM     11  C   UNL d   1      -1.506  -2.642   1.918  0.00  0.00     0.030 C 
ATOM     12  C   UNL d   1      -0.900  -3.985   1.511  0.00  0.00     0.088 C 
ATOM     13  C   UNL d   1       0.625  -3.839   1.475  0.00  0.00     0.030 C 
ATOM     14  C   UNL d   1       1.079  -2.715   0.545  0.00  0.00     0.108 C 
BRANCH  12  15
ATOM     15  C   UNL d   1      -1.432  -4.481   0.173  0.00  0.00     0.263 C 
ATOM     16  O   UNL d   1      -0.729  -4.797  -0.777  0.00  0.00    -0.265 OA
BRANCH  15  17
ATOM     17  O   UNL d   1      -2.792  -4.531   0.178  0.00  0.00    -0.322 OA
BRANCH  17  18
ATOM     18  C   UNL d   1      -3.394  -4.968  -1.052  0.00  0.00     0.174 C 
ATOM     19  C   UNL d   1      -3.521  -3.801  -2.015  0.00  0.00     0.034 C 
ENDBRANCH  17  18
ENDBRANCH  15  17
ENDBRANCH  12  15
ENDBRANCH   6   9
ENDBRANCH   1   6
BRANCH   3  20
ATOM     20  C   UNL d   1      -1.899  -0.762  -4.905  0.00  0.00     0.074 A 
ATOM     21  C   UNL d   1      -3.189  -0.186  -4.852  0.00  0.00     0.077 A 
ATOM     22  C   UNL d   1      -3.799  -0.600  -6.013  0.00  0.00     0.184 A 
ATOM     23  O   UNL d   1      -2.926  -1.356  -6.728  0.00  0.00    -0.233 OA
ATOM     24  N   UNL d   1      -1.730  -1.453  -6.040  0.00  0.00    -0.260 N 
ATOM     25  HN  UNL d   1      -0.890  -1.949  -6.337  1.00  0.00     0.195 HD
BRANCH  22  26
ATOM     26  C   UNL d   1      -5.137  -0.414  -6.599  0.00  0.00     0.441 C 
ATOM     27  F   UNL d   1      -5.909   0.403  -5.833  0.00  0.00    -0.164 F 
ATOM     28  F   UNL d   1      -5.090   0.141  -7.835  0.00  0.00    -0.164 F 
ATOM     29  F   UNL d   1      -5.812  -1.587  -6.712  0.00  0.00    -0.164 F 
ENDBRANCH  22  26
ENDBRANCH   3  20
TORSDOF 7
