REMARK  6 active torsions:
REMARK  status: ('A' for Active; 'I' for Inactive)
REMARK    1  A    between atoms: O_14  and  C_1 
REMARK    2  A    between atoms: C_3  and  C_2 
REMARK       I    between atoms: N_9  and  C_3 
REMARK    3  A    between atoms: C_4  and  N_10 
REMARK    4  A    between atoms: O_15  and  C_5 
REMARK    5  A    between atoms: O_16  and  C_6 
REMARK    6  A    between atoms: N_10  and  N_9 
ROOT
ATOM      1  C   UNL d   1       1.364  -0.426  -0.094  0.00  0.00     0.135 A 
ATOM      2  C   UNL d   1      -1.362   0.284   0.076  0.00  0.00     0.039 A 
ATOM      3  C   UNL d   1       0.367  -1.426  -0.028  0.00  0.00     0.105 A 
ATOM      4  C   UNL d   1       0.990   0.926   0.017  0.00  0.00     0.105 A 
ATOM      5  C   UNL d   1      -0.983  -1.060   0.015  0.00  0.00     0.057 A 
ATOM      6  C   UNL d   1      -0.369   1.264   0.111  0.00  0.00     0.057 A 
ENDROOT
BRANCH   2   7
ATOM      7  C   UNL d   1      -2.823   0.591   0.044  0.00  0.00     0.270 C 
ATOM      8  N   UNL d   1      -3.211   1.910   0.167  0.00  0.00    -0.264 N 
ATOM      9  H   UNL d   1      -2.598   2.688   0.383  0.00  0.00     0.190 HD
ATOM     10  O   UNL d   1      -3.645  -0.312  -0.117  0.00  0.00    -0.266 OA
BRANCH   8  11
ATOM     11  N   UNL d   1      -4.573   2.202   0.013  0.00  0.00    -0.274 N 
ATOM     12  H   UNL d   1      -5.157   1.384  -0.164  0.00  0.00     0.189 HD
BRANCH  11  13
ATOM     13  C   UNL d   1      -5.131   3.295   0.625  0.00  0.00     0.184 C 
ATOM     14  S   UNL d   1      -4.330   4.466   1.495  0.00  0.00    -0.040 SA
ATOM     15  N   UNL d   1      -6.476   3.383   0.436  0.00  0.00    -0.375 N 
ATOM     16  H   UNL d   1      -6.893   2.938  -0.370  0.00  0.00     0.158 HD
ATOM     17  H   UNL d   1      -6.931   4.229   0.763  0.00  0.00     0.158 HD
ENDBRANCH  11  13
ENDBRANCH   8  11
ENDBRANCH   2   7
BRANCH   4  18
ATOM     18  O   UNL d   1       1.782   2.045   0.035  0.00  0.00    -0.353 OA
ATOM     19  C   UNL d   1       3.185   1.917  -0.135  0.00  0.00     0.210 C 
ENDBRANCH   4  18
BRANCH   3  20
ATOM     20  O   UNL d   1       0.785  -2.736  -0.025  0.00  0.00    -0.353 OA
ATOM     21  C   UNL d   1      -0.146  -3.705   0.448  0.00  0.00     0.210 C 
ENDBRANCH   3  20
BRANCH   1  22
ATOM     22  O   UNL d   1       2.697  -0.743  -0.174  0.00  0.00    -0.351 OA
ATOM     23  C   UNL d   1       3.038  -1.642  -1.233  0.00  0.00     0.210 C 
ENDBRANCH   1  22
TORSDOF 6
