REMARK  8 active torsions:
REMARK  status: ('A' for Active; 'I' for Inactive)
REMARK    1  A    between atoms: N_2  and  C_1 
REMARK    2  A    between atoms: N_4  and  C_1 
REMARK    3  A    between atoms: C_7  and  N_2 
REMARK    4  A    between atoms: C_3  and  C_6 
REMARK    5  A    between atoms: O_16  and  C_3 
REMARK    6  A    between atoms: C_14  and  N_4 
REMARK    7  A    between atoms: C_8  and  C_7 
REMARK    8  A    between atoms: C_23  and  O_16 
ROOT
ATOM      1  C   UNL d   1       1.102   0.027  -0.103  0.00  0.00     0.172 C 
ATOM      2  S   UNL d   1       2.634  -0.016  -0.768  0.00  0.00    -0.041 SA
ENDROOT
BRANCH   1   3
ATOM      3  N   UNL d   1       0.751  -0.505   1.099  0.00  0.00    -0.359 N 
ATOM      4  H   UNL d   1      -0.167  -0.928   1.100  0.00  0.00     0.162 HD
BRANCH   3   5
ATOM      5  C   UNL d   1       1.628  -0.892   2.207  0.00  0.00     0.113 C 
ATOM      6  C   UNL d   1       0.907  -1.887   3.123  0.00  0.00     0.037 C 
BRANCH   5   7
ATOM      7  C   UNL d   1       2.077   0.333   2.996  0.00  0.00    -0.036 A 
ATOM      8  C   UNL d   1       1.154   1.169   3.652  0.00  0.00     0.011 A 
ATOM      9  C   UNL d   1       1.586   2.275   4.391  0.00  0.00     0.024 A 
ATOM     10  C   UNL d   1       2.945   2.557   4.480  0.00  0.00     0.034 A 
ATOM     11  C   UNL d   1       3.875   1.750   3.830  0.00  0.00     0.024 A 
ATOM     12 CL   UNL d   1       3.479   3.909   5.403  0.00  0.00    -0.084 Cl
ATOM     13  C   UNL d   1       3.441   0.646   3.091  0.00  0.00     0.011 A 
ENDBRANCH   5   7
ENDBRANCH   3   5
ENDBRANCH   1   3
BRANCH   1  14
ATOM     14  N   UNL d   1       0.113   0.614  -0.846  0.00  0.00    -0.333 N 
ATOM     15  H   UNL d   1       0.438   0.863  -1.775  0.00  0.00     0.168 HD
BRANCH  14  16
ATOM     16  C   UNL d   1      -1.207   1.009  -0.536  0.00  0.00     0.034 A 
ATOM     17  C   UNL d   1      -1.769   0.972   0.740  0.00  0.00     0.030 A 
ATOM     18  C   UNL d   1      -3.111   1.303   0.947  0.00  0.00     0.020 A 
ATOM     19  C   UNL d   1      -3.902   1.733  -0.118  0.00  0.00     0.039 A 
ATOM     20  C   UNL d   1      -3.333   1.855  -1.389  0.00  0.00     0.020 A 
ATOM     21  C   UNL d   1      -1.991   1.491  -1.593  0.00  0.00     0.030 A 
BRANCH  19  22
ATOM     22  C   UNL d   1      -5.341   1.971   0.156  0.00  0.00     0.293 C 
ATOM     23  O   UNL d   1      -5.860   1.747   1.239  0.00  0.00    -0.259 OA
BRANCH  22  24
ATOM     24  O   UNL d   1      -5.980   2.362  -0.972  0.00  0.00    -0.318 OA
BRANCH  24  25
ATOM     25  C   UNL d   1      -7.410   2.274  -0.917  0.00  0.00     0.174 C 
ATOM     26  C   UNL d   1      -7.815   0.880  -1.360  0.00  0.00     0.034 C 
ENDBRANCH  24  25
ENDBRANCH  22  24
ENDBRANCH  19  22
ENDBRANCH  14  16
ENDBRANCH   1  14
TORSDOF 8
