REMARK  1 active torsions:
REMARK  status: ('A' for Active; 'I' for Inactive)
REMARK    1  A    between atoms: N_4  and  C_2 
ROOT
ATOM      1  C   UNL d   1      -0.932  -0.635  -0.491  0.00  0.00     0.094 A 
ATOM      2  C   UNL d   1       0.033  -1.472   0.132  0.00  0.00     0.052 A 
ATOM      3  C   UNL d   1      -0.667   0.737  -0.723  0.00  0.00     0.077 A 
ATOM      4  C   UNL d   1      -2.217  -1.164  -0.862  0.00  0.00     0.103 C 
ATOM      5  C   UNL d   1       0.557   1.295  -0.339  0.00  0.00     0.068 A 
ATOM      6  N   UNL d   1      -3.251  -1.580  -1.192  0.00  0.00    -0.191 NA
ATOM      7  N   UNL d   1       1.162   3.792  -0.699  0.00  0.00    -0.191 NA
ATOM      8  C   UNL d   1       0.870   2.680  -0.546  0.00  0.00     0.101 C 
ATOM      9  C   UNL d   1       1.253  -0.873   0.495  0.00  0.00     0.032 A 
ATOM     10  C   UNL d   1       1.513   0.483   0.270  0.00  0.00     0.027 A 
ATOM     11 CL   UNL d   1      -1.865   1.748  -1.483  0.00  0.00    -0.081 Cl
ENDROOT
BRANCH   2  12
ATOM     12  N   UNL d   1      -0.212  -2.822   0.386  0.00  0.00    -0.380 N 
ATOM     13  C   UNL d   1       0.466  -3.571   1.455  0.00  0.00     0.123 C 
ATOM     14  C   UNL d   1       1.073  -4.776   0.750  0.00  0.00     0.021 C 
ATOM     15  C   UNL d   1       0.042  -5.088  -0.317  0.00  0.00     0.021 C 
ATOM     16  C   UNL d   1      -0.417  -3.707  -0.781  0.00  0.00     0.123 C 
ENDBRANCH   2  12
TORSDOF 1
