REMARK  4 active torsions:
REMARK  status: ('A' for Active; 'I' for Inactive)
REMARK    1  A    between atoms: C_6  and  N_1 
REMARK    2  A    between atoms: C_10  and  C_4 
REMARK    3  A    between atoms: C_13  and  C_5 
REMARK    4  A    between atoms: O_18  and  C_10 
ROOT
ATOM      1  N   UNL d   1       0.964  -0.753  -0.261  0.00  0.00    -0.256 N 
ATOM      2  N   UNL d   1       1.008   0.605  -0.370  0.00  0.00    -0.287 N 
ATOM      3  HN  UNL d   1       1.834   1.202  -0.345  1.00  0.00     0.188 HD
ATOM      4  C   UNL d   1      -0.268   0.988  -0.518  0.00  0.00     0.124 A 
ATOM      5  C   UNL d   1      -0.347  -1.238  -0.246  0.00  0.00     0.044 A 
ATOM      6  C   UNL d   1      -1.134  -0.118  -0.496  0.00  0.00     0.066 A 
ENDROOT
BRANCH   1   7
ATOM      7  C   UNL d   1       2.211  -1.412  -0.199  0.00  0.00     0.100 A 
ATOM      8  C   UNL d   1       3.101  -1.110   0.848  0.00  0.00     0.066 A 
ATOM      9  C   UNL d   1       4.383  -1.668   0.869  0.00  0.00     0.050 A 
ATOM     10 CL   UNL d   1       2.675  -0.107   2.195  0.00  0.00    -0.082 Cl
ATOM     11  C   UNL d   1       4.780  -2.526  -0.149  0.00  0.00     0.037 A 
ATOM     12  C   UNL d   1       3.920  -2.815  -1.204  0.00  0.00     0.050 A 
ATOM     13 CL   UNL d   1       6.355  -3.215  -0.120  0.00  0.00    -0.084 Cl
ATOM     14  C   UNL d   1       2.646  -2.235  -1.248  0.00  0.00     0.066 A 
ATOM     15 CL   UNL d   1       1.742  -2.489  -2.696  0.00  0.00    -0.082 Cl
ENDBRANCH   1   7
BRANCH   5  16
ATOM     16  C   UNL d   1      -0.863  -2.647   0.073  0.00  0.00    -0.007 C 
ATOM     17  C   UNL d   1       0.178  -3.595   0.684  0.00  0.00     0.021 C 
ATOM     18  C   UNL d   1      -2.007  -2.538   1.119  0.00  0.00     0.021 C 
ATOM     19  C   UNL d   1      -1.467  -3.289  -1.192  0.00  0.00     0.021 C 
ENDBRANCH   5  16
BRANCH   4  20
ATOM     20  C   UNL d   1      -0.599   2.406  -0.639  0.00  0.00     0.195 C 
ATOM     21  O   UNL d   1      -1.733   2.846  -0.786  0.00  0.00    -0.645 OA
BRANCH  20  22
ATOM     22  O   UNL d   1       0.502   3.204  -0.557  0.00  0.00    -0.772 OA
ATOM     23  H   UNL d   1       1.270   2.599  -0.425  0.00  0.00     0.167 HD
ENDBRANCH  20  22
ENDBRANCH   4  20
TORSDOF 4
