REMARK  1 active torsions:
REMARK  status: ('A' for Active; 'I' for Inactive)
REMARK    1  A    between atoms: C_4  and  N_1 
ROOT
ATOM      1  C   UNL d   1      -1.330   1.430   2.729  0.00  0.00    -0.012 A 
ATOM      2  C   UNL d   1      -2.387   1.032   3.628  0.00  0.00    -0.013 A 
ATOM      3  C   UNL d   1       0.324   0.997   0.948  0.00  0.00     0.103 A 
ATOM      4  C   UNL d   1      -0.713   0.562   1.789  0.00  0.00     0.049 A 
ATOM      5  C   UNL d   1      -2.413   3.290   4.546  0.00  0.00     0.022 A 
ATOM      6  C   UNL d   1      -2.929   1.975   4.548  0.00  0.00    -0.008 A 
ATOM      7  C   UNL d   1      -0.850   2.763   2.767  0.00  0.00    -0.024 A 
ATOM      8  C   UNL d   1      -1.397   3.673   3.669  0.00  0.00     0.032 A 
ATOM      9  C   UNL d   1       0.181   3.189   1.909  0.00  0.00     0.015 A 
ATOM     10  C   UNL d   1       0.773   2.313   1.002  0.00  0.00     0.037 A 
ATOM     11 BR   UNL d   1      -3.042   4.651   5.729  0.00  0.00    -0.050 Br
ATOM     12  C   UNL d   1      -2.927  -0.281   3.651  0.00  0.00     0.013 A 
ATOM     13  C   UNL d   1      -3.960   1.555   5.428  0.00  0.00     0.013 A 
ATOM     14  C   UNL d   1      -3.942  -0.665   4.528  0.00  0.00     0.001 A 
ATOM     15  C   UNL d   1      -4.459   0.254   5.420  0.00  0.00     0.001 A 
ENDROOT
BRANCH   3  16
ATOM     16  N   UNL d   1       0.948   0.052   0.012  0.00  0.00    -0.116 N 
ATOM     17  O   UNL d   1       0.526  -1.113   0.001  0.00  0.00    -0.532 OA
ATOM     18  O   UNL d   1       1.862   0.475  -0.709  0.00  0.00    -0.532 OA
ENDBRANCH   3  16
TORSDOF 1
