REMARK  6 active torsions:
REMARK  status: ('A' for Active; 'I' for Inactive)
REMARK    1  A    between atoms: O_11  and  C_3 
REMARK    2  A    between atoms: S_9  and  C_4 
REMARK    3  A    between atoms: C_13  and  C_5 
REMARK    4  A    between atoms: C_14  and  C_8 
REMARK    5  A    between atoms: C_10  and  C_13 
REMARK    6  A    between atoms: C_16  and  C_14 
ROOT
ATOM      1  N   UNL d   1      -0.248  -1.278  -0.012  0.00  0.00    -0.317 N 
ATOM      2  HN  UNL d   1      -0.739  -2.171  -0.043  1.00  0.00     0.170 HD
ATOM      3  C   UNL d   1      -0.892  -0.109   0.021  0.00  0.00     0.150 A 
ATOM      4  C   UNL d   1       1.086  -1.194  -0.002  0.00  0.00     0.146 A 
ATOM      5  C   UNL d   1      -0.312   1.142   0.066  0.00  0.00     0.019 A 
ATOM      6  N   UNL d   1       1.778  -0.042   0.009  0.00  0.00    -0.340 N 
ATOM      7  HN  UNL d   1       2.797  -0.041   0.002  1.00  0.00     0.168 HD
ATOM      8  C   UNL d   1       1.075   1.120   0.031  0.00  0.00     0.022 A 
ENDROOT
BRANCH   5   9
ATOM      9  C   UNL d   1      -1.150   2.387   0.130  0.00  0.00     0.071 C 
BRANCH   9  10
ATOM     10  C   UNL d   1      -1.542   3.033  -1.172  0.00  0.00    -0.032 C 
ATOM     11  C   UNL d   1      -1.250   2.639  -2.419  0.00  0.00     0.007 C 
ENDBRANCH   9  10
ENDBRANCH   5   9
BRANCH   3  12
ATOM     12  O   UNL d   1      -2.242  -0.259   0.005  0.00  0.00    -0.346 OA
ATOM     13  H   UNL d   1      -2.308  -1.229  -0.067  0.00  0.00     0.219 HD
ENDBRANCH   3  12
BRANCH   8  14
ATOM     14  C   UNL d   1       1.918   2.373  -0.007  0.00  0.00     0.057 C 
BRANCH  14  15
ATOM     15  C   UNL d   1       2.248   2.972   1.363  0.00  0.00     0.002 C 
ATOM     16  C   UNL d   1       3.125   2.077   2.228  0.00  0.00     0.005 C 
ENDBRANCH  14  15
ENDBRANCH   8  14
BRANCH   4  17
ATOM     17  S   UNL d   1       1.955  -2.744  -0.004  0.00  0.00    -0.098 SA
ATOM     18  C   UNL d   1       3.667  -2.168   0.095  0.00  0.00     0.099 C 
ENDBRANCH   4  17
TORSDOF 6
