REMARK  6 active torsions:
REMARK  status: ('A' for Active; 'I' for Inactive)
REMARK    1  A    between atoms: S_16  and  C_7 
REMARK    2  A    between atoms: S_15  and  C_8 
REMARK    3  A    between atoms: C_17  and  C_13 
REMARK    4  A    between atoms: C_14  and  C_18 
REMARK    5  A    between atoms: C_19  and  C_17 
REMARK    6  A    between atoms: C_18  and  C_19 
ROOT
ATOM      1  C   UNL d   1       4.351  -0.478   0.002  0.00  0.00     0.016 C 
ENDROOT
BRANCH   1   2
ATOM      2  C   UNL d   1       5.612  -1.341  -0.017  0.00  0.00     0.086 C 
BRANCH   2   3
ATOM      3  C   UNL d   1       6.848  -0.524   0.022  0.00  0.00     0.141 A 
ATOM      4  O   UNL d   1       7.089   0.321  -1.029  0.00  0.00    -0.272 OA
ATOM      5  C   UNL d   1       8.287   0.880  -0.668  0.00  0.00     0.200 A 
ATOM      6  N   UNL d   1       8.732   0.416   0.482  0.00  0.00    -0.272 N 
ATOM      7  N   UNL d   1       7.798  -0.495   0.930  0.00  0.00    -0.281 N 
ATOM      8  HN  UNL d   1       9.599   0.680   0.950  1.00  0.00     0.189 HD
ATOM      9  HN  UNL d   1       7.836  -1.038   1.793  1.00  0.00     0.189 HD
BRANCH   5  10
ATOM     10  S   UNL d   1       9.107   2.065  -1.630  0.00  0.00    -0.098 SA
ATOM     11  H   UNL d   1       8.190   2.144  -2.603  0.00  0.00     0.110 HD
ENDBRANCH   5  10
ENDBRANCH   2   3
ENDBRANCH   1   2
BRANCH   1  12
ATOM     12  C   UNL d   1       3.089  -1.341   0.009  0.00  0.00     0.086 C 
BRANCH  12  13
ATOM     13  C   UNL d   1       1.870  -0.501  -0.008  0.00  0.00     0.141 A 
ATOM     14  N   UNL d   1       1.198  -0.026  -1.033  0.00  0.00    -0.281 N 
ATOM     15  N   UNL d   1       0.158   0.709  -0.501  0.00  0.00    -0.272 N 
ATOM     16  HN  UNL d   1       1.403  -0.172  -2.021  1.00  0.00     0.189 HD
ATOM     17  C   UNL d   1       0.271   0.630   0.809  0.00  0.00     0.200 A 
ATOM     18  HN  UNL d   1      -0.559   1.215  -1.021  1.00  0.00     0.189 HD
ATOM     19  O   UNL d   1       1.344  -0.128   1.198  0.00  0.00    -0.272 OA
BRANCH  17  20
ATOM     20  S   UNL d   1      -0.807   1.401   1.921  0.00  0.00    -0.098 SA
ATOM     21  H   UNL d   1      -1.589   1.966   0.991  0.00  0.00     0.110 HD
ENDBRANCH  17  20
ENDBRANCH  12  13
ENDBRANCH   1  12
TORSDOF 6
