REMARK  7 active torsions:
REMARK  status: ('A' for Active; 'I' for Inactive)
REMARK    1  A    between atoms: C_2  and  S_1 
REMARK    2  A    between atoms: N_5  and  S_1 
REMARK    3  A    between atoms: C_8  and  C_3 
REMARK    4  A    between atoms: C_4  and  N_5 
REMARK    5  A    between atoms: O_20  and  C_8 
REMARK    6  A    between atoms: O_21  and  C_10 
REMARK    7  A    between atoms: O_22  and  C_11 
ROOT
ATOM      1  C   UNL d   1       2.241  -2.739   1.132  0.00  0.00     0.069 A 
ATOM      2  C   UNL d   1       0.920  -2.275   1.237  0.00  0.00     0.061 A 
ATOM      3  C   UNL d   1       2.488  -4.110   1.287  0.00  0.00     0.059 A 
ATOM      4  C   UNL d   1      -0.111  -3.165   1.573  0.00  0.00     0.070 A 
ATOM      5  C   UNL d   1       1.445  -5.006   1.539  0.00  0.00     0.102 A 
ATOM      6  C   UNL d   1       0.139  -4.533   1.731  0.00  0.00     0.103 A 
ENDROOT
BRANCH   2   7
ATOM      7  N   UNL d   1       0.569  -0.911   1.042  0.00  0.00    -0.279 N 
ATOM      8  H   UNL d   1       0.501  -0.273   1.834  0.00  0.00     0.179 HD
BRANCH   7   9
ATOM      9  S   UNL d   1      -0.164  -0.407  -0.381  0.00  0.00     0.264 S 
ATOM     10  O   UNL d   1      -1.219  -1.336  -0.711  0.00  0.00    -0.200 OA
ATOM     11  O   UNL d   1      -0.472   0.997  -0.193  0.00  0.00    -0.200 OA
BRANCH   9  12
ATOM     12  C   UNL d   1       1.167  -0.490  -1.556  0.00  0.00     0.101 A 
ATOM     13  C   UNL d   1       1.302  -1.494  -2.517  0.00  0.00     0.059 A 
ATOM     14  C   UNL d   1       2.412  -1.478  -3.378  0.00  0.00     0.049 A 
ATOM     15 CL   UNL d   1       0.229  -2.826  -2.723  0.00  0.00    -0.083 Cl
ATOM     16  C   UNL d   1       3.380  -0.481  -3.268  0.00  0.00     0.035 A 
ATOM     17  C   UNL d   1       3.243   0.528  -2.324  0.00  0.00     0.025 A 
ATOM     18 CL   UNL d   1       4.768  -0.520  -4.282  0.00  0.00    -0.084 Cl
ATOM     19  C   UNL d   1       2.130   0.532  -1.480  0.00  0.00     0.029 A 
ENDBRANCH   9  12
ENDBRANCH   7   9
ENDBRANCH   2   7
BRANCH   1  20
ATOM     20  C   UNL d   1       3.384  -1.815   0.890  0.00  0.00     0.295 C 
ATOM     21  O   UNL d   1       3.398  -0.636   1.188  0.00  0.00    -0.259 OA
BRANCH  20  22
ATOM     22  O   UNL d   1       4.380  -2.494   0.263  0.00  0.00    -0.322 OA
ATOM     23  C   UNL d   1       5.568  -1.757  -0.041  0.00  0.00     0.213 C 
ENDBRANCH  20  22
ENDBRANCH   1  20
BRANCH   6  24
ATOM     24  O   UNL d   1      -0.808  -5.448   2.099  0.00  0.00    -0.353 OA
ATOM     25  C   UNL d   1      -2.152  -5.008   2.245  0.00  0.00     0.210 C 
ENDBRANCH   6  24
BRANCH   5  26
ATOM     26  O   UNL d   1       1.849  -6.314   1.629  0.00  0.00    -0.353 OA
ATOM     27  C   UNL d   1       0.962  -7.261   1.036  0.00  0.00     0.210 C 
ENDBRANCH   5  26
TORSDOF 7
