REMARK  4 active torsions:
REMARK  status: ('A' for Active; 'I' for Inactive)
REMARK    1  A    between atoms: C_3  and  C_1 
REMARK    2  A    between atoms: C_8  and  C_3 
REMARK    3  A    between atoms: C_11  and  C_8 
REMARK    4  A    between atoms: C_10  and  C_11 
ROOT
ATOM      1  C   UNL d   1      -0.235   2.694   0.010  0.00  0.00     0.166 C 
ATOM      2  O   UNL d   1      -1.300   2.963  -0.552  0.00  0.00    -0.292 OA
ENDROOT
BRANCH   1   3
ATOM      3  C   UNL d   1       0.043   1.413   0.655  0.00  0.00     0.050 A 
ATOM      4  S   UNL d   1      -1.184   0.211   0.701  0.00  0.00    -0.098 SA
ATOM      5  C   UNL d   1      -0.188  -0.879   1.560  0.00  0.00     0.050 A 
ATOM      6  C   UNL d   1       1.058  -0.353   1.808  0.00  0.00     0.009 A 
ATOM      7  C   UNL d   1       1.194   0.965   1.281  0.00  0.00     0.023 A 
ENDBRANCH   1   3
BRANCH   1   8
ATOM      8  C   UNL d   1       0.892   3.721  -0.003  0.00  0.00     0.091 C 
BRANCH   8   9
ATOM      9  C   UNL d   1       0.351   5.146  -0.044  0.00  0.00     0.085 C 
BRANCH   9  10
ATOM     10  C   UNL d   1      -0.485   5.444   1.185  0.00  0.00     0.123 C 
ATOM     11  O   UNL d   1      -0.257   4.902   2.267  0.00  0.00    -0.298 OA
ATOM     12  C   UNL d   1      -1.565   6.480   1.036  0.00  0.00     0.091 C 
ENDBRANCH   9  10
ENDBRANCH   8   9
ENDBRANCH   1   8
TORSDOF 4
