REMARK  3 active torsions:
REMARK  status: ('A' for Active; 'I' for Inactive)
REMARK    1  A    between atoms: C_9  and  N_6 
REMARK    2  A    between atoms: C_10  and  C_9 
REMARK       I    between atoms: N_12  and  C_10 
REMARK    3  A    between atoms: N_13  and  N_12 
ROOT
ATOM      1  C   UNL d   1      -0.173  -1.406   0.149  0.00  0.00     0.709 A 
ATOM      2  N   UNL d   1       1.055  -0.957   0.429  0.00  0.00    -0.115 N 
ATOM      3  HN  UNL d   1       1.852  -1.445   0.838  1.00  0.00     0.207 HD
ATOM      4  N   UNL d   1      -0.974  -0.439  -0.407  0.00  0.00    -0.113 N 
ATOM      5  HN  UNL d   1      -1.948  -0.546  -0.691  1.00  0.00     0.203 HD
ATOM      6  N   UNL d   1       0.943   0.319   0.018  0.00  0.00    -0.194 N 
ATOM      7  N   UNL d   1      -0.241   0.661  -0.506  0.00  0.00     0.011 NA
ATOM      8  N   UNL d   1      -0.611  -2.673   0.319  0.00  0.00    -0.215 N 
ATOM      9  C   UNL d   1       0.331  -3.772   0.495  0.00  0.00     0.141 C 
ATOM     10  C   UNL d   1      -1.852  -3.129  -0.304  0.00  0.00     0.141 C 
ATOM     11  C   UNL d   1      -0.212  -4.863  -0.421  0.00  0.00     0.022 C 
ATOM     12  C   UNL d   1      -1.715  -4.651  -0.342  0.00  0.00     0.022 C 
ENDROOT
BRANCH   6  13
ATOM     13  C   UNL d   1       2.079   1.203   0.009  0.00  0.00     0.271 C 
BRANCH  13  14
ATOM     14  C   UNL d   1       2.988   0.943  -1.166  0.00  0.00     0.252 C 
ATOM     15  O   UNL d   1       3.588   1.860  -1.732  0.00  0.00    -0.270 OA
ATOM     16  N   UNL d   1       3.186  -0.388  -1.516  0.00  0.00    -0.292 N 
ATOM     17  H   UNL d   1       2.780  -1.143  -0.953  0.00  0.00     0.183 HD
BRANCH  16  18
ATOM     18  N   UNL d   1       4.074  -0.709  -2.564  0.00  0.00    -0.247 NA
ATOM     19  H   UNL d   1       4.604   0.147  -2.785  0.00  0.00     0.143 HD
ATOM     20  H   UNL d   1       3.520  -0.878  -3.409  0.00  0.00     0.143 HD
ENDBRANCH  16  18
ENDBRANCH  13  14
ENDBRANCH   6  13
TORSDOF 3
