REMARK  8 active torsions:
REMARK  status: ('A' for Active; 'I' for Inactive)
REMARK    1  A    between atoms: C_7  and  C_1 
REMARK    2  A    between atoms: N_5  and  C_2 
REMARK       I    between atoms: C_3  and  N_5 
REMARK       I    between atoms: N_11  and  C_3 
REMARK    3  A    between atoms: C_6  and  O_12 
REMARK    4  A    between atoms: O_20  and  C_7 
REMARK    5  A    between atoms: O_21  and  C_9 
REMARK    6  A    between atoms: O_22  and  C_10 
REMARK    7  A    between atoms: C_18  and  N_11 
REMARK    8  A    between atoms: O_12  and  C_19 
ROOT
ATOM      1  C   UNL d   1       0.944  -3.196  -2.305  0.00  0.00     0.325 C 
ATOM      2  N   UNL d   1       1.310  -2.800  -1.054  0.00  0.00    -0.308 N 
ATOM      3  N   UNL d   1       1.870  -3.501  -3.233  0.00  0.00    -0.309 N 
ATOM      4  O   UNL d   1      -0.209  -3.169  -2.752  0.00  0.00    -0.247 OA
ATOM      5  H   UNL d   1       2.296  -2.842  -0.820  0.00  0.00     0.170 HD
ATOM      6  H   UNL d   1       1.387  -3.497  -4.124  0.00  0.00     0.170 HD
ENDROOT
BRANCH   2   7
ATOM      7  C   UNL d   1       0.533  -1.879  -0.271  0.00  0.00     0.055 C 
ATOM      8  C   UNL d   1       1.155  -1.054   0.677  0.00  0.00     0.069 C 
ATOM      9  C   UNL d   1       0.509   0.129   1.076  0.00  0.00     0.059 C 
ATOM     10  C   UNL d   1      -0.786   0.436   0.643  0.00  0.00     0.102 C 
ATOM     11  C   UNL d   1      -1.508  -0.523  -0.074  0.00  0.00     0.103 C 
ATOM     12  C   UNL d   1      -0.834  -1.665  -0.526  0.00  0.00     0.070 C 
BRANCH   8  13
ATOM     13  C   UNL d   1       2.470  -1.425   1.272  0.00  0.00     0.295 C 
ATOM     14  O   UNL d   1       3.206  -2.283   0.815  0.00  0.00    -0.259 OA
BRANCH  13  15
ATOM     15  O   UNL d   1       2.634  -0.753   2.440  0.00  0.00    -0.322 OA
ATOM     16  C   UNL d   1       3.730  -1.128   3.278  0.00  0.00     0.213 C 
ENDBRANCH  13  15
ENDBRANCH   8  13
BRANCH  10  17
ATOM     17  O   UNL d   1      -1.209   1.680   1.036  0.00  0.00    -0.353 OA
ATOM     18  C   UNL d   1      -2.283   2.267   0.307  0.00  0.00     0.210 C 
ENDBRANCH  10  17
BRANCH  11  19
ATOM     19  O   UNL d   1      -2.833  -0.282  -0.320  0.00  0.00    -0.353 OA
ATOM     20  C   UNL d   1      -3.627  -1.348  -0.829  0.00  0.00     0.210 C 
ENDBRANCH  11  19
ENDBRANCH   2   7
BRANCH   3  21
ATOM     21  C   UNL d   1       3.236  -3.788  -3.330  0.00  0.00     0.036 A 
ATOM     22  C   UNL d   1       4.093  -4.141  -2.295  0.00  0.00     0.032 A 
ATOM     23  C   UNL d   1       5.423  -4.530  -2.579  0.00  0.00     0.039 A 
ATOM     24  C   UNL d   1       5.896  -4.566  -3.895  0.00  0.00     0.078 A 
ATOM     25  C   UNL d   1       5.037  -4.182  -4.922  0.00  0.00     0.039 A 
ATOM     26  C   UNL d   1       3.731  -3.801  -4.642  0.00  0.00     0.032 A 
BRANCH  24  27
ATOM     27  O   UNL d   1       7.118  -4.967  -4.339  0.00  0.00    -0.255 OA
BRANCH  27  28
ATOM     28  C   UNL d   1       8.097  -5.351  -3.396  0.00  0.00     0.530 C 
ATOM     29  F   UNL d   1       7.667  -6.368  -2.623  0.00  0.00    -0.144 F 
ATOM     30  F   UNL d   1       9.195  -5.771  -4.068  0.00  0.00    -0.144 F 
ATOM     31  F   UNL d   1       8.451  -4.306  -2.621  0.00  0.00    -0.144 F 
ENDBRANCH  27  28
ENDBRANCH  24  27
ENDBRANCH   3  21
TORSDOF 8
