REMARK  6 active torsions:
REMARK  status: ('A' for Active; 'I' for Inactive)
REMARK    1  A    between atoms: N_2  and  C_1 
REMARK    2  A    between atoms: N_4  and  C_1 
REMARK    3  A    between atoms: C_7  and  N_2 
REMARK    4  A    between atoms: N_8  and  N_4 
REMARK    5  A    between atoms: C_10  and  N_4 
REMARK    6  A    between atoms: C_9  and  C_10 
ROOT
ATOM      1  N   UNL d   1      -2.332  -0.821   2.759  0.00  0.00    -0.197 NA
ATOM      2  C   UNL d   1      -1.228  -1.179   2.801  0.00  0.00     0.060 C 
ATOM      3  C   UNL d   1       0.173  -1.616   2.841  0.00  0.00     0.145 C 
ENDROOT
BRANCH   3   4
ATOM      4  C   UNL d   1       0.602  -2.225   1.506  0.00  0.00     0.159 C 
BRANCH   4   5
ATOM      5  N   UNL d   1       0.436  -1.294   0.372  0.00  0.00    -0.290 N 
BRANCH   5   6
ATOM      6  C   UNL d   1       1.270  -0.179   0.094  0.00  0.00     0.184 C 
ATOM      7  S   UNL d   1       2.719   0.113   0.877  0.00  0.00    -0.040 SA
BRANCH   6   8
ATOM      8  N   UNL d   1       0.719   0.603  -0.911  0.00  0.00    -0.358 N 
ATOM      9  H   UNL d   1      -0.286   0.499  -0.931  0.00  0.00     0.162 HD
BRANCH   8  10
ATOM     10  C   UNL d   1       1.228   1.774  -1.663  0.00  0.00     0.021 C 
ATOM     11  C   UNL d   1       2.536   1.438  -2.394  0.00  0.00     0.037 C 
ATOM     12  C   UNL d   1       0.170   2.110  -2.734  0.00  0.00     0.037 C 
ATOM     13  C   UNL d   1       1.398   3.010  -0.768  0.00  0.00     0.037 C 
ENDBRANCH   8  10
ENDBRANCH   6   8
ENDBRANCH   5   6
BRANCH   5  14
ATOM     14  N   UNL d   1      -0.519  -1.708  -0.603  0.00  0.00    -0.245 NA
ATOM     15  H   UNL d   1      -0.170  -1.442  -1.529  0.00  0.00     0.143 HD
ATOM     16  H   UNL d   1      -1.399  -1.219  -0.437  0.00  0.00     0.143 HD
ENDBRANCH   5  14
ENDBRANCH   4   5
ENDBRANCH   3   4
TORSDOF 6
