REMARK  5 active torsions:
REMARK  status: ('A' for Active; 'I' for Inactive)
REMARK    1  A    between atoms: C_7  and  N_1 
REMARK    2  A    between atoms: S_6  and  C_5 
REMARK    3  A    between atoms: C_12  and  S_6 
REMARK    4  A    between atoms: C_10  and  C_12 
REMARK    5  A    between atoms: O_13  and  C_10 
ROOT
ATOM      1  N   UNL d   1       0.004   0.832  -0.059  0.00  0.00    -0.251 N 
ATOM      2  C   UNL d   1      -1.140   0.073   0.021  0.00  0.00     0.232 C 
ATOM      3  C   UNL d   1       1.124   0.042  -0.037  0.00  0.00     0.245 C 
ATOM      4  C   UNL d   1      -0.777  -1.384  -0.016  0.00  0.00     0.128 C 
ATOM      5  C   UNL d   1       0.730  -1.404  -0.177  0.00  0.00     0.149 C 
ATOM      6  O   UNL d   1      -2.304   0.442   0.116  0.00  0.00    -0.273 OA
ATOM      7  O   UNL d   1       2.302   0.372   0.116  0.00  0.00    -0.271 OA
ENDROOT
BRANCH   1   8
ATOM      8  C   UNL d   1       0.043   2.257  -0.083  0.00  0.00     0.045 A 
ATOM      9  C   UNL d   1      -0.996   3.035   0.446  0.00  0.00     0.030 A 
ATOM     10  C   UNL d   1      -0.931   4.433   0.432  0.00  0.00     0.002 A 
ATOM     11  C   UNL d   1       0.161   5.079  -0.138  0.00  0.00     0.000 A 
ATOM     12  C   UNL d   1       1.190   4.328  -0.694  0.00  0.00     0.002 A 
ATOM     13  C   UNL d   1       1.134   2.931  -0.659  0.00  0.00     0.030 A 
ENDBRANCH   1   8
BRANCH   5  14
ATOM     14  S   UNL d   1       1.258  -2.049  -1.810  0.00  0.00    -0.144 SA
BRANCH  14  15
ATOM     15  C   UNL d   1       3.071  -1.803  -1.746  0.00  0.00     0.184 C 
BRANCH  15  16
ATOM     16  C   UNL d   1       3.712  -2.487  -0.559  0.00  0.00     0.149 C 
ATOM     17  O   UNL d   1       4.048  -3.663  -0.548  0.00  0.00    -0.649 OA
BRANCH  16  18
ATOM     18  O   UNL d   1       3.854  -1.693   0.529  0.00  0.00    -0.776 OA
ATOM     19  H   UNL d   1       3.540  -0.764   0.410  0.00  0.00     0.167 HD
ENDBRANCH  16  18
ENDBRANCH  15  16
ENDBRANCH  14  15
ENDBRANCH   5  14
TORSDOF 5
