REMARK  3 active torsions:
REMARK  status: ('A' for Active; 'I' for Inactive)
REMARK    1  A    between atoms: C_2  and  C_1 
REMARK    2  A    between atoms: C_4  and  C_2 
REMARK    3  A    between atoms: C_9  and  C_3 
ROOT
ATOM      1  C   UNL d   1       0.897   0.043   0.007  0.00  0.00     0.091 C 
ATOM      2  C   UNL d   1       0.217   0.914  -0.762  0.00  0.00     0.038 C 
ATOM      3  C   UNL d   1       0.242  -0.876   0.876  0.00  0.00     0.103 C 
ATOM      4  N   UNL d   1      -0.286  -1.626   1.584  0.00  0.00    -0.191 NA
ENDROOT
BRANCH   1   5
ATOM      5  C   UNL d   1       2.391   0.071  -0.079  0.00  0.00     0.174 C 
ATOM      6  O   UNL d   1       2.990   0.907  -0.749  0.00  0.00    -0.291 OA
BRANCH   5   7
ATOM      7  C   UNL d   1       3.154  -0.945   0.713  0.00  0.00     0.061 A 
ATOM      8  C   UNL d   1       4.102  -0.476   1.793  0.00  0.00     0.013 A 
ATOM      9  C   UNL d   1       4.648  -1.102   0.544  0.00  0.00     0.013 A 
ENDBRANCH   5   7
ENDBRANCH   1   5
BRANCH   2  10
ATOM     10  C   UNL d   1      -1.248   0.996  -0.797  0.00  0.00    -0.033 A 
ATOM     11  C   UNL d   1      -1.958   0.353  -1.817  0.00  0.00     0.035 A 
ATOM     12  C   UNL d   1      -3.353   0.373  -1.809  0.00  0.00     0.034 A 
ATOM     13 CL   UNL d   1      -4.224  -0.436  -3.053  0.00  0.00    -0.084 Cl
ATOM     14  C   UNL d   1      -4.047   1.032  -0.796  0.00  0.00     0.024 A 
ATOM     15  C   UNL d   1      -3.342   1.682   0.217  0.00  0.00     0.003 A 
ATOM     16  C   UNL d   1      -1.946   1.667   0.216  0.00  0.00     0.011 A 
ENDBRANCH   2  10
TORSDOF 3
