REMARK  8 active torsions:
REMARK  status: ('A' for Active; 'I' for Inactive)
REMARK    1  A    between atoms: N_3  and  C_1 
REMARK    2  A    between atoms: N_4  and  C_1 
REMARK    3  A    between atoms: C_5  and  C_1 
REMARK    4  A    between atoms: C_6  and  C_1 
REMARK    5  A    between atoms: C_2  and  N_4 
REMARK       I    between atoms: C_9  and  N_3 
REMARK    6  A    between atoms: C_11  and  C_9 
REMARK    7  A    between atoms: O_23  and  C_15 
REMARK    8  A    between atoms: C_27  and  O_23 
ROOT
ATOM      1  C   UNL d   1       0.744  -0.411   0.310  0.00  0.00     0.308 C 
ENDROOT
BRANCH   1   2
ATOM      2  N   UNL d   1       0.838   1.002  -0.206  0.00  0.00    -0.315 N 
ATOM      3  C   UNL d   1       1.458   1.667  -1.234  0.00  0.00     0.256 C 
ATOM      4  O   UNL d   1       1.006   2.773  -1.520  0.00  0.00    -0.267 OA
ATOM      5  H   UNL d   1       0.045   1.570   0.088  0.00  0.00     0.165 HD
BRANCH   3   6
ATOM      6  C   UNL d   1       2.627   1.136  -1.969  0.00  0.00     0.065 C 
ATOM      7  C   UNL d   1       2.749   1.205  -3.373  0.00  0.00     0.084 C 
ATOM      8  C   UNL d   1       3.853   0.590  -3.985  0.00  0.00     0.038 C 
ATOM      9  C   UNL d   1       4.870   0.022  -3.223  0.00  0.00     0.003 C 
ATOM     10  C   UNL d   1       4.817   0.098  -1.834  0.00  0.00     0.001 C 
ATOM     11  C   UNL d   1       3.714   0.680  -1.218  0.00  0.00     0.020 C 
BRANCH   7  12
ATOM     12  O   UNL d   1       1.799   1.879  -4.107  0.00  0.00    -0.350 OA
BRANCH  12  13
ATOM     13  C   UNL d   1       2.250   2.397  -5.373  0.00  0.00     0.171 C 
ATOM     14  C   UNL d   1       1.438   3.613  -5.782  0.00  0.00     0.034 C 
ENDBRANCH  12  13
ENDBRANCH   7  12
ENDBRANCH   3   6
ENDBRANCH   1   2
BRANCH   1  15
ATOM     15  N   UNL d   1       0.259  -1.256  -0.835  0.00  0.00    -0.329 N 
ATOM     16  H   UNL d   1       0.938  -1.663  -1.471  0.00  0.00     0.164 HD
BRANCH  15  17
ATOM     17  C   UNL d   1      -1.058  -1.464  -1.143  0.00  0.00     0.148 A 
ATOM     18  N   UNL d   1      -1.996  -1.050  -0.347  0.00  0.00    -0.336 N 
ATOM     19  C   UNL d   1      -3.229  -1.315  -0.914  0.00  0.00     0.051 A 
ATOM     20  HN  UNL d   1      -1.847  -0.599   0.556  1.00  0.00     0.168 HD
ATOM     21  C   UNL d   1      -4.480  -0.997  -0.352  0.00  0.00     0.031 A 
ATOM     22  C   UNL d   1      -3.186  -1.935  -2.166  0.00  0.00     0.035 A 
ATOM     23  C   UNL d   1      -5.648  -1.268  -1.071  0.00  0.00     0.002 A 
ATOM     24  C   UNL d   1      -5.580  -1.858  -2.330  0.00  0.00     0.002 A 
ATOM     25  C   UNL d   1      -4.351  -2.213  -2.895  0.00  0.00     0.021 A 
ATOM     26  S   UNL d   1      -1.538  -2.245  -2.573  0.00  0.00    -0.052 SA
ENDBRANCH  15  17
ENDBRANCH   1  15
BRANCH   1  27
ATOM     27  C   UNL d   1      -0.135  -0.419   1.609  0.00  0.00     0.441 C 
ATOM     28  F   UNL d   1      -1.195   0.420   1.498  0.00  0.00    -0.166 F 
ATOM     29  F   UNL d   1      -0.602  -1.646   1.925  0.00  0.00    -0.166 F 
ATOM     30  F   UNL d   1       0.562   0.033   2.682  0.00  0.00    -0.166 F 
ENDBRANCH   1  27
BRANCH   1  31
ATOM     31  C   UNL d   1       2.025  -1.094   0.864  0.00  0.00     0.441 C 
ATOM     32  F   UNL d   1       2.797  -0.266   1.596  0.00  0.00    -0.166 F 
ATOM     33  F   UNL d   1       1.758  -2.184   1.619  0.00  0.00    -0.166 F 
ATOM     34  F   UNL d   1       2.781  -1.561  -0.165  0.00  0.00    -0.166 F 
ENDBRANCH   1  31
TORSDOF 8
