REMARK  3 active torsions:
REMARK  status: ('A' for Active; 'I' for Inactive)
REMARK    1  A    between atoms: C_2  and  C_1 
REMARK    2  A    between atoms: O_11  and  C_2 
REMARK    3  A    between atoms: C_9  and  C_3 
ROOT
ATOM      1  C   UNL d   1       0.871   0.032  -0.035  0.00  0.00     0.120 C 
ATOM      2  C   UNL d   1       0.179  -0.789  -0.851  0.00  0.00     0.040 C 
ATOM      3  C   UNL d   1       0.237   0.953   0.842  0.00  0.00     0.105 C 
ATOM      4  N   UNL d   1      -0.309   1.695   1.549  0.00  0.00    -0.191 NA
ENDROOT
BRANCH   1   5
ATOM      5  C   UNL d   1       2.355  -0.052  -0.085  0.00  0.00     0.303 C 
ATOM      6  O   UNL d   1       2.973  -0.808  -0.821  0.00  0.00    -0.258 OA
BRANCH   5   7
ATOM      7  O   UNL d   1       2.922   0.822   0.785  0.00  0.00    -0.322 OA
ATOM      8  C   UNL d   1       4.353   0.813   0.787  0.00  0.00     0.213 C 
ENDBRANCH   5   7
ENDBRANCH   1   5
BRANCH   2   9
ATOM      9  C   UNL d   1      -1.284  -0.838  -0.962  0.00  0.00    -0.035 A 
ATOM     10  C   UNL d   1      -1.949   0.004  -1.859  0.00  0.00     0.013 A 
ATOM     11  C   UNL d   1      -3.338  -0.076  -2.004  0.00  0.00     0.023 A 
ATOM     12  C   UNL d   1      -4.073  -1.000  -1.254  0.00  0.00     0.044 A 
ATOM     13  C   UNL d   1      -5.493  -1.109  -1.431  0.00  0.00     0.099 C 
ATOM     14  C   UNL d   1      -3.411  -1.828  -0.341  0.00  0.00     0.023 A 
ATOM     15  N   UNL d   1      -6.639  -1.204  -1.584  0.00  0.00    -0.191 NA
ATOM     16  C   UNL d   1      -2.021  -1.744  -0.192  0.00  0.00     0.013 A 
ENDBRANCH   2   9
TORSDOF 3
