REMARK  10 active torsions:
REMARK  status: ('A' for Active; 'I' for Inactive)
REMARK    1  A    between atoms: C_10  and  C_1 
REMARK    2  A    between atoms: C_15  and  N_4 
REMARK    3  A    between atoms: C_8  and  C_13 
REMARK    4  A    between atoms: C_9  and  C_14 
REMARK    5  A    between atoms: N_11  and  C_12 
REMARK       I    between atoms: C_17  and  N_11 
REMARK    6  A    between atoms: C_12  and  N_25 
REMARK    7  A    between atoms: C_16  and  C_15 
REMARK       I    between atoms: N_26  and  C_16 
REMARK    8  A    between atoms: C_23  and  C_17 
REMARK    9  A    between atoms: C_24  and  C_23 
REMARK   10  A    between atoms: N_25  and  N_26 
ROOT
ATOM      1  C   UNL d   1      -1.697   1.617  -0.294  0.00  0.00     0.144 A 
ATOM      2  N   UNL d   1      -0.785   1.352   0.655  0.00  0.00    -0.268 N 
ATOM      3  HN  UNL d   1      -0.797   1.577   1.650  1.00  0.00     0.190 HD
ATOM      4  N   UNL d   1       0.154   0.705  -0.071  0.00  0.00    -0.207 N 
ATOM      5  N   UNL d   1      -1.359   1.087  -1.513  0.00  0.00    -0.266 N 
ATOM      6  HN  UNL d   1      -1.914   1.126  -2.368  1.00  0.00     0.186 HD
ATOM      7  N   UNL d   1      -0.171   0.515  -1.367  0.00  0.00    -0.002 NA
ENDROOT
BRANCH   4   8
ATOM      8  C   UNL d   1       1.541   0.845   0.318  0.00  0.00     0.271 C 
BRANCH   8   9
ATOM      9  C   UNL d   1       1.914  -0.111   1.423  0.00  0.00     0.257 C 
ATOM     10  N   UNL d   1       2.779   0.337   2.403  0.00  0.00    -0.266 N 
ATOM     11  H   UNL d   1       3.073  -0.335   3.112  0.00  0.00     0.190 HD
ATOM     12  O   UNL d   1       1.508  -1.273   1.460  0.00  0.00    -0.270 OA
BRANCH  10  13
ATOM     13  N   UNL d   1       3.511   1.520   2.298  0.00  0.00    -0.273 N 
ATOM     14  H   UNL d   1       3.323   2.140   1.509  0.00  0.00     0.189 HD
BRANCH  13  15
ATOM     15  C   UNL d   1       4.746   1.687   2.884  0.00  0.00     0.193 C 
ATOM     16  S   UNL d   1       5.361   0.763   4.128  0.00  0.00    -0.039 SA
BRANCH  15  17
ATOM     17  N   UNL d   1       5.492   2.736   2.374  0.00  0.00    -0.299 N 
ATOM     18  C   UNL d   1       5.177   3.478   1.255  0.00  0.00     0.247 C 
ATOM     19  O   UNL d   1       4.192   3.249   0.550  0.00  0.00    -0.268 OA
ATOM     20  H   UNL d   1       6.373   2.899   2.845  0.00  0.00     0.171 HD
BRANCH  18  21
ATOM     21  C   UNL d   1       6.111   4.583   0.951  0.00  0.00     0.076 C 
BRANCH  21  22
ATOM     22  C   UNL d   1       6.072   5.089  -0.292  0.00  0.00     0.024 C 
ATOM     23  C   UNL d   1       6.775   6.265  -0.680  0.00  0.00     0.004 A 
ATOM     24  S   UNL d   1       6.775   6.699  -2.353  0.00  0.00    -0.102 SA
ATOM     25  C   UNL d   1       7.455   7.217   0.061  0.00  0.00     0.019 A 
ATOM     26  C   UNL d   1       7.605   8.159  -2.057  0.00  0.00     0.050 A 
ATOM     27  C   UNL d   1       7.916   8.313  -0.727  0.00  0.00     0.008 A 
ENDBRANCH  21  22
ENDBRANCH  18  21
ENDBRANCH  15  17
ENDBRANCH  13  15
ENDBRANCH  10  13
ENDBRANCH   8   9
ENDBRANCH   4   8
BRANCH   1  28
ATOM     28  C   UNL d   1      -2.809   2.536  -0.088  0.00  0.00     0.012 A 
ATOM     29  C   UNL d   1      -3.063   3.049   1.194  0.00  0.00     0.031 A 
ATOM     30  C   UNL d   1      -4.032   4.039   1.405  0.00  0.00     0.049 A 
ATOM     31  C   UNL d   1      -4.769   4.503   0.304  0.00  0.00     0.032 A 
ATOM     32  C   UNL d   1      -4.546   3.993  -0.986  0.00  0.00     0.049 A 
ATOM     33  C   UNL d   1      -3.567   3.003  -1.170  0.00  0.00     0.031 A 
BRANCH  30  34
ATOM     34  C   UNL d   1      -4.256   4.619   2.781  0.00  0.00     0.417 C 
ATOM     35  F   UNL d   1      -3.434   4.103   3.735  0.00  0.00    -0.166 F 
ATOM     36  F   UNL d   1      -4.059   5.966   2.809  0.00  0.00    -0.166 F 
ATOM     37  F   UNL d   1      -5.525   4.416   3.228  0.00  0.00    -0.166 F 
ENDBRANCH  30  34
BRANCH  32  38
ATOM     38  C   UNL d   1      -5.331   4.540  -2.156  0.00  0.00     0.417 C 
ATOM     39  F   UNL d   1      -5.013   3.962  -3.347  0.00  0.00    -0.166 F 
ATOM     40  F   UNL d   1      -6.671   4.375  -2.002  0.00  0.00    -0.166 F 
ATOM     41  F   UNL d   1      -5.133   5.878  -2.326  0.00  0.00    -0.166 F 
ENDBRANCH  32  38
ENDBRANCH   1  28
TORSDOF 10
