REMARK  5 active torsions:
REMARK  status: ('A' for Active; 'I' for Inactive)
REMARK    1  A    between atoms: C_9  and  N_1 
REMARK    2  A    between atoms: N_5  and  C_2 
REMARK    3  A    between atoms: N_8  and  C_3 
REMARK       I    between atoms: C_6  and  N_7 
REMARK    4  A    between atoms: C_12  and  C_6 
REMARK    5  A    between atoms: O_29  and  C_26 
ROOT
ATOM      1  C   UNL d   1      -2.959   8.635   2.334  0.00  0.00     0.253 C 
ATOM      2  N   UNL d   1      -2.453   7.340   2.208  0.00  0.00    -0.345 N 
ATOM      3  N   UNL d   1      -1.350   4.734   1.671  0.00  0.00    -0.376 N 
ATOM      4  C   UNL d   1      -1.748   6.575   3.256  0.00  0.00     0.146 C 
ATOM      5  C   UNL d   1      -2.218   6.879   0.831  0.00  0.00     0.146 C 
ATOM      6  C   UNL d   1      -1.753   5.045   3.050  0.00  0.00     0.143 C 
ATOM      7  C   UNL d   1      -2.282   5.349   0.692  0.00  0.00     0.143 C 
ATOM      8  O   UNL d   1      -3.320   9.296   1.357  0.00  0.00    -0.267 OA
ENDROOT
BRANCH   3   9
ATOM      9  C   UNL d   1      -0.755   3.523   1.325  0.00  0.00     0.058 A 
ATOM     10  C   UNL d   1      -0.921   2.381   2.132  0.00  0.00     0.034 A 
ATOM     11  C   UNL d   1      -0.405   1.129   1.770  0.00  0.00     0.038 A 
ATOM     12  C   UNL d   1       0.276   0.991   0.561  0.00  0.00     0.105 A 
ATOM     13  C   UNL d   1       0.481   2.096  -0.268  0.00  0.00     0.068 A 
ATOM     14  C   UNL d   1       0.011   3.358   0.135  0.00  0.00     0.067 A 
BRANCH  12  15
ATOM     15  N   UNL d   1       0.816  -0.319   0.174  0.00  0.00    -0.116 N 
ATOM     16  O   UNL d   1       1.357  -0.416  -0.937  0.00  0.00    -0.532 OA
ATOM     17  O   UNL d   1       0.694  -1.256   0.979  0.00  0.00    -0.532 OA
ENDBRANCH  12  15
BRANCH  14  18
ATOM     18  N   UNL d   1       0.409   4.472  -0.659  0.00  0.00    -0.331 N 
ATOM     19  C   UNL d   1       0.489   4.502  -2.039  0.00  0.00     0.097 A 
ATOM     20  C   UNL d   1       0.780   5.790  -2.438  0.00  0.00     0.019 A 
ATOM     21  C   UNL d   1       0.979   6.557  -1.271  0.00  0.00     0.019 A 
ATOM     22  C   UNL d   1       0.794   5.714  -0.198  0.00  0.00     0.097 A 
ENDBRANCH  14  18
ENDBRANCH   3   9
BRANCH   1  23
ATOM     23  C   UNL d   1      -3.182   9.251   3.665  0.00  0.00     0.032 A 
ATOM     24  C   UNL d   1      -2.225   9.276   4.681  0.00  0.00     0.020 A 
ATOM     25  C   UNL d   1      -2.533   9.841   5.925  0.00  0.00     0.038 A 
ATOM     26  C   UNL d   1      -3.779  10.434   6.135  0.00  0.00     0.068 A 
ATOM     27  C   UNL d   1      -4.698  10.499   5.087  0.00  0.00     0.038 A 
ATOM     28  C   UNL d   1      -4.408   9.902   3.862  0.00  0.00     0.020 A 
BRANCH  26  29
ATOM     29  O   UNL d   1      -4.169  11.036   7.298  0.00  0.00    -0.356 OA
ATOM     30  C   UNL d   1      -3.690  10.416   8.486  0.00  0.00     0.210 C 
ENDBRANCH  26  29
ENDBRANCH   1  23
TORSDOF 5
