REMARK  7 active torsions:
REMARK  status: ('A' for Active; 'I' for Inactive)
REMARK    1  A    between atoms: C_7  and  C_1 
REMARK    2  A    between atoms: C_8  and  C_2 
REMARK    3  A    between atoms: C_9  and  C_6 
REMARK    4  A    between atoms: O_12  and  C_7 
REMARK    5  A    between atoms: O_13  and  C_8 
REMARK    6  A    between atoms: C_16  and  O_12 
REMARK    7  A    between atoms: C_17  and  O_13 
ROOT
ATOM      1  C   UNL d   1       1.386   0.901   0.020  0.00  0.00     0.132 A 
ATOM      2  C   UNL d   1       0.085   1.383   0.029  0.00  0.00     0.115 A 
ATOM      3  N   UNL d   1       1.469  -0.503   0.064  0.00  0.00    -0.344 N 
ATOM      4  HN  UNL d   1       2.341  -1.027   0.137  1.00  0.00     0.167 HD
ATOM      5  S   UNL d   1      -1.022   0.072  -0.013  0.00  0.00    -0.063 SA
ATOM      6  C   UNL d   1       0.273  -1.053  -0.002  0.00  0.00     0.086 A 
ENDROOT
BRANCH   6   7
ATOM      7  C   UNL d   1       0.011  -2.502  -0.025  0.00  0.00    -0.002 A 
ATOM      8  C   UNL d   1       0.895  -3.376   0.627  0.00  0.00     0.014 A 
ATOM      9  C   UNL d   1       0.655  -4.754   0.653  0.00  0.00     0.001 A 
ATOM     10  C   UNL d   1      -0.464  -5.280   0.012  0.00  0.00     0.000 A 
ATOM     11  C   UNL d   1      -1.338  -4.433  -0.664  0.00  0.00     0.001 A 
ATOM     12  C   UNL d   1      -1.099  -3.056  -0.686  0.00  0.00     0.014 A 
ENDBRANCH   6   7
BRANCH   1  13
ATOM     13  C   UNL d   1       2.594   1.718  -0.156  0.00  0.00     0.311 C 
ATOM     14  O   UNL d   1       2.582   2.922  -0.376  0.00  0.00    -0.258 OA
BRANCH  13  15
ATOM     15  O   UNL d   1       3.732   0.960  -0.188  0.00  0.00    -0.317 OA
BRANCH  15  16
ATOM     16  C   UNL d   1       4.859   1.597  -0.805  0.00  0.00     0.175 C 
ATOM     17  C   UNL d   1       4.742   1.442  -2.312  0.00  0.00     0.034 C 
ENDBRANCH  15  16
ENDBRANCH  13  15
ENDBRANCH   1  13
BRANCH   2  18
ATOM     18  C   UNL d   1      -0.459   2.722   0.010  0.00  0.00     0.302 C 
ATOM     19  O   UNL d   1      -1.503   3.050  -0.533  0.00  0.00    -0.259 OA
BRANCH  18  20
ATOM     20  O   UNL d   1       0.318   3.564   0.744  0.00  0.00    -0.317 OA
BRANCH  20  21
ATOM     21  C   UNL d   1      -0.099   4.938   0.764  0.00  0.00     0.174 C 
ATOM     22  C   UNL d   1       0.262   5.647  -0.530  0.00  0.00     0.034 C 
ENDBRANCH  20  21
ENDBRANCH  18  20
ENDBRANCH   2  18
TORSDOF 7
