REMARK  4 active torsions:
REMARK  status: ('A' for Active; 'I' for Inactive)
REMARK    1  A    between atoms: O_15  and  C_1 
REMARK    2  A    between atoms: C_8  and  C_6 
REMARK    3  A    between atoms: N_21  and  C_7 
REMARK    4  A    between atoms: C_23  and  O_15 
ROOT
ATOM      1  C   UNL d   1      -1.184   1.275  -0.227  0.00  0.00     0.166 A 
ATOM      2  C   UNL d   1      -1.410  -0.099  -0.331  0.00  0.00     0.108 A 
ATOM      3  N   UNL d   1       0.041   1.818  -0.071  0.00  0.00    -0.325 N 
ATOM      4  HN  UNL d   1       0.162   2.829  -0.015  1.00  0.00     0.169 HD
ATOM      5  C   UNL d   1       0.967  -0.393  -0.021  0.00  0.00     0.095 A 
ATOM      6  C   UNL d   1      -0.317  -0.993  -0.188  0.00  0.00     0.023 A 
ATOM      7  C   UNL d   1       1.095   0.996   0.009  0.00  0.00     0.101 A 
ATOM      8  C   UNL d   1      -2.750  -0.540  -0.587  0.00  0.00     0.104 C 
ATOM      9  C   UNL d   1       2.167  -1.165   0.160  0.00  0.00     0.103 C 
ATOM     10  N   UNL d   1      -3.836  -0.912  -0.768  0.00  0.00    -0.191 NA
ATOM     11  N   UNL d   1       3.157  -1.756   0.316  0.00  0.00    -0.191 NA
ENDROOT
BRANCH   1  12
ATOM     12  O   UNL d   1      -2.253   2.144  -0.334  0.00  0.00    -0.330 OA
BRANCH  12  13
ATOM     13  C   UNL d   1      -2.033   3.437   0.262  0.00  0.00     0.122 C 
ATOM     14  C   UNL d   1      -1.379   4.402  -0.727  0.00  0.00     0.040 C 
ATOM     15  C   UNL d   1      -3.398   3.988   0.675  0.00  0.00     0.040 C 
ENDBRANCH  12  13
ENDBRANCH   1  12
BRANCH   6  16
ATOM     16  C   UNL d   1      -0.496  -2.488  -0.169  0.00  0.00    -0.020 A 
ATOM     17  C   UNL d   1       0.376  -3.351  -0.869  0.00  0.00     0.052 A 
ATOM     18  C   UNL d   1       0.225  -4.721  -0.742  0.00  0.00     0.105 A 
ATOM     19  O   UNL d   1       1.041  -5.663  -1.287  0.00  0.00    -0.323 OA
ATOM     20  C   UNL d   1      -0.795  -5.275  -0.014  0.00  0.00     0.105 A 
ATOM     21  C   UNL d   1       0.443  -6.872  -0.771  0.00  0.00     0.352 A 
ATOM     22  O   UNL d   1      -0.768  -6.633  -0.025  0.00  0.00    -0.323 OA
ATOM     23  C   UNL d   1      -1.707  -4.488   0.644  0.00  0.00     0.040 A 
ATOM     24  C   UNL d   1      -1.533  -3.097   0.590  0.00  0.00     0.015 A 
ENDBRANCH   6  16
BRANCH   7  25
ATOM     25  N   UNL d   1       2.326   1.649   0.014  0.00  0.00    -0.287 NA
ATOM     26  H   UNL d   1       2.993   1.318   0.700  0.00  0.00     0.125 HD
ATOM     27  H   UNL d   1       2.163   2.654   0.076  0.00  0.00     0.125 HD
ENDBRANCH   7  25
TORSDOF 4
