REMARK  6 active torsions:
REMARK  status: ('A' for Active; 'I' for Inactive)
REMARK    1  A    between atoms: O_6  and  C_1 
REMARK    2  A    between atoms: C_10  and  N_2 
REMARK    3  A    between atoms: S_11  and  C_3 
REMARK    4  A    between atoms: C_9  and  O_6 
REMARK       I    between atoms: N_13  and  C_9 
REMARK    5  A    between atoms: C_16  and  S_11 
REMARK    6  A    between atoms: C_19  and  C_16 
ROOT
ATOM      1  C   UNL d   1       0.146  -1.172  -0.251  0.00  0.00     0.256 A 
ATOM      2  N   UNL d   1       1.341  -0.459  -0.283  0.00  0.00    -0.255 N 
ATOM      3  C   UNL d   1       0.932   0.865  -0.278  0.00  0.00     0.169 A 
ATOM      4  N   UNL d   1      -0.874  -0.345  -0.230  0.00  0.00    -0.262 N 
ATOM      5  HN  UNL d   1      -1.859  -0.608  -0.213  1.00  0.00     0.190 HD
ATOM      6  N   UNL d   1      -0.380   0.933  -0.234  0.00  0.00    -0.276 N 
ATOM      7  HN  UNL d   1      -0.934   1.789  -0.209  1.00  0.00     0.189 HD
ENDROOT
BRANCH   3   8
ATOM      8  S   UNL d   1       1.982   2.247  -0.169  0.00  0.00    -0.087 SA
BRANCH   8   9
ATOM      9  C   UNL d   1       0.770   3.598  -0.146  0.00  0.00     0.121 C 
BRANCH   9  10
ATOM     10  C   UNL d   1       1.300   5.013  -0.279  0.00  0.00    -0.049 A 
ATOM     11  C   UNL d   1       2.626   5.353  -0.586  0.00  0.00     0.008 A 
ATOM     12  C   UNL d   1       3.008   6.692  -0.731  0.00  0.00     0.001 A 
ATOM     13  C   UNL d   1       2.072   7.712  -0.580  0.00  0.00     0.000 A 
ATOM     14  C   UNL d   1       0.752   7.397  -0.279  0.00  0.00     0.001 A 
ATOM     15  C   UNL d   1       0.371   6.061  -0.130  0.00  0.00     0.008 A 
ENDBRANCH   9  10
ENDBRANCH   8   9
ENDBRANCH   3   8
BRANCH   2  16
ATOM     16  C   UNL d   1       2.647  -1.032  -0.335  0.00  0.00     0.046 A 
ATOM     17  C   UNL d   1       2.903  -2.241   0.332  0.00  0.00     0.054 A 
ATOM     18  C   UNL d   1       4.167  -2.829   0.257  0.00  0.00     0.036 A 
ATOM     19 CL   UNL d   1       4.460  -4.316   1.073  0.00  0.00    -0.084 Cl
ATOM     20  C   UNL d   1       5.185  -2.226  -0.472  0.00  0.00     0.024 A 
ATOM     21  C   UNL d   1       4.938  -1.026  -1.139  0.00  0.00     0.004 A 
ATOM     22  C   UNL d   1       3.674  -0.431  -1.075  0.00  0.00     0.030 A 
ENDBRANCH   2  16
BRANCH   1  23
ATOM     23  O   UNL d   1       0.111  -2.480  -0.392  0.00  0.00    -0.226 OA
BRANCH  23  24
ATOM     24  C   UNL d   1      -1.004  -3.213  -0.219  0.00  0.00     0.369 C 
ATOM     25  N   UNL d   1      -0.769  -4.562  -0.475  0.00  0.00    -0.336 N 
ATOM     26  C   UNL d   1      -1.837  -5.514  -0.235  0.00  0.00     0.154 C 
ATOM     27  C   UNL d   1       0.515  -5.083  -0.917  0.00  0.00     0.154 C 
ATOM     28  O   UNL d   1      -2.093  -2.793   0.154  0.00  0.00    -0.238 OA
ENDBRANCH  23  24
ENDBRANCH   1  23
TORSDOF 6
