REMARK  2 active torsions:
REMARK  status: ('A' for Active; 'I' for Inactive)
REMARK    1  A    between atoms: C_7  and  N_1 
REMARK    2  A    between atoms: C_6  and  C_2 
ROOT
ATOM      1  N   UNL d   1      -0.832  -0.937  -0.309  0.00  0.00    -0.299 N 
ATOM      2  C   UNL d   1       0.575  -1.215  -0.035  0.00  0.00     0.190 C 
ATOM      3  S   UNL d   1       1.406   0.375   0.250  0.00  0.00    -0.124 SA
ATOM      4  C   UNL d   1      -1.226   0.392  -0.107  0.00  0.00     0.239 C 
ATOM      5  C   UNL d   1      -0.055   1.349  -0.156  0.00  0.00     0.138 C 
ATOM      6  O   UNL d   1      -2.378   0.806   0.007  0.00  0.00    -0.272 OA
ATOM      7  C   UNL d   1       0.039   1.918  -1.566  0.00  0.00     0.031 C 
ENDROOT
BRANCH   1   8
ATOM      8  C   UNL d   1      -1.754  -1.964  -0.686  0.00  0.00     0.038 A 
ATOM      9  C   UNL d   1      -2.929  -1.638  -1.385  0.00  0.00     0.031 A 
ATOM     10  C   UNL d   1      -3.768  -2.626  -1.909  0.00  0.00     0.026 A 
ATOM     11  C   UNL d   1      -3.447  -3.965  -1.732  0.00  0.00     0.034 A 
ATOM     12  C   UNL d   1      -2.308  -4.320  -1.016  0.00  0.00     0.026 A 
ATOM     13 CL   UNL d   1      -4.444  -5.183  -2.423  0.00  0.00    -0.084 Cl
ATOM     14  C   UNL d   1      -1.471  -3.326  -0.491  0.00  0.00     0.031 A 
ENDBRANCH   1   8
BRANCH   2  15
ATOM     15  C   UNL d   1       1.326  -2.003  -1.085  0.00  0.00    -0.010 A 
ATOM     16  C   UNL d   1       2.382  -2.829  -0.698  0.00  0.00     0.097 A 
ATOM     17  N   UNL d   1       3.087  -3.617  -1.541  0.00  0.00    -0.375 N 
ATOM     18  C   UNL d   1       2.741  -3.574  -2.844  0.00  0.00     0.087 A 
ATOM     19  HN  UNL d   1       3.843  -4.215  -1.208  1.00  0.00     0.164 HD
ATOM     20  C   UNL d   1       1.732  -2.769  -3.343  0.00  0.00     0.018 A 
ATOM     21  C   UNL d   1       1.025  -1.965  -2.452  0.00  0.00     0.013 A 
ENDBRANCH   2  15
TORSDOF 2
