REMARK  11 active torsions:
REMARK  status: ('A' for Active; 'I' for Inactive)
REMARK    1  A    between atoms: N_3  and  C_1 
REMARK    2  A    between atoms: C_11  and  C_2 
REMARK    3  A    between atoms: C_5  and  N_3 
REMARK    4  A    between atoms: N_8  and  C_5 
REMARK       I    between atoms: C_10  and  N_8 
REMARK    5  A    between atoms: C_13  and  C_10 
REMARK    6  A    between atoms: O_18  and  C_11 
REMARK    7  A    between atoms: C_23  and  O_18 
REMARK    8  A    between atoms: C_24  and  C_21 
REMARK    9  A    between atoms: C_25  and  C_24 
REMARK   10  A    between atoms: C_27  and  C_25 
REMARK   11  A    between atoms: C_26  and  C_27 
ROOT
ATOM      1  C   UNL d   1      -1.965  -3.557  -0.172  0.00  0.00     0.180 C 
ATOM      2  S   UNL d   1      -1.196  -3.514  -1.642  0.00  0.00    -0.040 SA
ENDROOT
BRANCH   1   3
ATOM      3  N   UNL d   1      -2.028  -4.760   0.584  0.00  0.00    -0.317 N 
ATOM      4  H   UNL d   1      -1.141  -5.083   0.983  0.00  0.00     0.170 HD
BRANCH   3   5
ATOM      5  C   UNL d   1      -3.090  -5.649   0.727  0.00  0.00     0.141 A 
ATOM      6  C   UNL d   1      -3.028  -6.692   1.644  0.00  0.00     0.101 A 
ATOM      7  C   UNL d   1      -4.218  -7.415   1.450  0.00  0.00     0.129 A 
ATOM      8  N   UNL d   1      -5.000  -6.862   0.525  0.00  0.00    -0.307 N 
ATOM      9  N   UNL d   1      -4.303  -5.790   0.090  0.00  0.00    -0.281 N 
ATOM     10  HN  UNL d   1      -5.919  -7.178   0.215  1.00  0.00     0.186 HD
ATOM     11  C   UNL d   1      -4.868  -5.071  -1.027  0.00  0.00     0.179 C 
BRANCH   6  12
ATOM     12  C   UNL d   1      -1.954  -6.938   2.581  0.00  0.00     0.298 C 
ATOM     13  O   UNL d   1      -0.883  -6.348   2.499  0.00  0.00    -0.259 OA
BRANCH  12  14
ATOM     14  O   UNL d   1      -2.298  -7.833   3.547  0.00  0.00    -0.318 OA
BRANCH  14  15
ATOM     15  C   UNL d   1      -1.322  -8.097   4.571  0.00  0.00     0.174 C 
ATOM     16  C   UNL d   1      -1.436  -7.084   5.697  0.00  0.00     0.034 C 
ENDBRANCH  14  15
ENDBRANCH  12  14
ENDBRANCH   6  12
ENDBRANCH   3   5
ENDBRANCH   1   3
BRANCH   1  17
ATOM     17  N   UNL d   1      -2.377  -2.508   0.635  0.00  0.00    -0.299 N 
ATOM     18  C   UNL d   1      -2.158  -1.128   0.549  0.00  0.00     0.257 C 
ATOM     19  O   UNL d   1      -3.105  -0.359   0.764  0.00  0.00    -0.267 OA
ATOM     20  H   UNL d   1      -3.215  -2.707   1.169  0.00  0.00     0.171 HD
BRANCH  18  21
ATOM     21  C   UNL d   1      -0.789  -0.611   0.244  0.00  0.00     0.032 C 
ATOM     22  C   UNL d   1      -0.635   0.674  -0.287  0.00  0.00     0.017 C 
ATOM     23  C   UNL d   1       0.636   1.138  -0.679  0.00  0.00     0.008 C 
ATOM     24  C   UNL d   1       1.774   0.327  -0.546  0.00  0.00    -0.058 C 
ATOM     25  C   UNL d   1       1.622  -0.911   0.095  0.00  0.00     0.008 C 
ATOM     26  C   UNL d   1       0.361  -1.360   0.514  0.00  0.00     0.017 C 
BRANCH  24  27
ATOM     27  C   UNL d   1       3.149   0.782  -1.021  0.00  0.00     0.038 C 
BRANCH  27  28
ATOM     28  C   UNL d   1       3.737  -0.071  -2.165  0.00  0.00     0.005 C 
BRANCH  28  29
ATOM     29  C   UNL d   1       5.179   0.326  -2.546  0.00  0.00    -0.000 C 
BRANCH  29  30
ATOM     30  C   UNL d   1       5.731  -0.555  -3.679  0.00  0.00    -0.005 C 
ATOM     31  C   UNL d   1       7.167  -0.211  -4.061  0.00  0.00     0.005 C 
ENDBRANCH  29  30
ENDBRANCH  28  29
ENDBRANCH  27  28
ENDBRANCH  24  27
ENDBRANCH  18  21
ENDBRANCH   1  17
TORSDOF 11
