REMARK  4 active torsions:
REMARK  status: ('A' for Active; 'I' for Inactive)
REMARK       I    between atoms: N_6  and  C_1 
REMARK    1  A    between atoms: C_8  and  C_1 
REMARK    2  A    between atoms: C_5  and  C_2 
REMARK    3  A    between atoms: N_3  and  N_6 
REMARK    4  A    between atoms: O_10  and  C_5 
ROOT
ATOM      1  C   UNL d   1       1.019  -0.001  -0.081  0.00  0.00     0.270 C 
ATOM      2  N   UNL d   1       0.417  -1.085  -0.707  0.00  0.00    -0.266 N 
ATOM      3  O   UNL d   1       0.397   0.942   0.405  0.00  0.00    -0.266 OA
ATOM      4  H   UNL d   1       0.964  -1.784  -1.198  0.00  0.00     0.190 HD
ENDROOT
BRANCH   2   5
ATOM      5  N   UNL d   1      -0.945  -1.113  -0.767  0.00  0.00    -0.303 N 
ATOM      6  C   UNL d   1      -1.484  -2.093  -1.409  0.00  0.00     0.188 C 
ATOM      7  HN  UNL d   1      -1.512  -0.390  -0.324  1.00  0.00     0.186 HD
BRANCH   6   8
ATOM      8  C   UNL d   1      -2.994  -2.127  -1.484  0.00  0.00     0.183 C 
ATOM      9  O   UNL d   1      -3.588  -3.017  -2.058  0.00  0.00    -0.646 OA
BRANCH   8  10
ATOM     10  O   UNL d   1      -3.539  -1.075  -0.850  0.00  0.00    -0.772 OA
ATOM     11  H   UNL d   1      -2.818  -0.512  -0.475  0.00  0.00     0.167 HD
ENDBRANCH   8  10
ENDBRANCH   6   8
ENDBRANCH   2   5
BRANCH   1  12
ATOM     12  C   UNL d   1       2.507   0.009  -0.039  0.00  0.00     0.033 A 
ATOM     13  C   UNL d   1       3.149   1.254   0.029  0.00  0.00     0.017 A 
ATOM     14  C   UNL d   1       4.539   1.328   0.108  0.00  0.00     0.001 A 
ATOM     15  C   UNL d   1       5.297   0.159   0.127  0.00  0.00     0.000 A 
ATOM     16  C   UNL d   1       4.665  -1.084   0.068  0.00  0.00     0.001 A 
ATOM     17  C   UNL d   1       3.271  -1.164  -0.013  0.00  0.00     0.017 A 
ENDBRANCH   1  12
TORSDOF 4
