REMARK  3 active torsions:
REMARK  status: ('A' for Active; 'I' for Inactive)
REMARK    1  A    between atoms: C_8  and  C_2 
REMARK    2  A    between atoms: S_11  and  C_5 
REMARK    3  A    between atoms: C_9  and  C_10 
ROOT
ATOM      1  N   UNL d   1       0.659  -0.039  -0.507  0.00  0.00    -0.315 N 
ATOM      2  C   UNL d   1      -0.083   1.043  -0.073  0.00  0.00     0.134 A 
ATOM      3  N   UNL d   1      -1.186   0.572   0.491  0.00  0.00    -0.283 N 
ATOM      4  HN  UNL d   1      -1.903   1.133   0.950  1.00  0.00     0.188 HD
ATOM      5  C   UNL d   1      -0.106  -1.146  -0.259  0.00  0.00     0.162 A 
ATOM      6  N   UNL d   1      -1.206  -0.795   0.358  0.00  0.00    -0.278 N 
ATOM      7  HN  UNL d   1      -1.944  -1.422   0.680  1.00  0.00     0.189 HD
ATOM      8  C   UNL d   1       1.993  -0.045  -1.052  0.00  0.00     0.160 C 
ENDROOT
BRANCH   2   9
ATOM      9  C   UNL d   1       0.271   2.465  -0.144  0.00  0.00     0.009 A 
ATOM     10  C   UNL d   1       0.942   3.026  -1.232  0.00  0.00     0.016 A 
ATOM     11  C   UNL d   1       1.304   4.379  -1.237  0.00  0.00     0.009 A 
ATOM     12  C   UNL d   1       0.976   5.234  -0.169  0.00  0.00    -0.051 A 
ATOM     13  C   UNL d   1       0.247   4.675   0.892  0.00  0.00     0.009 A 
ATOM     14  C   UNL d   1      -0.099   3.317   0.904  0.00  0.00     0.016 A 
BRANCH  12  15
ATOM     15  C   UNL d   1       1.422   6.707  -0.189  0.00  0.00    -0.024 C 
ATOM     16  C   UNL d   1       0.935   7.519   1.032  0.00  0.00     0.019 C 
ATOM     17  C   UNL d   1       2.965   6.775  -0.199  0.00  0.00     0.019 C 
ATOM     18  C   UNL d   1       0.881   7.413  -1.451  0.00  0.00     0.019 C 
ENDBRANCH  12  15
ENDBRANCH   2   9
BRANCH   5  19
ATOM     19  S   UNL d   1       0.355  -2.750  -0.715  0.00  0.00    -0.097 SA
ATOM     20  C   UNL d   1      -1.064  -3.694  -0.118  0.00  0.00     0.099 C 
ENDBRANCH   5  19
TORSDOF 3
