REMARK  7 active torsions:
REMARK  status: ('A' for Active; 'I' for Inactive)
REMARK    1  A    between atoms: C_15  and  C_1 
REMARK    2  A    between atoms: C_6  and  C_2 
REMARK    3  A    between atoms: C_4  and  C_22 
REMARK       I    between atoms: N_5  and  C_4 
REMARK    4  A    between atoms: C_13  and  N_5 
REMARK    5  A    between atoms: O_19  and  C_7 
REMARK    6  A    between atoms: S_12  and  C_15 
REMARK    7  A    between atoms: C_22  and  S_12 
ROOT
ATOM      1  S   UNL d   1       3.277  -2.077   1.518  0.00  0.00    -0.155 SA
ENDROOT
BRANCH   1   2
ATOM      2  C   UNL d   1       2.873  -0.553   0.591  0.00  0.00     0.115 C 
BRANCH   2   3
ATOM      3  C   UNL d   1       1.413  -0.191   0.424  0.00  0.00    -0.015 A 
ATOM      4  C   UNL d   1       0.410  -1.194   0.467  0.00  0.00     0.026 A 
ATOM      5  C   UNL d   1      -0.956  -0.891   0.369  0.00  0.00     0.010 A 
ATOM      6  C   UNL d   1      -1.332   0.435   0.154  0.00  0.00     0.018 A 
ATOM      7  C   UNL d   1      -0.364   1.434   0.064  0.00  0.00     0.038 A 
ATOM      8  C   UNL d   1       1.000   1.138   0.192  0.00  0.00     0.075 A 
BRANCH   5   9
ATOM      9  C   UNL d   1      -2.050  -1.907   0.507  0.00  0.00     0.155 C 
ATOM     10  O   UNL d   1      -3.218  -1.556   0.333  0.00  0.00    -0.293 OA
ATOM     11  C   UNL d   1      -1.754  -3.338   0.879  0.00  0.00     0.096 C 
ENDBRANCH   5   9
BRANCH   8  12
ATOM     12  O   UNL d   1       1.779   2.264   0.189  0.00  0.00    -0.355 OA
ATOM     13  C   UNL d   1       3.009   2.251  -0.520  0.00  0.00     0.210 C 
ENDBRANCH   8  12
ENDBRANCH   2   3
ENDBRANCH   1   2
BRANCH   1  14
ATOM     14  C   UNL d   1       5.089  -1.935   1.406  0.00  0.00     0.177 C 
BRANCH  14  15
ATOM     15  C   UNL d   1       5.869  -2.937   2.241  0.00  0.00     0.231 C 
ATOM     16  N   UNL d   1       5.251  -4.151   2.466  0.00  0.00    -0.327 N 
ATOM     17  H   UNL d   1       4.294  -4.223   2.138  0.00  0.00     0.169 HD
ATOM     18  O   UNL d   1       7.015  -2.641   2.590  0.00  0.00    -0.272 OA
BRANCH  16  19
ATOM     19  C   UNL d   1       5.780  -5.266   3.158  0.00  0.00     0.034 A 
ATOM     20  C   UNL d   1       7.060  -5.296   3.723  0.00  0.00     0.031 A 
ATOM     21  C   UNL d   1       7.516  -6.429   4.407  0.00  0.00     0.026 A 
ATOM     22  C   UNL d   1       6.694  -7.544   4.527  0.00  0.00     0.034 A 
ATOM     23  C   UNL d   1       5.420  -7.536   3.963  0.00  0.00     0.026 A 
ATOM     24 CL   UNL d   1       7.253  -8.933   5.372  0.00  0.00    -0.084 Cl
ATOM     25  C   UNL d   1       4.967  -6.400   3.282  0.00  0.00     0.031 A 
ENDBRANCH  16  19
ENDBRANCH  14  15
ENDBRANCH   1  14
TORSDOF 7
