REMARK  1 active torsions:
REMARK  status: ('A' for Active; 'I' for Inactive)
REMARK    1  A    between atoms: O_9  and  C_8 
ROOT
ATOM      1  C   UNL d   1      -0.057   1.811   0.000  0.00  0.00     0.009 A 
ATOM      2  C   UNL d   1      -0.783  -0.380   0.002  0.00  0.00     0.054 A 
ATOM      3  C   UNL d   1      -1.262   0.944   0.001  0.00  0.00     0.004 A 
ATOM      4  C   UNL d   1       1.149   0.935   0.000  0.00  0.00    -0.011 A 
ATOM      5  C   UNL d   1       0.670  -0.394   0.002  0.00  0.00     0.003 A 
ATOM      6  N   UNL d   1      -1.543  -1.491   0.004  0.00  0.00    -0.364 N 
ATOM      7  HN  UNL d   1      -1.147  -2.431   0.005  1.00  0.00     0.165 HD
ATOM      8  C   UNL d   1       0.049   3.149   0.000  0.00  0.00     0.144 C 
ATOM      9  C   UNL d   1       2.509   1.204  -0.000  0.00  0.00     0.013 A 
ATOM     10  C   UNL d   1      -2.630   1.143  -0.001  0.00  0.00     0.016 A 
ATOM     11  C   UNL d   1       1.550  -1.466   0.002  0.00  0.00     0.014 A 
ATOM     12  C   UNL d   1      -2.875  -1.259   0.003  0.00  0.00     0.088 A 
ATOM     13  C   UNL d   1      -3.453   0.013   0.001  0.00  0.00     0.018 A 
ATOM     14  C   UNL d   1       2.922  -1.199   0.001  0.00  0.00     0.001 A 
ATOM     15  C   UNL d   1       3.397   0.123  -0.000  0.00  0.00     0.001 A 
ENDROOT
BRANCH   8  16
ATOM     16  O   UNL d   1      -0.953   4.077   0.001  0.00  0.00    -0.372 OA
ATOM     17  H   UNL d   1      -1.807   3.624   0.003  0.00  0.00     0.216 HD
ENDBRANCH   8  16
TORSDOF 1
