REMARK  4 active torsions:
REMARK  status: ('A' for Active; 'I' for Inactive)
REMARK    1  A    between atoms: C_7  and  C_3 
REMARK    2  A    between atoms: C_12  and  C_5 
REMARK    3  A    between atoms: C_8  and  S_11 
REMARK    4  A    between atoms: S_11  and  C_12 
ROOT
ATOM      1  N   UNL d   1       1.406  -0.640  -0.003  0.00  0.00    -0.352 N 
ATOM      2  HN  UNL d   1       2.272  -1.178   0.025  1.00  0.00     0.166 HD
ATOM      3  C   UNL d   1       0.196  -1.170  -0.007  0.00  0.00     0.084 A 
ATOM      4  S   UNL d   1      -1.085  -0.017  -0.040  0.00  0.00    -0.081 SA
ATOM      5  C   UNL d   1       1.341   0.748  -0.043  0.00  0.00     0.026 A 
ATOM      6  C   UNL d   1       0.055   1.255  -0.057  0.00  0.00     0.077 A 
ENDROOT
BRANCH   5   7
ATOM      7  C   UNL d   1       2.604   1.555  -0.023  0.00  0.00     0.138 C 
BRANCH   7   8
ATOM      8  S   UNL d   1       3.622   1.251  -1.502  0.00  0.00    -0.106 SA
BRANCH   8   9
ATOM      9  C   UNL d   1       4.982   2.356  -1.167  0.00  0.00     0.069 A 
ATOM     10  N   UNL d   1       4.921   3.136  -0.065  0.00  0.00    -0.361 N 
ATOM     11  C   UNL d   1       5.955   3.976   0.160  0.00  0.00     0.089 A 
ATOM     12  HN  UNL d   1       4.126   3.091   0.573  1.00  0.00     0.165 HD
ATOM     13  C   UNL d   1       7.056   4.084  -0.671  0.00  0.00     0.017 A 
ATOM     14  C   UNL d   1       7.103   3.277  -1.801  0.00  0.00     0.004 A 
ATOM     15  C   UNL d   1       6.052   2.397  -2.055  0.00  0.00     0.037 A 
ENDBRANCH   8   9
ENDBRANCH   7   8
ENDBRANCH   5   7
BRANCH   3  16
ATOM     16  C   UNL d   1      -0.072  -2.618  -0.042  0.00  0.00    -0.002 A 
ATOM     17  C   UNL d   1      -1.236  -3.190   0.501  0.00  0.00     0.016 A 
ATOM     18  C   UNL d   1      -1.456  -4.571   0.429  0.00  0.00     0.024 A 
ATOM     19  C   UNL d   1      -0.514  -5.394  -0.183  0.00  0.00     0.034 A 
ATOM     20  C   UNL d   1       0.652  -4.851  -0.714  0.00  0.00     0.024 A 
ATOM     21 CL   UNL d   1      -0.793  -7.088  -0.280  0.00  0.00    -0.084 Cl
ATOM     22  C   UNL d   1       0.872  -3.472  -0.637  0.00  0.00     0.016 A 
ENDBRANCH   3  16
TORSDOF 4
