REMARK  10 active torsions:
REMARK  status: ('A' for Active; 'I' for Inactive)
REMARK    1  A    between atoms: N_9  and  S_1 
REMARK    2  A    between atoms: C_15  and  S_1 
REMARK    3  A    between atoms: C_12  and  C_2 
REMARK    4  A    between atoms: N_5  and  C_16 
REMARK    5  A    between atoms: N_18  and  N_9 
REMARK    6  A    between atoms: C_10  and  C_13 
REMARK    7  A    between atoms: C_11  and  C_14 
REMARK    8  A    between atoms: C_16  and  C_17 
REMARK       I    between atoms: C_17  and  N_18 
REMARK    9  A    between atoms: O_36  and  C_23 
REMARK   10  A    between atoms: O_37  and  C_26 
ROOT
ATOM      1  C   UNL d   1      -0.934  -3.345  -0.596  0.00  0.00     0.144 A 
ATOM      2  N   UNL d   1      -0.373  -2.398  -1.368  0.00  0.00    -0.268 N 
ATOM      3  HN  UNL d   1       0.146  -1.562  -1.099  1.00  0.00     0.190 HD
ATOM      4  N   UNL d   1      -0.684  -2.859  -2.599  0.00  0.00    -0.207 N 
ATOM      5  N   UNL d   1      -1.539  -4.330  -1.335  0.00  0.00    -0.266 N 
ATOM      6  HN  UNL d   1      -2.022  -5.151  -0.971  1.00  0.00     0.186 HD
ATOM      7  N   UNL d   1      -1.377  -4.010  -2.612  0.00  0.00    -0.002 NA
ENDROOT
BRANCH   4   8
ATOM      8  C   UNL d   1      -0.294  -2.211  -3.835  0.00  0.00     0.271 C 
BRANCH   8   9
ATOM      9  C   UNL d   1       0.583  -0.973  -3.741  0.00  0.00     0.257 C 
ATOM     10  N   UNL d   1       0.944  -0.524  -2.494  0.00  0.00    -0.259 N 
ATOM     11  H   UNL d   1       0.663  -1.019  -1.639  0.00  0.00     0.190 HD
ATOM     12  O   UNL d   1       0.987  -0.416  -4.766  0.00  0.00    -0.270 OA
BRANCH  10  13
ATOM     13  N   UNL d   1       1.873   0.570  -2.367  0.00  0.00    -0.220 N 
ATOM     14  H   UNL d   1       2.204   1.060  -3.204  0.00  0.00     0.200 HD
BRANCH  13  15
ATOM     15  S   UNL d   1       2.790   0.714  -0.954  0.00  0.00     0.276 S 
ATOM     16  O   UNL d   1       1.884   0.556   0.164  0.00  0.00    -0.199 OA
ATOM     17  O   UNL d   1       3.671   1.849  -1.097  0.00  0.00    -0.199 OA
BRANCH  15  18
ATOM     18  C   UNL d   1       3.784  -0.760  -1.047  0.00  0.00     0.084 A 
ATOM     19  C   UNL d   1       3.686  -1.737  -0.049  0.00  0.00     0.065 A 
ATOM     20  C   UNL d   1       4.367  -2.954  -0.191  0.00  0.00     0.102 A 
ATOM     21  C   UNL d   1       5.162  -3.168  -1.333  0.00  0.00     0.101 A 
ATOM     22  C   UNL d   1       5.259  -2.170  -2.313  0.00  0.00     0.041 A 
ATOM     23  C   UNL d   1       4.579  -0.963  -2.175  0.00  0.00     0.028 A 
BRANCH  20  24
ATOM     24  O   UNL d   1       4.201  -3.995   0.682  0.00  0.00    -0.353 OA
ATOM     25  C   UNL d   1       3.885  -3.675   2.030  0.00  0.00     0.210 C 
ENDBRANCH  20  24
BRANCH  21  26
ATOM     26  O   UNL d   1       5.849  -4.309  -1.660  0.00  0.00    -0.353 OA
ATOM     27  C   UNL d   1       6.367  -5.083  -0.585  0.00  0.00     0.210 C 
ENDBRANCH  21  26
ENDBRANCH  15  18
ENDBRANCH  13  15
ENDBRANCH  10  13
ENDBRANCH   8   9
ENDBRANCH   4   8
BRANCH   1  28
ATOM     28  C   UNL d   1      -0.957  -3.293   0.860  0.00  0.00     0.012 A 
ATOM     29  C   UNL d   1      -0.434  -2.180   1.539  0.00  0.00     0.031 A 
ATOM     30  C   UNL d   1      -0.549  -2.058   2.931  0.00  0.00     0.049 A 
ATOM     31  C   UNL d   1      -1.162  -3.095   3.652  0.00  0.00     0.032 A 
ATOM     32  C   UNL d   1      -1.687  -4.223   2.997  0.00  0.00     0.049 A 
ATOM     33  C   UNL d   1      -1.569  -4.314   1.600  0.00  0.00     0.031 A 
BRANCH  30  34
ATOM     34  C   UNL d   1      -0.093  -0.804   3.643  0.00  0.00     0.417 C 
ATOM     35  F   UNL d   1       0.402   0.149   2.811  0.00  0.00    -0.166 F 
ATOM     36  F   UNL d   1      -1.109  -0.212   4.328  0.00  0.00    -0.166 F 
ATOM     37  F   UNL d   1       0.884  -1.053   4.556  0.00  0.00    -0.166 F 
ENDBRANCH  30  34
BRANCH  32  38
ATOM     38  C   UNL d   1      -2.421  -5.281   3.787  0.00  0.00     0.417 C 
ATOM     39  F   UNL d   1      -2.945  -6.272   3.015  0.00  0.00    -0.166 F 
ATOM     40  F   UNL d   1      -1.624  -5.896   4.702  0.00  0.00    -0.166 F 
ATOM     41  F   UNL d   1      -3.467  -4.761   4.487  0.00  0.00    -0.166 F 
ENDBRANCH  32  38
ENDBRANCH   1  28
TORSDOF 10
