REMARK  3 active torsions:
REMARK  status: ('A' for Active; 'I' for Inactive)
REMARK    1  A    between atoms: C_6  and  C_1 
REMARK    2  A    between atoms: C_3  and  C_2 
REMARK       I    between atoms: N_7  and  C_3 
REMARK       I    between atoms: C_8  and  N_7 
REMARK       I    between atoms: N_11  and  C_8 
REMARK    3  A    between atoms: C_16  and  N_11 
ROOT
ATOM      1  C   UNL d   1      -1.320  -0.625   0.380  0.00  0.00     0.086 A 
ATOM      2  C   UNL d   1      -0.097  -1.373   0.324  0.00  0.00     0.093 A 
ATOM      3  N   UNL d   1      -1.067   0.672   0.125  0.00  0.00    -0.259 N 
ATOM      4  HN  UNL d   1      -1.754   1.425   0.087  1.00  0.00     0.195 HD
ATOM      5  O   UNL d   1       0.281   0.794  -0.074  0.00  0.00    -0.241 OA
ATOM      6  C   UNL d   1       0.867  -0.412   0.074  0.00  0.00     0.090 A 
ATOM      7  C   UNL d   1       2.340  -0.422  -0.032  0.00  0.00     0.080 C 
ENDROOT
BRANCH   2   8
ATOM      8  C   UNL d   1       0.245  -2.756   0.561  0.00  0.00     0.264 C 
ATOM      9  N   UNL d   1      -0.431  -3.692  -0.194  0.00  0.00    -0.275 N 
ATOM     10  C   UNL d   1      -0.025  -4.993  -0.429  0.00  0.00     0.327 C 
ATOM     11  H   UNL d   1      -1.064  -3.363  -0.911  0.00  0.00     0.173 HD
ATOM     12  N   UNL d   1       0.914  -5.487   0.445  0.00  0.00    -0.309 N 
ATOM     13  O   UNL d   1      -0.502  -5.581  -1.395  0.00  0.00    -0.247 OA
ATOM     14  H   UNL d   1       1.217  -4.835   1.167  0.00  0.00     0.170 HD
ATOM     15  O   UNL d   1       1.125  -3.062   1.365  0.00  0.00    -0.267 OA
BRANCH  12  16
ATOM     16  C   UNL d   1       1.538  -6.752   0.459  0.00  0.00     0.036 A 
ATOM     17  C   UNL d   1       1.291  -7.761  -0.473  0.00  0.00     0.032 A 
ATOM     18  C   UNL d   1       1.952  -8.992  -0.376  0.00  0.00     0.044 A 
ATOM     19  C   UNL d   1       2.860  -9.209   0.652  0.00  0.00     0.116 A 
ATOM     20  C   UNL d   1       3.125  -8.217   1.586  0.00  0.00     0.044 A 
ATOM     21  F   UNL d   1       3.488 -10.389   0.746  0.00  0.00    -0.206 F 
ATOM     22  C   UNL d   1       2.466  -6.989   1.488  0.00  0.00     0.032 A 
ENDBRANCH  12  16
ENDBRANCH   2   8
BRANCH   1  23
ATOM     23  C   UNL d   1      -2.697  -0.978   0.762  0.00  0.00     0.037 A 
ATOM     24  C   UNL d   1      -2.990  -1.611   1.986  0.00  0.00     0.048 A 
ATOM     25 CL   UNL d   1      -1.777  -2.233   3.051  0.00  0.00    -0.083 Cl
ATOM     26  C   UNL d   1      -4.313  -1.722   2.447  0.00  0.00     0.025 A 
ATOM     27  C   UNL d   1      -5.367  -1.187   1.715  0.00  0.00     0.003 A 
ATOM     28  C   UNL d   1      -5.109  -0.586   0.490  0.00  0.00     0.025 A 
ATOM     29  C   UNL d   1      -3.795  -0.501   0.005  0.00  0.00     0.048 A 
ATOM     30 CL   UNL d   1      -3.621   0.197  -1.575  0.00  0.00    -0.083 Cl
ENDBRANCH   1  23
TORSDOF 3
