REMARK  5 active torsions:
REMARK  status: ('A' for Active; 'I' for Inactive)
REMARK    1  A    between atoms: C_2  and  C_4 
REMARK    2  A    between atoms: C_3  and  C_4 
REMARK    3  A    between atoms: C_4  and  O_19 
REMARK    4  A    between atoms: C_15  and  C_9 
REMARK    5  A    between atoms: O_24  and  C_20 
ROOT
ATOM      1  C   UNL d   1       2.837  -0.375   2.635  0.00  0.00    -0.014 A 
ATOM      2  C   UNL d   1       3.446  -1.021   3.756  0.00  0.00     0.002 A 
ATOM      3  C   UNL d   1       4.855  -0.968   3.862  0.00  0.00     0.043 A 
ATOM      4  N   UNL d   1       5.635  -0.329   2.978  0.00  0.00    -0.365 N 
ATOM      5  HN  UNL d   1       6.649  -0.313   3.086  1.00  0.00     0.165 HD
ATOM      6  C   UNL d   1       2.734  -1.715   4.769  0.00  0.00     0.051 A 
ATOM      7  C   UNL d   1       5.480  -1.606   4.924  0.00  0.00     0.033 A 
ATOM      8  C   UNL d   1       3.379  -2.353   5.831  0.00  0.00     0.069 A 
ATOM      9  C   UNL d   1       5.037   0.291   1.946  0.00  0.00     0.089 A 
ATOM     10  C   UNL d   1       4.763  -2.299   5.904  0.00  0.00     0.039 A 
ATOM     11  C   UNL d   1       3.671   0.300   1.737  0.00  0.00     0.027 A 
ENDROOT
BRANCH   1  12
ATOM     12  C   UNL d   1       1.323  -0.422   2.432  0.00  0.00     0.185 C 
BRANCH  12  13
ATOM     13  O   UNL d   1       0.885  -1.787   2.367  0.00  0.00    -0.389 OA
ATOM     14  H   UNL d   1       1.649  -2.313   2.071  0.00  0.00     0.210 HD
ENDBRANCH  12  13
BRANCH  12  15
ATOM     15  C   UNL d   1       0.687   0.391   1.241  0.00  0.00     0.256 C 
ATOM     16  N   UNL d   1       1.154   0.047  -0.147  0.00  0.00     0.096 N 
ATOM     17  C   UNL d   1       0.547   1.031  -1.084  0.00  0.00     0.282 C 
ATOM     18  C   UNL d   1       0.697  -1.300  -0.554  0.00  0.00     0.273 C 
ATOM     19  C   UNL d   1      -0.992   0.866  -1.173  0.00  0.00     0.040 C 
ATOM     20  C   UNL d   1      -1.442  -0.101  -0.050  0.00  0.00    -0.001 C 
ATOM     21  C   UNL d   1      -0.814  -1.474  -0.351  0.00  0.00     0.035 C 
ATOM     22  C   UNL d   1      -0.866   0.354   1.304  0.00  0.00     0.044 C 
BRANCH  19  23
ATOM     23  C   UNL d   1      -1.706   2.195  -1.119  0.00  0.00    -0.030 C 
ATOM     24  C   UNL d   1      -2.526   2.639  -2.079  0.00  0.00     0.007 C 
ENDBRANCH  19  23
ENDBRANCH  12  15
ENDBRANCH   1  12
BRANCH   8  25
ATOM     25  O   UNL d   1       2.548  -2.985   6.713  0.00  0.00    -0.356 OA
ATOM     26  C   UNL d   1       3.161  -3.671   7.797  0.00  0.00     0.210 C 
ENDBRANCH   8  25
TORSDOF 5
