REMARK  7 active torsions:
REMARK  status: ('A' for Active; 'I' for Inactive)
REMARK    1  A    between atoms: C_2  and  S_1 
REMARK    2  A    between atoms: C_3  and  S_1 
REMARK    3  A    between atoms: C_17  and  C_3 
REMARK    4  A    between atoms: C_6  and  C_16 
REMARK    5  A    between atoms: O_14  and  C_6 
REMARK    6  A    between atoms: S_13  and  C_17 
REMARK    7  A    between atoms: C_16  and  S_13 
ROOT
ATOM      1  S   UNL d   1       1.148   0.067  -0.043  0.00  0.00     0.176 S 
ATOM      2  O   UNL d   1       2.580  -0.160  -0.040  0.00  0.00    -0.223 OA
ATOM      3  O   UNL d   1       0.610   1.395   0.193  0.00  0.00    -0.223 OA
ENDROOT
BRANCH   1   4
ATOM      4  C   UNL d   1       0.435  -1.016   1.180  0.00  0.00     0.059 A 
ATOM      5  C   UNL d   1       1.099  -2.199   1.534  0.00  0.00     0.025 A 
ATOM      6  C   UNL d   1       0.562  -3.020   2.530  0.00  0.00     0.025 A 
ATOM      7  C   UNL d   1      -0.621  -2.657   3.172  0.00  0.00     0.034 A 
ATOM      8  C   UNL d   1      -1.278  -1.474   2.828  0.00  0.00     0.025 A 
ATOM      9 CL   UNL d   1      -1.268  -3.663   4.407  0.00  0.00    -0.084 Cl
ATOM     10  C   UNL d   1      -0.747  -0.648   1.833  0.00  0.00     0.025 A 
ENDBRANCH   1   4
BRANCH   1  11
ATOM     11  C   UNL d   1       0.481  -0.533  -1.577  0.00  0.00     0.156 C 
BRANCH  11  12
ATOM     12  C   UNL d   1       0.958   0.295  -2.761  0.00  0.00     0.089 C 
BRANCH  12  13
ATOM     13  S   UNL d   1       0.167  -0.391  -4.268  0.00  0.00    -0.158 SA
BRANCH  13  14
ATOM     14  C   UNL d   1       0.921   0.660  -5.555  0.00  0.00     0.184 C 
BRANCH  14  15
ATOM     15  C   UNL d   1       2.430   0.544  -5.596  0.00  0.00     0.267 C 
ATOM     16  O   UNL d   1       3.083  -0.439  -5.270  0.00  0.00    -0.264 OA
BRANCH  15  17
ATOM     17  O   UNL d   1       2.969   1.702  -6.079  0.00  0.00    -0.326 OA
ATOM     18  C   UNL d   1       4.398   1.688  -6.119  0.00  0.00     0.213 C 
ENDBRANCH  15  17
ENDBRANCH  14  15
ENDBRANCH  13  14
ENDBRANCH  12  13
ENDBRANCH  11  12
ENDBRANCH   1  11
TORSDOF 7
