REMARK  8 active torsions:
REMARK  status: ('A' for Active; 'I' for Inactive)
REMARK    1  A    between atoms: N_2  and  C_1 
REMARK    2  A    between atoms: N_9  and  C_1 
REMARK    3  A    between atoms: C_6  and  N_2 
REMARK    4  A    between atoms: O_14  and  C_3 
REMARK    5  A    between atoms: O_16  and  C_5 
REMARK    6  A    between atoms: C_17  and  N_9 
REMARK    7  A    between atoms: C_12  and  C_20 
REMARK    8  A    between atoms: C_20  and  C_17 
ROOT
ATOM      1  N   UNL d   1       2.386  -0.045   0.103  0.00  0.00    -0.367 N 
ATOM      2  H   UNL d   1       2.853  -0.626  -0.586  0.00  0.00     0.161 HD
ENDROOT
BRANCH   1   3
ATOM      3  C   UNL d   1       1.042  -0.287   0.196  0.00  0.00     0.172 C 
ATOM      4  S   UNL d   1       0.402  -1.395  -0.878  0.00  0.00    -0.041 SA
BRANCH   3   5
ATOM      5  N   UNL d   1       0.380   0.453   1.145  0.00  0.00    -0.333 N 
ATOM      6  H   UNL d   1       0.726   1.399   1.241  0.00  0.00     0.168 HD
BRANCH   5   7
ATOM      7  C   UNL d   1      -0.861   0.195   1.766  0.00  0.00     0.035 A 
ATOM      8  C   UNL d   1      -1.333  -1.099   1.998  0.00  0.00     0.053 A 
ATOM      9  C   UNL d   1      -2.558  -1.292   2.637  0.00  0.00     0.036 A 
ATOM     10 CL   UNL d   1      -3.125  -2.891   2.929  0.00  0.00    -0.084 Cl
ATOM     11  C   UNL d   1      -3.320  -0.204   3.056  0.00  0.00     0.024 A 
ATOM     12  C   UNL d   1      -2.837   1.089   2.858  0.00  0.00     0.004 A 
ATOM     13  C   UNL d   1      -1.605   1.286   2.230  0.00  0.00     0.029 A 
ENDBRANCH   5   7
ENDBRANCH   3   5
ENDBRANCH   1   3
BRANCH   1  14
ATOM     14  C   UNL d   1       3.203   0.654   1.081  0.00  0.00     0.126 C 
BRANCH  14  15
ATOM     15  C   UNL d   1       4.702   0.498   0.816  0.00  0.00     0.058 C 
BRANCH  15  16
ATOM     16  C   UNL d   1       5.486   1.254   1.858  0.00  0.00    -0.054 A 
ATOM     17  C   UNL d   1       5.907   0.616   3.037  0.00  0.00     0.046 A 
ATOM     18  C   UNL d   1       6.521   1.333   4.078  0.00  0.00     0.102 A 
ATOM     19  C   UNL d   1       6.723   2.715   3.919  0.00  0.00     0.101 A 
ATOM     20  C   UNL d   1       6.314   3.342   2.733  0.00  0.00     0.040 A 
ATOM     21  C   UNL d   1       5.707   2.623   1.708  0.00  0.00     0.010 A 
BRANCH  18  22
ATOM     22  O   UNL d   1       6.894   0.756   5.263  0.00  0.00    -0.353 OA
ATOM     23  C   UNL d   1       6.713  -0.646   5.420  0.00  0.00     0.210 C 
ENDBRANCH  18  22
BRANCH  19  24
ATOM     24  O   UNL d   1       7.253   3.607   4.815  0.00  0.00    -0.353 OA
ATOM     25  C   UNL d   1       8.059   3.102   5.867  0.00  0.00     0.210 C 
ENDBRANCH  19  24
ENDBRANCH  15  16
ENDBRANCH  14  15
ENDBRANCH   1  14
TORSDOF 8
