REMARK  2 active torsions:
REMARK  status: ('A' for Active; 'I' for Inactive)
REMARK    1  A    between atoms: C_2  and  C_1 
REMARK    2  A    between atoms: O_12  and  C_1 
ROOT
ATOM      1  C   UNL d   1       0.280   0.119  -1.317  0.00  0.00     0.038 A 
ATOM      2  C   UNL d   1      -1.538   1.156  -2.530  0.00  0.00     0.001 A 
ATOM      3  C   UNL d   1      -0.836   0.976  -1.326  0.00  0.00     0.032 A 
ATOM      4  C   UNL d   1      -1.099   0.481  -3.664  0.00  0.00     0.085 A 
ATOM      5  C   UNL d   1      -2.864   1.617  -4.274  0.00  0.00     0.143 A 
ATOM      6  O   UNL d   1      -1.906   0.765  -4.723  0.00  0.00    -0.322 OA
ATOM      7  C   UNL d   1      -2.681   1.893  -2.938  0.00  0.00     0.039 A 
ATOM      8  C   UNL d   1       0.685  -0.553  -2.482  0.00  0.00     0.021 A 
ATOM      9  C   UNL d   1       0.001  -0.374  -3.691  0.00  0.00     0.039 A 
ENDROOT
BRANCH   1  10
ATOM     10  C   UNL d   1       0.965  -0.099  -0.020  0.00  0.00     0.176 C 
ATOM     11  O   UNL d   1       0.378  -0.060   1.049  0.00  0.00    -0.646 OA
BRANCH  10  12
ATOM     12  O   UNL d   1       2.292  -0.304  -0.130  0.00  0.00    -0.773 OA
ATOM     13  H   UNL d   1       2.665  -0.143  -1.015  0.00  0.00     0.167 HD
ENDBRANCH  10  12
ENDBRANCH   1  10
TORSDOF 2
