REMARK  6 active torsions:
REMARK  status: ('A' for Active; 'I' for Inactive)
REMARK    1  A    between atoms: C_3  and  C_1 
REMARK    2  A    between atoms: N_2  and  C_4 
REMARK    3  A    between atoms: C_9  and  N_7 
REMARK    4  A    between atoms: C_10  and  C_9 
REMARK    5  A    between atoms: C_11  and  C_10 
REMARK    6  A    between atoms: O_27  and  C_10 
ROOT
ATOM      1  N   UNL d   1      -0.779  -5.092   1.323  0.00  0.00    -0.364 N 
ATOM      2  N   UNL d   1      -1.424  -7.843   2.064  0.00  0.00     0.094 N 
ATOM      3  C   UNL d   1       0.217  -5.870   2.067  0.00  0.00     0.154 C 
ATOM      4  C   UNL d   1      -2.159  -5.416   1.707  0.00  0.00     0.154 C 
ATOM      5  C   UNL d   1      -0.044  -7.372   1.780  0.00  0.00     0.292 C 
ATOM      6  C   UNL d   1      -2.403  -6.921   1.442  0.00  0.00     0.292 C 
ENDROOT
BRANCH   1   7
ATOM      7  C   UNL d   1      -0.495  -3.752   1.105  0.00  0.00     0.103 A 
ATOM      8  C   UNL d   1      -1.116  -3.109   0.032  0.00  0.00     0.049 A 
ATOM      9  C   UNL d   1      -0.780  -1.799  -0.287  0.00  0.00     0.021 A 
ATOM     10  C   UNL d   1       0.170  -1.130   0.481  0.00  0.00     0.063 A 
ATOM     11  C   UNL d   1       0.735  -1.831   1.536  0.00  0.00     0.106 A 
ATOM     12  N   UNL d   1       0.433  -3.115   1.849  0.00  0.00    -0.352 N 
ATOM     13  HN  UNL d   1       0.895  -3.587   2.627  1.00  0.00     0.166 HD
BRANCH  10  14
ATOM     14  C   UNL d   1       0.579   0.272   0.167  0.00  0.00     0.418 C 
ATOM     15  F   UNL d   1       1.470   0.799   1.051  0.00  0.00    -0.166 F 
ATOM     16  F   UNL d   1      -0.479   1.131   0.145  0.00  0.00    -0.166 F 
ATOM     17  F   UNL d   1       1.165   0.378  -1.059  0.00  0.00    -0.166 F 
ENDBRANCH  10  14
ENDBRANCH   1   7
BRANCH   2  18
ATOM     18  C   UNL d   1      -1.633  -8.045   3.509  0.00  0.00     0.309 C 
BRANCH  18  19
ATOM     19  C   UNL d   1      -2.980  -8.696   3.941  0.00  0.00     0.179 C 
BRANCH  19  20
ATOM     20  C   UNL d   1      -3.385 -10.014   3.294  0.00  0.00    -0.028 A 
ATOM     21  C   UNL d   1      -2.564 -10.733   2.413  0.00  0.00     0.013 A 
ATOM     22  C   UNL d   1      -3.031 -11.884   1.775  0.00  0.00     0.043 A 
ATOM     23  C   UNL d   1      -4.316 -12.340   2.036  0.00  0.00     0.116 A 
ATOM     24  C   UNL d   1      -5.134 -11.680   2.941  0.00  0.00     0.043 A 
ATOM     25  F   UNL d   1      -4.771 -13.431   1.406  0.00  0.00    -0.206 F 
ATOM     26  C   UNL d   1      -4.673 -10.519   3.565  0.00  0.00     0.013 A 
ENDBRANCH  19  20
BRANCH  19  27
ATOM     27  O   UNL d   1      -2.938  -8.870   5.363  0.00  0.00    -0.389 OA
ATOM     28  H   UNL d   1      -2.665  -9.789   5.527  0.00  0.00     0.210 HD
ENDBRANCH  19  27
ENDBRANCH  18  19
ENDBRANCH   2  18
TORSDOF 6
