REMARK  3 active torsions:
REMARK  status: ('A' for Active; 'I' for Inactive)
REMARK       I    between atoms: N_4  and  C_1 
REMARK    1  A    between atoms: C_5  and  C_1 
REMARK    2  A    between atoms: C_2  and  C_5 
REMARK    3  A    between atoms: C_3  and  N_4 
ROOT
ATOM      1  C   UNL d   1       1.247  -0.038   0.084  0.00  0.00     0.226 C 
ATOM      2  N   UNL d   1       1.476   0.467  -1.186  0.00  0.00    -0.327 N 
ATOM      3  O   UNL d   1       1.807  -1.030   0.551  0.00  0.00    -0.273 OA
ATOM      4  H   UNL d   1       1.145   1.405  -1.374  0.00  0.00     0.169 HD
ENDROOT
BRANCH   1   5
ATOM      5  C   UNL d   1       0.315   0.804   0.946  0.00  0.00     0.142 C 
BRANCH   5   6
ATOM      6  C   UNL d   1      -1.168   0.551   0.745  0.00  0.00    -0.038 A 
ATOM      7  C   UNL d   1      -1.785  -0.715   0.986  0.00  0.00    -0.019 A 
ATOM      8  C   UNL d   1      -3.179  -0.852   0.754  0.00  0.00    -0.025 A 
ATOM      9  C   UNL d   1      -1.101  -1.857   1.461  0.00  0.00     0.013 A 
ATOM     10  C   UNL d   1      -3.808  -2.097   0.928  0.00  0.00     0.012 A 
ATOM     11  C   UNL d   1      -3.936   0.258   0.360  0.00  0.00     0.012 A 
ATOM     12  C   UNL d   1      -3.090  -3.213   1.347  0.00  0.00     0.001 A 
ATOM     13  C   UNL d   1      -1.738  -3.090   1.627  0.00  0.00     0.001 A 
ATOM     14  C   UNL d   1      -3.339   1.501   0.177  0.00  0.00     0.001 A 
ATOM     15  C   UNL d   1      -1.967   1.644   0.357  0.00  0.00     0.008 A 
ENDBRANCH   5   6
ENDBRANCH   1   5
BRANCH   2  16
ATOM     16  C   UNL d   1       2.336  -0.116  -2.148  0.00  0.00     0.037 A 
ATOM     17  C   UNL d   1       2.698  -1.467  -2.131  0.00  0.00     0.053 A 
ATOM     18  C   UNL d   1       3.590  -1.973  -3.079  0.00  0.00     0.037 A 
ATOM     19 CL   UNL d   1       4.022  -3.639  -3.042  0.00  0.00    -0.084 Cl
ATOM     20  C   UNL d   1       4.135  -1.145  -4.054  0.00  0.00     0.048 A 
ATOM     21  C   UNL d   1       3.756   0.194  -4.087  0.00  0.00     0.037 A 
ATOM     22  C   UNL d   1       2.848   0.708  -3.157  0.00  0.00     0.053 A 
ATOM     23 CL   UNL d   1       4.436   1.236  -5.278  0.00  0.00    -0.084 Cl
ENDBRANCH   2  16
TORSDOF 3
