REMARK  8 active torsions:
REMARK  status: ('A' for Active; 'I' for Inactive)
REMARK    1  A    between atoms: C9_7  and  C1_1 
REMARK    2  A    between atoms: C6_6  and  O1_8 
REMARK       I    between atoms: N_18  and  C6_6 
REMARK    3  A    between atoms: O1_8  and  C9_7 
REMARK    4  A    between atoms: CA_19  and  N_18 
REMARK    5  A    between atoms: C_20  and  CA_19 
REMARK    6  A    between atoms: CB_22  and  CA_19 
REMARK    7  A    between atoms: OXT_23  and  C_20 
REMARK    8  A    between atoms: CG_24  and  CB_22 
ROOT
ATOM      1  C9  <1> d   1      -0.253   2.486   1.468  0.00  0.00     0.194 C 
ENDROOT
BRANCH   1   2
ATOM      2  C1  <1> d   1      -0.140   1.845   0.070  0.00  0.00     0.078 C 
ATOM      3  C4  <1> d   1       0.634   0.529   0.209  0.00  0.00    -0.036 A 
ATOM      4  C2  <1> d   1       1.894   0.635  -0.423  0.00  0.00    -0.018 A 
ATOM      5  C14 <1> d   1       0.274  -0.614   0.906  0.00  0.00     0.009 A 
ATOM      6  C11 <1> d   1       2.818  -0.392  -0.327  0.00  0.00     0.013 A 
ATOM      7  C3  <1> d   1       1.976   1.914  -1.091  0.00  0.00    -0.018 A 
ATOM      8  C18 <1> d   1       2.474  -1.533   0.406  0.00  0.00     0.001 A 
ATOM      9  C21 <1> d   1       1.210  -1.647   1.006  0.00  0.00     0.001 A 
ATOM     10  C5  <1> d   1       0.779   2.631  -0.861  0.00  0.00    -0.036 A 
ATOM     11  C12 <1> d   1       2.987   2.458  -1.868  0.00  0.00     0.013 A 
ATOM     12  C13 <1> d   1       0.562   3.867  -1.450  0.00  0.00     0.009 A 
ATOM     13  C20 <1> d   1       1.580   4.412  -2.235  0.00  0.00     0.001 A 
ATOM     14  C19 <1> d   1       2.787   3.721  -2.433  0.00  0.00     0.001 A 
ENDBRANCH   1   2
BRANCH   1  15
ATOM     15  O1  <1> d   1      -0.840   3.799   1.506  0.00  0.00    -0.303 OA
BRANCH  15  16
ATOM     16  C6  <1> d   1      -2.193   3.834   1.578  0.00  0.00     0.361 C 
ATOM     17  N   LEU d   1      -2.662   5.084   1.864  0.00  0.00    -0.322 N 
ATOM     18  H   LEU d   1      -3.676   5.109   1.873  0.00  0.00     0.165 HD
ATOM     19  O2  <1> d   1      -2.937   2.889   1.379  0.00  0.00    -0.238 OA
BRANCH  17  20
ATOM     20  CA  LEU d   1      -1.978   6.053   2.741  0.00  0.00     0.185 C 
BRANCH  20  21
ATOM     21  C   LEU d   1      -1.488   7.277   1.947  0.00  0.00     0.163 C 
ATOM     22  O   LEU d   1      -1.224   8.367   2.433  0.00  0.00    -0.648 OA
BRANCH  21  23
ATOM     23  OXT LEU d   1      -1.261   7.002   0.636  0.00  0.00    -0.775 OA
ATOM     24  HXT LEU d   1      -1.448   6.056   0.463  0.00  0.00     0.167 HD
ENDBRANCH  21  23
ENDBRANCH  20  21
BRANCH  20  25
ATOM     25  CB  LEU d   1      -2.907   6.493   3.890  0.00  0.00     0.040 C 
BRANCH  25  26
ATOM     26  CG  LEU d   1      -3.294   5.371   4.880  0.00  0.00    -0.020 C 
ATOM     27  CD1 LEU d   1      -2.078   4.767   5.585  0.00  0.00     0.009 C 
ATOM     28  CD2 LEU d   1      -4.268   5.918   5.929  0.00  0.00     0.009 C 
ENDBRANCH  25  26
ENDBRANCH  20  25
ENDBRANCH  17  20
ENDBRANCH  15  16
ENDBRANCH   1  15
TORSDOF 8
