REMARK  6 active torsions:
REMARK  status: ('A' for Active; 'I' for Inactive)
REMARK    1  A    between atoms: N_3  and  C_1 
REMARK    2  A    between atoms: O_4  and  C_2 
REMARK    3  A    between atoms: C_7  and  O_4 
REMARK    4  A    between atoms: C_5  and  C_9 
REMARK    5  A    between atoms: C_6  and  C_11 
REMARK    6  A    between atoms: C_13  and  C_7 
ROOT
ATOM      1  C   UNL d   1       2.317  -1.250   0.054  0.00  0.00     0.139 A 
ATOM      2  C   UNL d   1       0.997  -1.162   0.524  0.00  0.00     0.130 A 
ATOM      3  C   UNL d   1       3.078  -0.079  -0.131  0.00  0.00     0.055 A 
ATOM      4  C   UNL d   1       2.540   1.182   0.167  0.00  0.00     0.051 A 
ATOM      5  C   UNL d   1       0.475   0.094   0.872  0.00  0.00     0.048 A 
ATOM      6  C   UNL d   1       1.235   1.255   0.677  0.00  0.00     0.038 A 
ATOM      7 BR   UNL d   1      -1.252   0.293   1.637  0.00  0.00    -0.048 Br
ENDROOT
BRANCH   2   8
ATOM      8  O   UNL d   1       0.203  -2.311   0.669  0.00  0.00    -0.271 OA
BRANCH   8   9
ATOM      9  C   UNL d   1      -0.672  -2.471  -0.393  0.00  0.00     0.298 C 
ATOM     10  O   UNL d   1      -0.913  -1.651  -1.268  0.00  0.00    -0.259 OA
BRANCH   9  11
ATOM     11  C   UNL d   1      -1.295  -3.818  -0.365  0.00  0.00     0.040 A 
ATOM     12  C   UNL d   1      -0.599  -4.939   0.105  0.00  0.00     0.033 A 
ATOM     13  C   UNL d   1      -1.127  -6.230  -0.053  0.00  0.00     0.048 A 
ATOM     14  C   UNL d   1      -2.392  -6.377  -0.642  0.00  0.00     0.016 A 
ATOM     15  C   UNL d   1      -3.108  -5.260  -1.075  0.00  0.00     0.002 A 
ATOM     16  C   UNL d   1      -2.555  -3.984  -0.951  0.00  0.00     0.017 A 
BRANCH  13  17
ATOM     17  C   UNL d   1      -0.319  -7.448   0.331  0.00  0.00     0.417 C 
ATOM     18  F   UNL d   1       0.782  -7.158   1.077  0.00  0.00    -0.166 F 
ATOM     19  F   UNL d   1      -1.038  -8.344   1.061  0.00  0.00    -0.166 F 
ATOM     20  F   UNL d   1       0.132  -8.128  -0.758  0.00  0.00    -0.166 F 
ENDBRANCH  13  17
ENDBRANCH   9  11
ENDBRANCH   8   9
ENDBRANCH   2   8
BRANCH   1  21
ATOM     21  N   UNL d   1       2.964  -2.537  -0.245  0.00  0.00    -0.113 N 
ATOM     22  O   UNL d   1       2.319  -3.580  -0.108  0.00  0.00    -0.532 OA
ATOM     23  O   UNL d   1       4.147  -2.504  -0.617  0.00  0.00    -0.532 OA
ENDBRANCH   1  21
BRANCH   4  24
ATOM     24  C   UNL d   1       3.339   2.441  -0.086  0.00  0.00     0.417 C 
ATOM     25  F   UNL d   1       4.677   2.212  -0.179  0.00  0.00    -0.166 F 
ATOM     26  F   UNL d   1       2.979   3.053  -1.245  0.00  0.00    -0.166 F 
ATOM     27  F   UNL d   1       3.185   3.366   0.899  0.00  0.00    -0.166 F 
ENDBRANCH   4  24
TORSDOF 6
