REMARK  5 active torsions:
REMARK  status: ('A' for Active; 'I' for Inactive)
REMARK    1  A    between atoms: N_2  and  C_1 
REMARK    2  A    between atoms: C_3  and  N_2 
REMARK    3  A    between atoms: C_13  and  N_8 
REMARK    4  A    between atoms: C_14  and  C_13 
REMARK    5  A    between atoms: C_15  and  C_14 
ROOT
ATOM      1  N   UNL d   1       0.464   1.347   0.392  0.00  0.00    -0.331 N 
ATOM      2  H   UNL d   1       0.819   2.078  -0.216  0.00  0.00     0.168 HD
ENDROOT
BRANCH   1   3
ATOM      3  C   UNL d   1       0.959   0.098   0.135  0.00  0.00     0.172 C 
ATOM      4  S   UNL d   1       0.070  -1.292  -0.136  0.00  0.00    -0.041 SA
ATOM      5  N   UNL d   1       2.320   0.009   0.053  0.00  0.00    -0.367 N 
ATOM      6  H   UNL d   1       2.647  -0.936  -0.110  0.00  0.00     0.161 HD
BRANCH   5   7
ATOM      7  C   UNL d   1       3.282   0.944   0.621  0.00  0.00     0.122 C 
BRANCH   7   8
ATOM      8  C   UNL d   1       3.320   0.865   2.147  0.00  0.00     0.019 C 
BRANCH   8   9
ATOM      9  C   UNL d   1       4.459   1.708   2.716  0.00  0.00    -0.003 C 
ATOM     10  C   UNL d   1       4.481   1.675   4.237  0.00  0.00     0.005 C 
ENDBRANCH   8   9
ENDBRANCH   7   8
ENDBRANCH   5   7
ENDBRANCH   1   3
BRANCH   1  11
ATOM     11  C   UNL d   1      -0.689   1.679   1.136  0.00  0.00     0.073 A 
ATOM     12  C   UNL d   1      -1.360   2.873   0.850  0.00  0.00     0.145 A 
ATOM     13  C   UNL d   1      -2.464   3.278   1.593  0.00  0.00     0.086 A 
ATOM     14  F   UNL d   1      -0.945   3.641  -0.169  0.00  0.00    -0.204 F 
ATOM     15  C   UNL d   1      -2.877   2.490   2.659  0.00  0.00     0.119 A 
ATOM     16  C   UNL d   1      -2.213   1.312   2.982  0.00  0.00     0.044 A 
ATOM     17  F   UNL d   1      -3.924   2.879   3.398  0.00  0.00    -0.206 F 
ATOM     18  C   UNL d   1      -1.118   0.903   2.220  0.00  0.00     0.036 A 
ENDBRANCH   1  11
TORSDOF 5
