REMARK  4 active torsions:
REMARK  status: ('A' for Active; 'I' for Inactive)
REMARK    1  A    between atoms: C_7  and  C_3 
REMARK    2  A    between atoms: C_15  and  C_4 
REMARK       I    between atoms: C_9  and  N_10 
REMARK    3  A    between atoms: C_12  and  C_9 
REMARK    4  A    between atoms: N_10  and  C_11 
ROOT
ATOM      1  C   UNL d   1       0.845  -2.884  -0.347  0.00  0.00     0.044 A 
ATOM      2  C   UNL d   1       1.985  -2.800   0.470  0.00  0.00     0.049 A 
ATOM      3  C   UNL d   1       0.466  -4.164  -0.834  0.00  0.00     0.018 A 
ATOM      4  C   UNL d   1       2.730  -3.981   0.709  0.00  0.00     0.030 A 
ATOM      5  C   UNL d   1       1.200  -5.317  -0.567  0.00  0.00     0.001 A 
ATOM      6  C   UNL d   1       2.343  -5.222   0.201  0.00  0.00     0.002 A 
ENDROOT
BRANCH   1   7
ATOM      7  C   UNL d   1       0.038  -1.792  -0.883  0.00  0.00     0.184 A 
ATOM      8  N   UNL d   1      -1.220  -1.859  -1.266  0.00  0.00    -0.318 N 
ATOM      9  C   UNL d   1      -1.351  -0.775  -2.100  0.00  0.00     0.138 A 
ATOM     10  HN  UNL d   1      -1.925  -2.548  -1.006  1.00  0.00     0.169 HD
ATOM     11  N   UNL d   1      -0.242  -0.022  -2.196  0.00  0.00    -0.242 N 
ATOM     12  O   UNL d   1       0.692  -0.711  -1.405  0.00  0.00    -0.217 OA
ATOM     13  HN  UNL d   1      -0.110   0.843  -2.719  1.00  0.00     0.196 HD
BRANCH   9  14
ATOM     14  C   UNL d   1      -2.553  -0.608  -2.916  0.00  0.00     0.010 A 
ATOM     15  C   UNL d   1      -3.577  -1.571  -2.849  0.00  0.00     0.017 A 
ATOM     16  C   UNL d   1      -4.695  -1.494  -3.685  0.00  0.00     0.025 A 
ATOM     17  C   UNL d   1      -4.803  -0.444  -4.592  0.00  0.00     0.034 A 
ATOM     18  C   UNL d   1      -3.809   0.532  -4.662  0.00  0.00     0.025 A 
ATOM     19 CL   UNL d   1      -6.163  -0.362  -5.642  0.00  0.00    -0.084 Cl
ATOM     20  C   UNL d   1      -2.688   0.450  -3.827  0.00  0.00     0.017 A 
ENDBRANCH   9  14
ENDBRANCH   1   7
BRANCH   2  21
ATOM     21  N   UNL d   1       2.520  -1.673   1.137  0.00  0.00    -0.322 N 
ATOM     22  C   UNL d   1       1.913  -0.494   1.509  0.00  0.00     0.256 C 
ATOM     23  O   UNL d   1       0.771  -0.129   1.285  0.00  0.00    -0.267 OA
ATOM     24  H   UNL d   1       3.451  -1.812   1.511  0.00  0.00     0.169 HD
BRANCH  22  25
ATOM     25  C   UNL d   1       2.802   0.381   2.322  0.00  0.00     0.034 A 
ATOM     26  C   UNL d   1       3.000   1.708   1.936  0.00  0.00     0.042 A 
ATOM     27  C   UNL d   1       3.891   2.513   2.656  0.00  0.00     0.056 A 
ATOM     28 CL   UNL d   1       4.133   4.134   2.109  0.00  0.00    -0.083 Cl
ATOM     29  C   UNL d   1       4.567   1.994   3.770  0.00  0.00     0.055 A 
ATOM     30  C   UNL d   1       4.341   0.673   4.170  0.00  0.00     0.026 A 
ATOM     31 CL   UNL d   1       5.699   2.923   4.688  0.00  0.00    -0.083 Cl
ATOM     32  C   UNL d   1       3.457  -0.133   3.451  0.00  0.00     0.019 A 
ENDBRANCH  22  25
ENDBRANCH   2  21
TORSDOF 4
