REMARK  2 active torsions:
REMARK  status: ('A' for Active; 'I' for Inactive)
REMARK    1  A    between atoms: C_6  and  N_1 
REMARK    2  A    between atoms: C_11  and  C_4 
ROOT
ATOM      1  N   UNL d   1      -0.006   0.900   0.018  0.00  0.00    -0.244 N 
ATOM      2  C   UNL d   1      -1.121   0.107   0.104  0.00  0.00     0.266 A 
ATOM      3  C   UNL d   1       1.102   0.108  -0.066  0.00  0.00     0.256 A 
ATOM      4  C   UNL d   1      -0.671  -1.307   0.048  0.00  0.00     0.048 A 
ATOM      5  C   UNL d   1       0.661  -1.286  -0.028  0.00  0.00     0.093 A 
ATOM      6  O   UNL d   1      -2.297   0.430   0.157  0.00  0.00    -0.267 OA
ATOM      7  O   UNL d   1       2.287   0.391  -0.135  0.00  0.00    -0.268 OA
ENDROOT
BRANCH   1   8
ATOM      8  C   UNL d   1      -0.007   2.325  -0.012  0.00  0.00     0.049 A 
ATOM      9  C   UNL d   1      -1.105   3.065   0.457  0.00  0.00     0.054 A 
ATOM     10  C   UNL d   1      -1.099   4.463   0.426  0.00  0.00     0.037 A 
ATOM     11 CL   UNL d   1      -2.449   5.334   1.043  0.00  0.00    -0.084 Cl
ATOM     12  C   UNL d   1      -0.012   5.158  -0.087  0.00  0.00     0.048 A 
ATOM     13  C   UNL d   1       1.077   4.441  -0.562  0.00  0.00     0.037 A 
ATOM     14  C   UNL d   1       1.090   3.043  -0.518  0.00  0.00     0.054 A 
ATOM     15 CL   UNL d   1       2.423   5.284  -1.227  0.00  0.00    -0.084 Cl
ENDBRANCH   1   8
BRANCH   4  16
ATOM     16  C   UNL d   1      -1.523  -2.499   0.028  0.00  0.00    -0.020 A 
ATOM     17  C   UNL d   1      -2.746  -2.531   0.711  0.00  0.00     0.012 A 
ATOM     18  C   UNL d   1      -3.583  -3.648   0.631  0.00  0.00     0.001 A 
ATOM     19  C   UNL d   1      -3.207  -4.750  -0.134  0.00  0.00     0.000 A 
ATOM     20  C   UNL d   1      -1.992  -4.739  -0.812  0.00  0.00     0.001 A 
ATOM     21  C   UNL d   1      -1.155  -3.623  -0.730  0.00  0.00     0.012 A 
ENDBRANCH   4  16
TORSDOF 2
