REMARK  6 active torsions:
REMARK  status: ('A' for Active; 'I' for Inactive)
REMARK    1  A    between atoms: O_7  and  C_1 
REMARK       I    between atoms: C_2  and  N_6 
REMARK    2  A    between atoms: C_3  and  C_2 
REMARK    3  A    between atoms: C_4  and  C_5 
REMARK    4  A    between atoms: O_15  and  C_4 
REMARK    5  A    between atoms: N_6  and  C_13 
REMARK    6  A    between atoms: C_14  and  O_7 
ROOT
ATOM      1  C   UNL d   1       1.831  -4.588  -1.875  0.00  0.00     0.035 A 
ATOM      2  C   UNL d   1       0.700  -2.566  -0.253  0.00  0.00     0.078 A 
ATOM      3  C   UNL d   1       2.641  -3.697  -1.167  0.00  0.00     0.032 A 
ATOM      4  C   UNL d   1       0.445  -4.455  -1.767  0.00  0.00     0.032 A 
ATOM      5  C   UNL d   1      -0.112  -3.451  -0.966  0.00  0.00     0.039 A 
ATOM      6  C   UNL d   1       2.082  -2.683  -0.373  0.00  0.00     0.039 A 
ENDROOT
BRANCH   1   7
ATOM      7  N   UNL d   1       2.323  -5.609  -2.714  0.00  0.00    -0.324 N 
ATOM      8  C   UNL d   1       3.649  -5.881  -2.997  0.00  0.00     0.245 C 
ATOM      9  O   UNL d   1       4.632  -5.324  -2.533  0.00  0.00    -0.268 OA
ATOM     10  H   UNL d   1       1.621  -6.176  -3.176  0.00  0.00     0.169 HD
BRANCH   8  11
ATOM     11  C   UNL d   1       3.807  -6.963  -3.999  0.00  0.00     0.081 C 
ATOM     12  C   UNL d   1       5.048  -7.264  -4.415  0.00  0.00     0.086 C 
BRANCH  12  13
ATOM     13  C   UNL d   1       5.231  -8.313  -5.428  0.00  0.00     0.165 C 
ATOM     14  O   UNL d   1       4.320  -8.936  -5.941  0.00  0.00    -0.647 OA
BRANCH  13  15
ATOM     15  O   UNL d   1       6.530  -8.504  -5.732  0.00  0.00    -0.773 OA
ATOM     16  H   UNL d   1       7.165  -7.942  -5.251  0.00  0.00     0.167 HD
ENDBRANCH  13  15
ENDBRANCH  12  13
ENDBRANCH   8  11
ENDBRANCH   1   7
BRANCH   2  17
ATOM     17  O   UNL d   1       0.015  -1.674   0.517  0.00  0.00    -0.255 OA
BRANCH  17  18
ATOM     18  C   UNL d   1       0.739  -0.783   1.348  0.00  0.00     0.530 C 
ATOM     19  F   UNL d   1       1.711  -1.407   2.047  0.00  0.00    -0.144 F 
ATOM     20  F   UNL d   1      -0.120  -0.239   2.240  0.00  0.00    -0.144 F 
ATOM     21  F   UNL d   1       1.277   0.215   0.618  0.00  0.00    -0.144 F 
ENDBRANCH  17  18
ENDBRANCH   2  17
TORSDOF 6
