REMARK  5 active torsions:
REMARK  status: ('A' for Active; 'I' for Inactive)
REMARK    1  A    between atoms: C_2  and  N_1 
REMARK    2  A    between atoms: N_4  and  C_3 
REMARK    3  A    between atoms: C_15  and  N_5 
REMARK    4  A    between atoms: C_18  and  C_15 
REMARK    5  A    between atoms: O_16  and  C_18 
ROOT
ATOM      1  C   UNL d   1      -1.768  -0.749   2.354  0.00  0.00     0.146 A 
ATOM      2  C   UNL d   1      -0.961  -1.096   1.266  0.00  0.00     0.137 A 
ATOM      3  N   UNL d   1       0.357  -0.768   1.325  0.00  0.00    -0.350 N 
ATOM      4  HN  UNL d   1       0.983  -1.034   0.565  1.00  0.00     0.166 HD
ATOM      5  C   UNL d   1      -1.269  -0.033   3.453  0.00  0.00     0.041 A 
ATOM      6  C   UNL d   1       0.841  -0.086   2.394  0.00  0.00     0.090 A 
ATOM      7  C   UNL d   1       0.071   0.313   3.467  0.00  0.00     0.020 A 
ENDROOT
BRANCH   2   8
ATOM      8  N   UNL d   1      -1.378  -1.708   0.105  0.00  0.00    -0.362 N 
ATOM      9  C   UNL d   1      -0.439  -2.557  -0.650  0.00  0.00     0.154 C 
ATOM     10  C   UNL d   1      -0.431  -2.218  -2.163  0.00  0.00     0.292 C 
ATOM     11  N   UNL d   1      -1.765  -2.100  -2.805  0.00  0.00     0.093 N 
ATOM     12  C   UNL d   1      -2.549  -1.132  -2.012  0.00  0.00     0.292 C 
ATOM     13  C   UNL d   1      -2.687  -1.471  -0.511  0.00  0.00     0.154 C 
BRANCH  11  14
ATOM     14  C   UNL d   1      -2.413  -3.420  -2.920  0.00  0.00     0.298 C 
BRANCH  14  15
ATOM     15  C   UNL d   1      -3.774  -3.403  -3.635  0.00  0.00     0.194 C 
BRANCH  15  16
ATOM     16  O   UNL d   1      -4.271  -4.734  -3.751  0.00  0.00    -0.399 OA
ATOM     17  H   UNL d   1      -5.139  -4.671  -4.186  0.00  0.00     0.209 HD
ENDBRANCH  15  16
ENDBRANCH  14  15
ENDBRANCH  11  14
ENDBRANCH   2   8
BRANCH   1  18
ATOM     18  N   UNL d   1      -3.135  -1.191   2.447  0.00  0.00    -0.112 N 
ATOM     19  O   UNL d   1      -3.348  -2.409   2.512  0.00  0.00    -0.532 OA
ATOM     20  O   UNL d   1      -4.006  -0.309   2.502  0.00  0.00    -0.532 OA
ENDBRANCH   1  18
TORSDOF 5
