REMARK  1 active torsions:
REMARK  status: ('A' for Active; 'I' for Inactive)
REMARK    1  A    between atoms: C_9  and  C_4 
ROOT
ATOM      1  N   UNL d   1       1.226   0.127  -0.142  0.00  0.00    -0.316 N 
ATOM      2  HN  UNL d   1       2.214   0.245  -0.365  1.00  0.00     0.169 HD
ATOM      3  C   UNL d   1       0.558  -0.990   0.060  0.00  0.00     0.208 A 
ATOM      4  C   UNL d   1       0.262   1.094   0.022  0.00  0.00     0.145 A 
ATOM      5  N   UNL d   1      -0.960   0.614   0.291  0.00  0.00    -0.241 N 
ATOM      6  HN  UNL d   1      -1.823   1.134   0.446  1.00  0.00     0.196 HD
ATOM      7  C   UNL d   1       1.152  -2.287   0.057  0.00  0.00     0.153 A 
ATOM      8  O   UNL d   1      -0.769  -0.767   0.309  0.00  0.00    -0.215 OA
ATOM      9  N   UNL d   1       1.277  -4.533   0.230  0.00  0.00    -0.272 N 
ATOM     10  HN  UNL d   1       1.021  -5.513   0.348  1.00  0.00     0.194 HD
ATOM     11  O   UNL d   1       0.433  -3.435   0.254  0.00  0.00    -0.234 OA
ATOM     12  C   UNL d   1       2.477  -2.637  -0.104  0.00  0.00     0.063 A 
ATOM     13  C   UNL d   1       2.497  -4.035   0.020  0.00  0.00     0.117 A 
ENDROOT
BRANCH   4  14
ATOM     14  C   UNL d   1       0.559   2.557  -0.065  0.00  0.00     0.050 A 
ATOM     15  S   UNL d   1       2.095   3.188  -0.469  0.00  0.00    -0.098 SA
ATOM     16  C   UNL d   1       1.543   4.800  -0.317  0.00  0.00     0.050 A 
ATOM     17  C   UNL d   1       0.214   4.858   0.042  0.00  0.00     0.009 A 
ATOM     18  C   UNL d   1      -0.359   3.558   0.180  0.00  0.00     0.023 A 
ENDBRANCH   4  14
TORSDOF 1
