REMARK  2 active torsions:
REMARK  status: ('A' for Active; 'I' for Inactive)
REMARK    1  A    between atoms: C_2  and  S_1 
REMARK    2  A    between atoms: N_4  and  S_1 
ROOT
ATOM      1  C   UNL d   1       1.183   3.975   0.536  0.00  0.00    -0.009 A 
ATOM      2  N   UNL d   1       0.583   1.553   0.495  0.00  0.00    -0.202 NA
ATOM      3  C   UNL d   1      -0.148   4.306   0.434  0.00  0.00     0.019 A 
ATOM      4  N   UNL d   1      -0.271   5.663   0.367  0.00  0.00    -0.358 N 
ATOM      5  C   UNL d   1       1.914   5.199   0.526  0.00  0.00     0.003 A 
ATOM      6  C   UNL d   1       1.695   2.569   0.558  0.00  0.00     0.149 C 
ATOM      7  C   UNL d   1       0.984   6.237   0.400  0.00  0.00     0.043 A 
ATOM      8  C   UNL d   1      -1.242   3.313   0.357  0.00  0.00     0.073 C 
ATOM      9  C   UNL d   1      -0.662   2.014  -0.232  0.00  0.00     0.114 C 
ATOM     10  C   UNL d   1       3.283   5.522   0.583  0.00  0.00     0.056 A 
ATOM     11  C   UNL d   1       1.359   7.585   0.315  0.00  0.00     0.033 A 
ATOM     12  C   UNL d   1       3.660   6.862   0.504  0.00  0.00     0.117 A 
ATOM     13  C   UNL d   1       2.725   7.879   0.368  0.00  0.00     0.044 A 
ATOM     14  F   UNL d   1       4.963   7.174   0.552  0.00  0.00    -0.206 F 
ATOM     15  H   UNL d   1      -1.137   6.178   0.270  0.00  0.00     0.166 HD
ENDROOT
BRANCH   2  16
ATOM     16  S   UNL d   1       1.103   0.024  -0.079  0.00  0.00     0.245 S 
ATOM     17  O   UNL d   1      -0.032  -0.867  -0.171  0.00  0.00    -0.206 OA
ATOM     18  O   UNL d   1       1.924   0.264  -1.249  0.00  0.00    -0.206 OA
BRANCH  16  19
ATOM     19  C   UNL d   1       2.160  -0.608   1.198  0.00  0.00     0.098 A 
ATOM     20  C   UNL d   1       3.512  -0.831   0.890  0.00  0.00     0.052 A 
ATOM     21  C   UNL d   1       4.346  -1.474   1.809  0.00  0.00     0.057 A 
ATOM     22 CL   UNL d   1       5.993  -1.732   1.357  0.00  0.00    -0.083 Cl
ATOM     23  C   UNL d   1       3.831  -1.899   3.037  0.00  0.00     0.057 A 
ATOM     24  C   UNL d   1       2.489  -1.659   3.347  0.00  0.00     0.051 A 
ATOM     25 CL   UNL d   1       4.790  -2.732   4.206  0.00  0.00    -0.082 Cl
ATOM     26  C   UNL d   1       1.647  -1.011   2.433  0.00  0.00     0.058 A 
ATOM     27 CL   UNL d   1       0.020  -0.745   2.937  0.00  0.00    -0.083 Cl
ENDBRANCH  16  19
ENDBRANCH   2  16
TORSDOF 2
