REMARK  8 active torsions:
REMARK  status: ('A' for Active; 'I' for Inactive)
REMARK    1  A    between atoms: C_2  and  N_1 
REMARK    2  A    between atoms: C_3  and  C_2 
REMARK    3  A    between atoms: S_4  and  C_3 
REMARK    4  A    between atoms: C_5  and  C_3 
REMARK    5  A    between atoms: C_6  and  S_4 
REMARK    6  A    between atoms: O_16  and  C_12 
REMARK    7  A    between atoms: O_17  and  C_13 
REMARK    8  A    between atoms: N_15  and  C_14 
ROOT
ATOM      1  C   UNL d   1       1.121  -0.643  -2.236  0.00  0.00     0.109 C 
ENDROOT
BRANCH   1   2
ATOM      2  C   UNL d   1       0.125  -0.653  -1.068  0.00  0.00     0.221 C 
BRANCH   2   3
ATOM      3  N   UNL d   1       0.781  -0.234   0.209  0.00  0.00    -0.154 N 
ATOM      4  O   UNL d   1       0.661  -0.989   1.179  0.00  0.00    -0.536 OA
ATOM      5  O   UNL d   1       1.336   0.874   0.224  0.00  0.00    -0.536 OA
ENDBRANCH   2   3
ENDBRANCH   1   2
BRANCH   1   6
ATOM      6  S   UNL d   1       2.565  -1.808  -1.931  0.00  0.00    -0.117 SA
BRANCH   6   7
ATOM      7  C   UNL d   1       1.811  -3.432  -2.040  0.00  0.00     0.022 A 
ATOM      8  C   UNL d   1       1.317  -4.095  -0.899  0.00  0.00     0.022 A 
ATOM      9  C   UNL d   1       0.712  -5.349  -1.044  0.00  0.00     0.024 A 
ATOM     10  C   UNL d   1       0.621  -5.960  -2.298  0.00  0.00     0.002 A 
ATOM     11  C   UNL d   1       1.157  -5.330  -3.413  0.00  0.00     0.001 A 
ATOM     12  C   UNL d   1       1.759  -4.079  -3.283  0.00  0.00     0.020 A 
BRANCH   8  13
ATOM     13  N   UNL d   1       1.532  -3.608   0.397  0.00  0.00    -0.302 NA
ATOM     14  H   UNL d   1       2.007  -2.711   0.446  0.00  0.00     0.124 HD
ATOM     15  H   UNL d   1       0.720  -3.639   1.006  0.00  0.00     0.124 HD
ENDBRANCH   8  13
ENDBRANCH   6   7
ENDBRANCH   1   6
BRANCH   1  16
ATOM     16  C   UNL d   1       0.459  -0.801  -3.618  0.00  0.00    -0.037 A 
ATOM     17  C   UNL d   1      -0.907  -0.512  -3.834  0.00  0.00     0.045 A 
ATOM     18  C   UNL d   1      -1.499  -0.652  -5.094  0.00  0.00     0.071 A 
ATOM     19  C   UNL d   1      -0.737  -1.099  -6.171  0.00  0.00     0.073 A 
ATOM     20  C   UNL d   1       0.625  -1.333  -6.009  0.00  0.00     0.071 A 
ATOM     21  C   UNL d   1       1.212  -1.149  -4.754  0.00  0.00     0.045 A 
BRANCH  18  22
ATOM     22  O   UNL d   1      -2.813  -0.397  -5.389  0.00  0.00    -0.356 OA
ATOM     23  C   UNL d   1      -3.590   0.257  -4.393  0.00  0.00     0.210 C 
ENDBRANCH  18  22
BRANCH  20  24
ATOM     24  O   UNL d   1       1.479  -1.778  -6.979  0.00  0.00    -0.356 OA
ATOM     25  C   UNL d   1       1.058  -1.583  -8.324  0.00  0.00     0.210 C 
ENDBRANCH  20  24
ENDBRANCH   1  16
TORSDOF 8
