REMARK  5 active torsions:
REMARK  status: ('A' for Active; 'I' for Inactive)
REMARK    1  A    between atoms: N_10  and  C_3 
REMARK    2  A    between atoms: N_17  and  C_6 
REMARK    3  A    between atoms: C_9  and  N_10 
REMARK    4  A    between atoms: O_18  and  C_14 
REMARK    5  A    between atoms: O_19  and  C_15 
ROOT
ATOM      1  N   UNL d   1      -0.148  -1.034   0.717  0.00  0.00    -0.166 N 
ATOM      2  HN  UNL d   1      -0.599  -1.918   0.950  1.00  0.00     0.187 HD
ATOM      3  C   UNL d   1      -0.817  -0.040   0.135  0.00  0.00     0.685 A 
ATOM      4  N   UNL d   1      -0.259   1.120  -0.199  0.00  0.00    -0.188 N 
ATOM      5  HN  UNL d   1      -0.779   1.869  -0.656  1.00  0.00     0.185 HD
ATOM      6  C   UNL d   1       1.128  -0.816   0.976  0.00  0.00     0.170 A 
ATOM      7  N   UNL d   1       1.781   0.293   0.685  0.00  0.00    -0.328 N 
ATOM      8  HN  UNL d   1       2.773   0.423   0.884  1.00  0.00     0.169 HD
ATOM      9  C   UNL d   1       1.030   1.226   0.110  0.00  0.00     0.200 A 
ENDROOT
BRANCH   3  10
ATOM     10  N   UNL d   1      -2.158  -0.200  -0.214  0.00  0.00    -0.191 N 
ATOM     11  H   UNL d   1      -2.471   0.557  -0.804  0.00  0.00     0.184 HD
BRANCH  10  12
ATOM     12  C   UNL d   1      -3.038  -1.270  -0.001  0.00  0.00     0.054 A 
ATOM     13  C   UNL d   1      -2.878  -2.174   1.058  0.00  0.00     0.066 A 
ATOM     14  C   UNL d   1      -3.700  -3.295   1.187  0.00  0.00     0.073 A 
ATOM     15  C   UNL d   1      -4.703  -3.523   0.243  0.00  0.00     0.073 A 
ATOM     16  C   UNL d   1      -4.891  -2.635  -0.815  0.00  0.00     0.073 A 
ATOM     17  C   UNL d   1      -4.061  -1.513  -0.926  0.00  0.00     0.066 A 
BRANCH  14  18
ATOM     18  O   UNL d   1      -3.616  -4.234   2.180  0.00  0.00    -0.356 OA
ATOM     19  C   UNL d   1      -2.599  -4.043   3.157  0.00  0.00     0.210 C 
ENDBRANCH  14  18
BRANCH  16  20
ATOM     20  O   UNL d   1      -5.832  -2.751  -1.802  0.00  0.00    -0.356 OA
ATOM     21  C   UNL d   1      -6.636  -3.925  -1.783  0.00  0.00     0.210 C 
ENDBRANCH  16  20
ENDBRANCH  10  12
ENDBRANCH   3  10
BRANCH   6  22
ATOM     22  N   UNL d   1       1.837  -1.856   1.548  0.00  0.00    -0.273 NA
ATOM     23  H   UNL d   1       1.388  -2.734   1.327  0.00  0.00     0.127 HD
ATOM     24  H   UNL d   1       2.817  -1.774   1.313  0.00  0.00     0.127 HD
ENDBRANCH   6  22
TORSDOF 5
