REMARK  8 active torsions:
REMARK  status: ('A' for Active; 'I' for Inactive)
REMARK    1  A    between atoms: C_9  and  N_3 
REMARK    2  A    between atoms: C_12  and  C_4 
REMARK    3  A    between atoms: C_8  and  C_13 
REMARK    4  A    between atoms: C_11  and  C_9 
REMARK    5  A    between atoms: C_10  and  N_18 
REMARK    6  A    between atoms: N_17  and  C_10 
REMARK       I    between atoms: N_19  and  C_11 
REMARK    7  A    between atoms: C_21  and  N_17 
REMARK    8  A    between atoms: N_18  and  N_19 
ROOT
ATOM      1  C   UNL d   1       1.923  -1.125  -0.061  0.00  0.00     0.271 C 
ENDROOT
BRANCH   1   2
ATOM      2  N   UNL d   1       0.697  -0.387   0.106  0.00  0.00    -0.207 N 
ATOM      3  N   UNL d   1       0.564   0.541   1.074  0.00  0.00    -0.268 N 
ATOM      4  C   UNL d   1      -0.677   0.988   0.807  0.00  0.00     0.144 C 
ATOM      5  HN  UNL d   1       1.219   0.825   1.803  1.00  0.00     0.190 HD
ATOM      6  N   UNL d   1      -1.196   0.433  -0.341  0.00  0.00    -0.266 N 
ATOM      7  N   UNL d   1      -0.285  -0.408  -0.809  0.00  0.00    -0.002 NA
ATOM      8  HN  UNL d   1      -2.108   0.632  -0.753  1.00  0.00     0.186 HD
BRANCH   4   9
ATOM      9  C   UNL d   1      -1.423   1.897   1.669  0.00  0.00     0.011 A 
ATOM     10  C   UNL d   1      -0.809   2.483   2.788  0.00  0.00     0.031 A 
ATOM     11  C   UNL d   1      -1.542   3.275   3.688  0.00  0.00     0.048 A 
ATOM     12  C   UNL d   1      -2.906   3.492   3.443  0.00  0.00     0.016 A 
ATOM     13  C   UNL d   1      -3.520   2.938   2.319  0.00  0.00     0.002 A 
ATOM     14  C   UNL d   1      -2.782   2.147   1.436  0.00  0.00     0.015 A 
BRANCH  11  15
ATOM     15  C   UNL d   1      -0.894   3.862   4.918  0.00  0.00     0.417 C 
ATOM     16  F   UNL d   1       0.436   3.583   5.023  0.00  0.00    -0.166 F 
ATOM     17  F   UNL d   1      -0.994   5.219   4.962  0.00  0.00    -0.166 F 
ATOM     18  F   UNL d   1      -1.461   3.408   6.070  0.00  0.00    -0.166 F 
ENDBRANCH  11  15
ENDBRANCH   4   9
ENDBRANCH   1   2
BRANCH   1  19
ATOM     19  C   UNL d   1       1.668  -2.589  -0.316  0.00  0.00     0.257 C 
ATOM     20  N   UNL d   1       2.273  -3.072  -1.464  0.00  0.00    -0.266 N 
ATOM     21  H   UNL d   1       2.931  -2.528  -2.017  0.00  0.00     0.190 HD
ATOM     22  O   UNL d   1       1.041  -3.314   0.446  0.00  0.00    -0.270 OA
BRANCH  20  23
ATOM     23  N   UNL d   1       2.339  -4.468  -1.642  0.00  0.00    -0.273 N 
ATOM     24  H   UNL d   1       1.806  -4.990  -0.942  0.00  0.00     0.189 HD
BRANCH  23  25
ATOM     25  C   UNL d   1       2.345  -5.008  -2.899  0.00  0.00     0.191 C 
ATOM     26  S   UNL d   1       1.855  -4.201  -4.285  0.00  0.00    -0.039 SA
BRANCH  25  27
ATOM     27  N   UNL d   1       2.868  -6.266  -3.061  0.00  0.00    -0.332 N 
ATOM     28  H   UNL d   1       2.832  -6.546  -4.038  0.00  0.00     0.168 HD
BRANCH  27  29
ATOM     29  C   UNL d   1       3.866  -6.915  -2.292  0.00  0.00     0.036 A 
ATOM     30  C   UNL d   1       4.090  -6.707  -0.930  0.00  0.00     0.055 A 
ATOM     31  C   UNL d   1       5.215  -7.253  -0.296  0.00  0.00     0.058 A 
ATOM     32 CL   UNL d   1       5.440  -6.890   1.380  0.00  0.00    -0.082 Cl
ATOM     33  C   UNL d   1       6.118  -8.035  -1.019  0.00  0.00     0.055 A 
ATOM     34  C   UNL d   1       5.863  -8.310  -2.362  0.00  0.00     0.028 A 
ATOM     35 CL   UNL d   1       7.565  -8.667  -0.322  0.00  0.00    -0.083 Cl
ATOM     36  C   UNL d   1       4.736  -7.766  -2.989  0.00  0.00     0.031 A 
ENDBRANCH  27  29
ENDBRANCH  25  27
ENDBRANCH  23  25
ENDBRANCH  20  23
ENDBRANCH   1  19
TORSDOF 8
