REMARK  4 active torsions:
REMARK  status: ('A' for Active; 'I' for Inactive)
REMARK    1  A    between atoms: N_9  and  C_1 
REMARK    2  A    between atoms: C_4  and  C_5 
REMARK       I    between atoms: N_8  and  C_4 
REMARK    3  A    between atoms: C_13  and  N_8 
REMARK    4  A    between atoms: O_19  and  C_14 
ROOT
ATOM      1  C   UNL d   1      -0.062  -3.307   0.362  0.00  0.00     0.256 C 
ATOM      2  N   UNL d   1      -1.260  -3.961   0.117  0.00  0.00    -0.323 N 
ATOM      3  O   UNL d   1       1.010  -3.855   0.598  0.00  0.00    -0.267 OA
ATOM      4  H   UNL d   1      -2.088  -3.410  -0.043  0.00  0.00     0.169 HD
ENDROOT
BRANCH   1   5
ATOM      5  C   UNL d   1      -0.063  -1.808   0.299  0.00  0.00     0.038 A 
ATOM      6  C   UNL d   1      -1.199  -1.022   0.100  0.00  0.00     0.061 A 
ATOM      7  C   UNL d   1      -1.079   0.371  -0.029  0.00  0.00     0.146 A 
ATOM      8  C   UNL d   1       0.152   1.049   0.042  0.00  0.00     0.107 A 
ATOM      9  F   UNL d   1      -2.221   1.054  -0.215  0.00  0.00    -0.204 F 
ATOM     10  C   UNL d   1       1.269   0.228   0.287  0.00  0.00     0.146 A 
ATOM     11  C   UNL d   1       1.172  -1.159   0.412  0.00  0.00     0.061 A 
ATOM     12  F   UNL d   1       2.500   0.762   0.345  0.00  0.00    -0.204 F 
BRANCH   8  13
ATOM     13  N   UNL d   1       0.305   2.420  -0.188  0.00  0.00    -0.385 N 
ATOM     14  C   UNL d   1      -0.720   3.150  -0.925  0.00  0.00     0.149 C 
ATOM     15  C   UNL d   1       1.048   3.202   0.798  0.00  0.00     0.149 C 
ENDBRANCH   8  13
ENDBRANCH   1   5
BRANCH   2  16
ATOM     16  C   UNL d   1      -1.450  -5.359  -0.014  0.00  0.00     0.035 A 
ATOM     17  C   UNL d   1      -0.430  -6.302   0.106  0.00  0.00     0.032 A 
ATOM     18  C   UNL d   1      -0.679  -7.667  -0.104  0.00  0.00     0.039 A 
ATOM     19  C   UNL d   1      -1.959  -8.105  -0.437  0.00  0.00     0.068 A 
ATOM     20  C   UNL d   1      -2.991  -7.171  -0.521  0.00  0.00     0.039 A 
ATOM     21  C   UNL d   1      -2.742  -5.809  -0.313  0.00  0.00     0.032 A 
BRANCH  19  22
ATOM     22  O   UNL d   1      -2.320  -9.397  -0.700  0.00  0.00    -0.356 OA
ATOM     23  C   UNL d   1      -1.262 -10.341  -0.825  0.00  0.00     0.210 C 
ENDBRANCH  19  22
ENDBRANCH   2  16
TORSDOF 4
