REMARK  2 active torsions:
REMARK  status: ('A' for Active; 'I' for Inactive)
REMARK    1  A    between atoms: C_10  and  C_4 
REMARK    2  A    between atoms: C_9  and  C_5 
ROOT
ATOM      1  C   UNL d   1      -0.739  -1.063  -0.031  0.00  0.00     0.211 C 
ATOM      2  C   UNL d   1       0.769  -1.116  -0.115  0.00  0.00     0.211 C 
ATOM      3  C   UNL d   1       0.051   1.146  -0.084  0.00  0.00     0.159 C 
ATOM      4  C   UNL d   1       1.306   0.290  -0.072  0.00  0.00     0.167 C 
ATOM      5  C   UNL d   1      -1.171   0.337   0.343  0.00  0.00     0.167 C 
ATOM      6  O   UNL d   1       1.396  -2.155  -0.161  0.00  0.00    -0.288 OA
ATOM      7  O   UNL d   1      -1.453  -2.026  -0.238  0.00  0.00    -0.288 OA
ATOM      8  O   UNL d   1       0.020   2.346  -0.335  0.00  0.00    -0.296 OA
ENDROOT
BRANCH   4   9
ATOM      9  C   UNL d   1       2.286   0.599  -1.174  0.00  0.00    -0.039 A 
ATOM     10  C   UNL d   1       1.940   0.476  -2.528  0.00  0.00     0.008 A 
ATOM     11  C   UNL d   1       2.877   0.755  -3.526  0.00  0.00     0.001 A 
ATOM     12  C   UNL d   1       4.164   1.161  -3.184  0.00  0.00     0.000 A 
ATOM     13  C   UNL d   1       4.519   1.291  -1.843  0.00  0.00     0.001 A 
ATOM     14  C   UNL d   1       3.586   1.012  -0.845  0.00  0.00     0.008 A 
ENDBRANCH   4   9
BRANCH   5  15
ATOM     15  C   UNL d   1      -1.478   0.474   1.829  0.00  0.00    -0.039 A 
ATOM     16  C   UNL d   1      -1.166   1.649   2.536  0.00  0.00     0.008 A 
ATOM     17  C   UNL d   1      -1.428   1.758   3.904  0.00  0.00     0.001 A 
ATOM     18  C   UNL d   1      -2.027   0.705   4.587  0.00  0.00     0.000 A 
ATOM     19  C   UNL d   1      -2.378  -0.452   3.899  0.00  0.00     0.001 A 
ATOM     20  C   UNL d   1      -2.116  -0.563   2.531  0.00  0.00     0.008 A 
ENDBRANCH   5  15
TORSDOF 2
