REMARK  1 active torsions:
REMARK  status: ('A' for Active; 'I' for Inactive)
REMARK    1  A    between atoms: N_15  and  C_6 
ROOT
ATOM      1  C   UNL d   1       1.683  -0.813   0.001  0.00  0.00     0.166 A 
ATOM      2  N   UNL d   1       0.938   0.348   0.001  0.00  0.00    -0.220 N 
ATOM      3  N   UNL d   1       1.120  -2.054   0.007  0.00  0.00    -0.324 N 
ATOM      4  HN  UNL d   1       1.697  -2.895   0.005  1.00  0.00     0.169 HD
ATOM      5  N   UNL d   1       1.719   1.447  -0.003  0.00  0.00    -0.012 NA
ATOM      6  C   UNL d   1      -0.188  -2.128   0.017  0.00  0.00     0.116 A 
ATOM      7  C   UNL d   1       2.976  -0.336  -0.002  0.00  0.00     0.173 A 
ATOM      8  C   UNL d   1      -1.067  -0.914   0.008  0.00  0.00     0.074 A 
ATOM      9  C   UNL d   1      -0.460   0.347   0.003  0.00  0.00     0.073 A 
ATOM     10  N   UNL d   1       2.983   1.035  -0.004  0.00  0.00    -0.271 N 
ATOM     11  HN  UNL d   1       3.810   1.632  -0.006  1.00  0.00     0.185 HD
ATOM     12  C   UNL d   1       4.186  -1.088  -0.001  0.00  0.00     0.122 C 
ATOM     13  N   UNL d   1       5.173  -1.700  -0.000  0.00  0.00    -0.190 NA
ATOM     14  C   UNL d   1      -2.458  -0.986   0.005  0.00  0.00     0.132 A 
ATOM     15  C   UNL d   1      -1.215   1.524  -0.000  0.00  0.00     0.032 A 
ATOM     16  F   UNL d   1      -3.091  -2.169   0.004  0.00  0.00    -0.205 F 
ATOM     17  C   UNL d   1      -2.609   1.430  -0.001  0.00  0.00     0.005 A 
ATOM     18  C   UNL d   1      -3.228   0.178   0.001  0.00  0.00     0.043 A 
ENDROOT
BRANCH   6  19
ATOM     19  N   UNL d   1      -0.736  -3.373   0.043  0.00  0.00    -0.385 N 
ATOM     20  H   UNL d   1      -0.117  -4.172  -0.015  0.00  0.00     0.157 HD
ATOM     21  H   UNL d   1      -1.735  -3.534  -0.021  0.00  0.00     0.157 HD
ENDBRANCH   6  19
TORSDOF 1
