REMARK  3 active torsions:
REMARK  status: ('A' for Active; 'I' for Inactive)
REMARK    1  A    between atoms: C_12  and  C_3 
REMARK    2  A    between atoms: C_13  and  C_4 
REMARK       I    between atoms: C_7  and  N_9 
REMARK    3  A    between atoms: C_10  and  C_7 
ROOT
ATOM      1  N   UNL d   1       1.524  -0.098  -0.446  0.00  0.00    -0.322 N 
ATOM      2  HN  UNL d   1       2.529  -0.144  -0.613  1.00  0.00     0.169 HD
ATOM      3  C   UNL d   1       0.690   1.007  -0.472  0.00  0.00     0.137 A 
ATOM      4  C   UNL d   1       0.692  -1.074  -0.150  0.00  0.00     0.152 A 
ATOM      5  N   UNL d   1      -0.605   0.711  -0.276  0.00  0.00    -0.242 N 
ATOM      6  HN  UNL d   1      -1.402   1.348  -0.279  1.00  0.00     0.196 HD
ATOM      7  O   UNL d   1      -0.607  -0.660  -0.070  0.00  0.00    -0.222 OA
ENDROOT
BRANCH   4   8
ATOM      8  C   UNL d   1       0.962  -2.420   0.445  0.00  0.00     0.066 C 
ATOM      9  C   UNL d   1       1.843  -2.234   1.690  0.00  0.00     0.033 C 
ATOM     10  C   UNL d   1       3.320  -2.293   1.329  0.00  0.00     0.127 C 
ATOM     11  N   UNL d   1       3.564  -3.605   0.774  0.00  0.00    -0.347 N 
ATOM     12  C   UNL d   1       4.229  -4.666   1.419  0.00  0.00     0.260 C 
ATOM     13  C   UNL d   1       2.973  -3.788  -0.547  0.00  0.00     0.127 C 
ATOM     14  O   UNL d   1       4.397  -5.734   0.817  0.00  0.00    -0.267 OA
ATOM     15  C   UNL d   1       1.463  -3.493  -0.543  0.00  0.00     0.033 C 
BRANCH  12  16
ATOM     16  C   UNL d   1       4.718  -4.482   2.789  0.00  0.00     0.072 A 
ATOM     17  S   UNL d   1       6.236  -5.180   3.212  0.00  0.00    -0.097 SA
ATOM     18  C   UNL d   1       6.179  -4.541   4.796  0.00  0.00     0.050 A 
ATOM     19  C   UNL d   1       5.016  -3.846   5.030  0.00  0.00     0.009 A 
ATOM     20  C   UNL d   1       4.154  -3.864   3.893  0.00  0.00     0.025 A 
ENDBRANCH  12  16
ENDBRANCH   4   8
BRANCH   3  21
ATOM     21  C   UNL d   1       1.187   2.374  -0.598  0.00  0.00     0.010 A 
ATOM     22  C   UNL d   1       2.468   2.625  -1.109  0.00  0.00     0.017 A 
ATOM     23  C   UNL d   1       2.948   3.937  -1.213  0.00  0.00     0.025 A 
ATOM     24  C   UNL d   1       2.153   5.004  -0.798  0.00  0.00     0.034 A 
ATOM     25  C   UNL d   1       0.883   4.774  -0.279  0.00  0.00     0.025 A 
ATOM     26 CL   UNL d   1       2.746   6.614  -0.924  0.00  0.00    -0.084 Cl
ATOM     27  C   UNL d   1       0.401   3.464  -0.181  0.00  0.00     0.017 A 
ENDBRANCH   3  21
TORSDOF 3
