REMARK  4 active torsions:
REMARK  status: ('A' for Active; 'I' for Inactive)
REMARK    1  A    between atoms: C_2  and  C_1 
REMARK       I    between atoms: N_10  and  C_2 
REMARK    2  A    between atoms: C_9  and  C_4 
REMARK    3  A    between atoms: C_12  and  C_6 
REMARK    4  A    between atoms: C_7  and  N_11 
ROOT
ATOM      1  C   UNL d   1      -2.739  -1.250   0.078  0.00  0.00     0.256 C 
ATOM      2  N   UNL d   1      -3.903  -0.482   0.187  0.00  0.00    -0.345 N 
ATOM      3  N   UNL d   1      -6.248   1.074   0.549  0.00  0.00    -0.363 N 
ATOM      4  O   UNL d   1      -2.504  -2.151   0.879  0.00  0.00    -0.267 OA
ATOM      5  C   UNL d   1      -4.508   0.263  -0.925  0.00  0.00     0.146 C 
ATOM      6  C   UNL d   1      -4.863  -0.819   1.252  0.00  0.00     0.146 C 
ATOM      7  C   UNL d   1      -5.665   0.416   1.735  0.00  0.00     0.144 C 
ATOM      8  C   UNL d   1      -5.212   1.528  -0.394  0.00  0.00     0.144 C 
ENDROOT
BRANCH   1   9
ATOM      9  C   UNL d   1      -1.811  -0.993  -1.020  0.00  0.00     0.063 A 
ATOM     10  C   UNL d   1      -1.060  -2.006  -1.707  0.00  0.00     0.053 A 
ATOM     11  C   UNL d   1      -0.271  -1.363  -2.639  0.00  0.00     0.062 A 
ATOM     12  O   UNL d   1      -0.488  -0.022  -2.564  0.00  0.00    -0.318 OA
ATOM     13  C   UNL d   1      -1.368   0.208  -1.555  0.00  0.00     0.065 A 
ATOM     14  C   UNL d   1      -1.601   1.646  -1.293  0.00  0.00     0.077 C 
BRANCH  11  15
ATOM     15  C   UNL d   1       0.776  -1.793  -3.631  0.00  0.00    -0.002 C 
ATOM     16  C   UNL d   1       1.066  -3.299  -3.520  0.00  0.00     0.021 C 
ATOM     17  C   UNL d   1       0.301  -1.482  -5.060  0.00  0.00     0.021 C 
ATOM     18  C   UNL d   1       2.077  -1.018  -3.344  0.00  0.00     0.021 C 
ENDBRANCH  11  15
ENDBRANCH   1   9
BRANCH   3  19
ATOM     19  C   UNL d   1      -7.382   1.842   0.700  0.00  0.00     0.118 A 
ATOM     20  C   UNL d   1      -8.289   2.030  -0.349  0.00  0.00     0.091 A 
ATOM     21  C   UNL d   1      -9.432   2.822  -0.118  0.00  0.00     0.021 A 
ATOM     22  C   UNL d   1      -9.671   3.361   1.132  0.00  0.00     0.018 A 
ATOM     23  C   UNL d   1      -8.748   3.096   2.121  0.00  0.00     0.089 A 
ATOM     24  N   UNL d   1      -7.630   2.359   1.929  0.00  0.00    -0.352 N 
ATOM     25  HN  UNL d   1      -6.983   2.193   2.699  1.00  0.00     0.166 HD
BRANCH  20  26
ATOM     26  C   UNL d   1      -8.157   1.410  -1.708  0.00  0.00     0.421 C 
ATOM     27  F   UNL d   1      -7.240   0.419  -1.856  0.00  0.00    -0.166 F 
ATOM     28  F   UNL d   1      -9.331   0.854  -2.136  0.00  0.00    -0.166 F 
ATOM     29  F   UNL d   1      -7.837   2.340  -2.657  0.00  0.00    -0.166 F 
ENDBRANCH  20  26
ENDBRANCH   3  19
TORSDOF 4
