REMARK  7 active torsions:
REMARK  status: ('A' for Active; 'I' for Inactive)
REMARK    1  A    between atoms: N_8  and  C_1 
REMARK    2  A    between atoms: C_6  and  C_5 
REMARK    3  A    between atoms: C_10  and  C_6 
REMARK    4  A    between atoms: C_7  and  O_13 
REMARK    5  A    between atoms: C_15  and  N_8 
REMARK       I    between atoms: N_11  and  C_10 
REMARK    6  A    between atoms: C_19  and  N_11 
REMARK    7  A    between atoms: O_13  and  C_20 
ROOT
ATOM      1  C   UNL d   1       1.194   0.846   0.305  0.00  0.00     0.148 C 
ATOM      2  N   UNL d   1       1.394  -0.487   0.412  0.00  0.00    -0.306 N 
ATOM      3  C   UNL d   1       0.318  -1.272   0.729  0.00  0.00     0.238 C 
ATOM      4  S   UNL d   1      -0.514   1.217   0.368  0.00  0.00    -0.079 SA
ATOM      5  C   UNL d   1      -0.992  -0.548   0.480  0.00  0.00     0.156 C 
ATOM      6  O   UNL d   1       0.436  -2.407   1.168  0.00  0.00    -0.272 OA
ATOM      7  H   UNL d   1       2.321  -0.879   0.507  0.00  0.00     0.171 HD
ENDROOT
BRANCH   5   8
ATOM      8  C   UNL d   1      -2.018  -0.833   1.565  0.00  0.00     0.128 C 
BRANCH   8   9
ATOM      9  C   UNL d   1      -3.455  -0.708   1.092  0.00  0.00     0.223 C 
ATOM     10  N   UNL d   1      -3.818   0.567   0.695  0.00  0.00    -0.327 N 
ATOM     11  H   UNL d   1      -3.078   1.256   0.603  0.00  0.00     0.169 HD
ATOM     12  O   UNL d   1      -4.190  -1.690   1.109  0.00  0.00    -0.273 OA
BRANCH  10  13
ATOM     13  C   UNL d   1      -5.118   1.006   0.351  0.00  0.00     0.034 A 
ATOM     14  C   UNL d   1      -6.277   0.254   0.559  0.00  0.00     0.032 A 
ATOM     15  C   UNL d   1      -7.544   0.763   0.227  0.00  0.00     0.039 A 
ATOM     16  C   UNL d   1      -7.670   2.045  -0.301  0.00  0.00     0.078 A 
ATOM     17  C   UNL d   1      -6.511   2.791  -0.531  0.00  0.00     0.039 A 
ATOM     18  C   UNL d   1      -5.248   2.283  -0.199  0.00  0.00     0.032 A 
BRANCH  16  19
ATOM     19  O   UNL d   1      -8.829   2.688  -0.620  0.00  0.00    -0.255 OA
BRANCH  19  20
ATOM     20  C   UNL d   1     -10.062   2.080  -0.269  0.00  0.00     0.530 C 
ATOM     21  F   UNL d   1     -10.067   1.637   1.006  0.00  0.00    -0.144 F 
ATOM     22  F   UNL d   1     -11.043   3.003  -0.387  0.00  0.00    -0.144 F 
ATOM     23  F   UNL d   1     -10.342   1.058  -1.104  0.00  0.00    -0.144 F 
ENDBRANCH  19  20
ENDBRANCH  16  19
ENDBRANCH  10  13
ENDBRANCH   8   9
ENDBRANCH   5   8
BRANCH   1  24
ATOM     24  N   UNL d   1       2.084   1.770   0.201  0.00  0.00    -0.337 N 
ATOM     25  HN  UNL d   1       1.792   2.744   0.126  1.00  0.00     0.168 HD
BRANCH  24  26
ATOM     26  C   UNL d   1       3.454   1.453   0.188  0.00  0.00     0.034 A 
ATOM     27  C   UNL d   1       4.237   1.833  -0.903  0.00  0.00     0.030 A 
ATOM     28  C   UNL d   1       5.602   1.525  -0.947  0.00  0.00     0.009 A 
ATOM     29  C   UNL d   1       6.205   0.822   0.102  0.00  0.00    -0.062 A 
ATOM     30  C   UNL d   1       5.433   0.473   1.214  0.00  0.00     0.009 A 
ATOM     31  C   UNL d   1       7.667   0.490   0.048  0.00  0.00     0.048 C 
ATOM     32  C   UNL d   1       4.075   0.807   1.263  0.00  0.00     0.030 A 
ENDBRANCH  24  26
ENDBRANCH   1  24
TORSDOF 7
