REMARK  6 active torsions:
REMARK  status: ('A' for Active; 'I' for Inactive)
REMARK    1  A    between atoms: O_3  and  C_1 
REMARK       I    between atoms: N_8  and  C_1 
REMARK    2  A    between atoms: C_2  and  O_3 
REMARK    3  A    between atoms: C_4  and  C_2 
REMARK    4  A    between atoms: C_12  and  N_8 
REMARK    5  A    between atoms: C_10  and  C_11 
REMARK    6  A    between atoms: C_11  and  C_12 
ROOT
ATOM      1  C   UNL d   1       1.013   0.207  -0.148  0.00  0.00     0.361 C 
ATOM      2  O   UNL d   1       0.356  -0.213  -1.089  0.00  0.00    -0.238 OA
ATOM      3  N   UNL d   1       2.363   0.160  -0.058  0.00  0.00    -0.337 N 
ATOM      4  H   UNL d   1       2.787   0.654   0.717  0.00  0.00     0.164 HD
ENDROOT
BRANCH   3   5
ATOM      5  C   UNL d   1       3.228  -0.432  -1.064  0.00  0.00     0.131 C 
BRANCH   5   6
ATOM      6  C   UNL d   1       3.691   0.562  -2.131  0.00  0.00     0.076 C 
BRANCH   6   7
ATOM      7  C   UNL d   1       4.456   1.708  -1.520  0.00  0.00     0.010 A 
ATOM      8  N   UNL d   1       5.605   1.404  -0.868  0.00  0.00    -0.369 N 
ATOM      9  C   UNL d   1       6.257   2.413  -0.251  0.00  0.00     0.088 A 
ATOM     10  HN  UNL d   1       5.964   0.449  -0.845  1.00  0.00     0.165 HD
ATOM     11  C   UNL d   1       5.814   3.724  -0.245  0.00  0.00     0.017 A 
ATOM     12  C   UNL d   1       4.643   4.023  -0.929  0.00  0.00     0.003 A 
ATOM     13  C   UNL d   1       3.954   3.006  -1.582  0.00  0.00     0.025 A 
ENDBRANCH   6   7
ENDBRANCH   5   6
ENDBRANCH   3   5
BRANCH   1  14
ATOM     14  O   UNL d   1       0.509   0.828   0.946  0.00  0.00    -0.286 OA
BRANCH  14  15
ATOM     15  C   UNL d   1      -0.919   0.998   1.041  0.00  0.00     0.125 C 
ATOM     16  C   UNL d   1      -1.610  -0.359   1.266  0.00  0.00     0.055 C 
ATOM     17  C   UNL d   1      -1.160   1.859   2.292  0.00  0.00     0.055 C 
BRANCH  15  18
ATOM     18  C   UNL d   1      -1.538   1.780  -0.143  0.00  0.00     0.157 C 
ATOM     19  O   UNL d   1      -2.674   1.552  -0.568  0.00  0.00    -0.295 OA
ATOM     20  C   UNL d   1      -0.728   2.912  -0.731  0.00  0.00     0.094 C 
ENDBRANCH  15  18
ENDBRANCH  14  15
ENDBRANCH   1  14
TORSDOF 6
