REMARK  2 active torsions:
REMARK  status: ('A' for Active; 'I' for Inactive)
REMARK    1  A    between atoms: N_2  and  C_3 
REMARK    2  A    between atoms: N_14  and  C_12 
ROOT
ATOM      1  C   UNL d   1      -0.622  -1.336  -0.037  0.00  0.00     0.073 A 
ATOM      2  C   UNL d   1      -1.413  -0.175  -0.107  0.00  0.00     0.059 A 
ATOM      3  C   UNL d   1      -1.137  -2.675  -0.112  0.00  0.00     0.102 C 
ATOM      4  N   UNL d   1      -1.517  -3.769  -0.174  0.00  0.00    -0.191 NA
ATOM      5  C   UNL d   1      -0.777   1.079  -0.108  0.00  0.00     0.033 A 
ATOM      6  C   UNL d   1       0.781  -1.214   0.011  0.00  0.00     0.048 A 
ATOM      7  C   UNL d   1       1.410   0.030  -0.065  0.00  0.00     0.007 A 
ATOM      8  C   UNL d   1       0.618   1.174  -0.060  0.00  0.00     0.025 A 
ENDROOT
BRANCH   2   9
ATOM      9  N   UNL d   1      -2.838  -0.205  -0.190  0.00  0.00    -0.331 N 
ATOM     10  C   UNL d   1      -3.623   0.746  -0.819  0.00  0.00     0.096 A 
ATOM     11  C   UNL d   1      -4.943   0.354  -0.766  0.00  0.00     0.019 A 
ATOM     12  C   UNL d   1      -4.989  -0.847  -0.033  0.00  0.00     0.019 A 
ATOM     13  C   UNL d   1      -3.696  -1.153   0.331  0.00  0.00     0.096 A 
ENDBRANCH   2   9
BRANCH   7  14
ATOM     14  N   UNL d   1       2.796   0.130   0.076  0.00  0.00    -0.303 NA
ATOM     15  H   UNL d   1       3.308  -0.687  -0.246  0.00  0.00     0.124 HD
ATOM     16  H   UNL d   1       3.188   0.990  -0.296  0.00  0.00     0.124 HD
ENDBRANCH   7  14
TORSDOF 2
