REMARK  5 active torsions:
REMARK  status: ('A' for Active; 'I' for Inactive)
REMARK    1  A    between atoms: C_12  and  C_1 
REMARK    2  A    between atoms: C_7  and  O_10 
REMARK    3  A    between atoms: C_8  and  C_7 
REMARK    4  A    between atoms: O_10  and  C_14 
REMARK    5  A    between atoms: C_21  and  C_12 
ROOT
ATOM      1  C   UNL d   1      -1.800  -1.040  -0.000  0.00  0.00     0.029 C 
ATOM      2  C   UNL d   1      -2.011   0.434  -0.068  0.00  0.00     0.295 C 
ATOM      3  C   UNL d   1      -0.551  -1.561   0.004  0.00  0.00    -0.036 C 
ATOM      4  O   UNL d   1      -0.927   1.215  -0.412  0.00  0.00    -0.274 OA
ATOM      5  C   UNL d   1       0.372   0.706  -0.305  0.00  0.00     0.093 A 
ATOM      6  C   UNL d   1       0.607  -0.641  -0.044  0.00  0.00     0.005 A 
ATOM      7  C   UNL d   1       1.398   1.642  -0.418  0.00  0.00     0.075 A 
ATOM      8  C   UNL d   1       1.944  -1.034   0.135  0.00  0.00     0.017 A 
ATOM      9  C   UNL d   1       2.710   1.231  -0.221  0.00  0.00     0.082 A 
ATOM     10  O   UNL d   1      -3.114   0.944   0.106  0.00  0.00    -0.259 OA
ATOM     11  C   UNL d   1       2.994  -0.101   0.064  0.00  0.00     0.038 A 
ATOM     12  C   UNL d   1      -0.253  -3.039   0.020  0.00  0.00     0.050 C 
ENDROOT
BRANCH   1  13
ATOM     13  C   UNL d   1      -3.089  -1.833  -0.081  0.00  0.00     0.084 C 
BRANCH  13  14
ATOM     14  C   UNL d   1      -3.679  -2.316   1.230  0.00  0.00    -0.054 A 
ATOM     15  C   UNL d   1      -4.109  -1.415   2.219  0.00  0.00     0.010 A 
ATOM     16  C   UNL d   1      -4.762  -1.874   3.367  0.00  0.00     0.043 A 
ATOM     17  C   UNL d   1      -4.992  -3.233   3.529  0.00  0.00     0.116 A 
ATOM     18  C   UNL d   1      -4.571  -4.145   2.570  0.00  0.00     0.043 A 
ATOM     19  F   UNL d   1      -5.642  -3.670   4.615  0.00  0.00    -0.206 F 
ATOM     20  C   UNL d   1      -3.916  -3.688   1.424  0.00  0.00     0.010 A 
ENDBRANCH  13  14
ENDBRANCH   1  13
BRANCH   9  21
ATOM     21  O   UNL d   1       3.662   2.273  -0.212  0.00  0.00    -0.273 OA
BRANCH  21  22
ATOM     22  C   UNL d   1       5.041   2.124  -0.367  0.00  0.00     0.322 C 
ATOM     23  O   UNL d   1       5.613   1.083  -0.678  0.00  0.00    -0.257 OA
BRANCH  22  24
ATOM     24  C   UNL d   1       5.691   3.384  -0.093  0.00  0.00     0.150 A 
ATOM     25  O   UNL d   1       4.942   4.483   0.254  0.00  0.00    -0.317 OA
ATOM     26  C   UNL d   1       5.802   5.509   0.475  0.00  0.00     0.143 A 
ATOM     27  C   UNL d   1       7.099   5.101   0.278  0.00  0.00     0.027 A 
ATOM     28  C   UNL d   1       7.030   3.735  -0.091  0.00  0.00     0.045 A 
ENDBRANCH  22  24
ENDBRANCH  21  22
ENDBRANCH   9  21
TORSDOF 5
