REMARK  3 active torsions:
REMARK  status: ('A' for Active; 'I' for Inactive)
REMARK    1  A    between atoms: C_2  and  N_1 
REMARK    2  A    between atoms: C_6  and  N_1 
REMARK    3  A    between atoms: C_9  and  C_6 
ROOT
ATOM      1  N   UNL d   1       3.274   0.424  -2.461  0.00  0.00    -0.195 NA
ATOM      2  C   UNL d   1       2.920   0.275  -1.364  0.00  0.00     0.084 C 
ATOM      3  C   UNL d   1       2.452   0.096   0.041  0.00  0.00     0.201 C 
ENDROOT
BRANCH   3   4
ATOM      4  N   UNL d   1       0.976   0.073   0.191  0.00  0.00    -0.271 NA
ATOM      5  H   UNL d   1       0.625   1.025   0.257  0.00  0.00     0.129 HD
BRANCH   4   6
ATOM      6  C   UNL d   1       0.153  -0.717  -0.627  0.00  0.00     0.031 A 
ATOM      7  C   UNL d   1       0.370  -2.063  -0.990  0.00  0.00     0.056 A 
ATOM      8  C   UNL d   1      -0.533  -2.745  -1.819  0.00  0.00     0.049 A 
ATOM      9 CL   UNL d   1       1.691  -3.006  -0.391  0.00  0.00    -0.082 Cl
ATOM     10  C   UNL d   1      -1.686  -2.111  -2.266  0.00  0.00     0.035 A 
ATOM     11  C   UNL d   1      -1.962  -0.809  -1.874  0.00  0.00     0.026 A 
ATOM     12 CL   UNL d   1      -2.788  -2.949  -3.286  0.00  0.00    -0.084 Cl
ATOM     13  C   UNL d   1      -1.056  -0.128  -1.056  0.00  0.00     0.027 A 
ENDBRANCH   4   6
ENDBRANCH   3   4
BRANCH   3  14
ATOM     14  C   UNL d   1       2.966   1.220   0.946  0.00  0.00    -0.027 A 
ATOM     15  C   UNL d   1       2.728   2.573   0.635  0.00  0.00     0.010 A 
ATOM     16  C   UNL d   1       3.140   3.587   1.499  0.00  0.00     0.001 A 
ATOM     17  C   UNL d   1       3.803   3.270   2.682  0.00  0.00     0.000 A 
ATOM     18  C   UNL d   1       4.055   1.937   3.002  0.00  0.00     0.001 A 
ATOM     19  C   UNL d   1       3.636   0.918   2.144  0.00  0.00     0.010 A 
ENDBRANCH   3  14
TORSDOF 3
