REMARK  3 active torsions:
REMARK  status: ('A' for Active; 'I' for Inactive)
REMARK    1  A    between atoms: N_12  and  C_3 
REMARK    2  A    between atoms: C_19  and  C_5 
REMARK    3  A    between atoms: N_6  and  N_12 
ROOT
ATOM      1  N   UNL d   1       0.187  -2.704  -0.152  0.00  0.00    -0.280 N 
ATOM      2  H   UNL d   1      -0.694  -3.184  -0.301  0.00  0.00     0.189 HD
ENDROOT
BRANCH   1   3
ATOM      3  N   UNL d   1       1.361  -3.375  -0.220  0.00  0.00    -0.306 N 
ATOM      4  C   UNL d   1       1.450  -4.636   0.048  0.00  0.00     0.012 C 
ATOM      5  C   UNL d   1       2.854  -5.228   0.021  0.00  0.00     0.034 C 
ATOM      6  C   UNL d   1       0.363  -5.601   0.490  0.00  0.00     0.034 C 
ATOM      7  C   UNL d   1       3.163  -5.631   1.467  0.00  0.00     0.015 C 
ATOM      8  C   UNL d   1       2.839  -6.438  -0.913  0.00  0.00     0.015 C 
ATOM      9  C   UNL d   1       2.131  -6.667   1.956  0.00  0.00    -0.013 C 
ATOM     10  C   UNL d   1       0.720  -6.038   1.921  0.00  0.00     0.015 C 
ATOM     11  C   UNL d   1       2.171  -7.888   1.022  0.00  0.00     0.009 C 
ATOM     12  C   UNL d   1       1.813  -7.472  -0.416  0.00  0.00    -0.013 C 
ATOM     13  C   UNL d   1       0.412  -6.827  -0.439  0.00  0.00     0.015 C 
ATOM     14  HN  UNL d   1       2.204  -2.868  -0.492  1.00  0.00     0.186 HD
ENDBRANCH   1   3
BRANCH   1  15
ATOM     15  C   UNL d   1       0.198  -1.348  -0.290  0.00  0.00     0.163 A 
ATOM     16  N   UNL d   1       1.280  -0.604  -0.218  0.00  0.00    -0.334 N 
ATOM     17  C   UNL d   1       1.000   0.730  -0.436  0.00  0.00     0.051 A 
ATOM     18  HN  UNL d   1       2.213  -0.968  -0.024  1.00  0.00     0.168 HD
ATOM     19  C   UNL d   1      -0.330   0.995  -0.689  0.00  0.00     0.083 A 
ATOM     20  S   UNL d   1      -1.245  -0.460  -0.603  0.00  0.00    -0.062 SA
BRANCH  17  21
ATOM     21  C   UNL d   1       2.075   1.719  -0.417  0.00  0.00    -0.009 A 
ATOM     22  C   UNL d   1       3.396   1.294  -0.633  0.00  0.00     0.014 A 
ATOM     23  C   UNL d   1       4.457   2.204  -0.604  0.00  0.00     0.001 A 
ATOM     24  C   UNL d   1       4.210   3.549  -0.350  0.00  0.00     0.000 A 
ATOM     25  C   UNL d   1       2.905   3.986  -0.124  0.00  0.00     0.001 A 
ATOM     26  C   UNL d   1       1.842   3.076  -0.158  0.00  0.00     0.014 A 
ENDBRANCH  17  21
ENDBRANCH   1  15
TORSDOF 3
