REMARK  12 active torsions:
REMARK  status: ('A' for Active; 'I' for Inactive)
REMARK    1  A    between atoms: O_22  and  C_1 
REMARK    2  A    between atoms: C_6  and  C_2 
REMARK    3  A    between atoms: O_25  and  C_3 
REMARK    4  A    between atoms: O_24  and  C_4 
REMARK    5  A    between atoms: C_12  and  C_6 
REMARK    6  A    between atoms: C_14  and  C_6 
REMARK    7  A    between atoms: C_10  and  C_12 
REMARK    8  A    between atoms: O_26  and  C_10 
REMARK    9  A    between atoms: C_17  and  C_14 
REMARK   10  A    between atoms: N_16  and  C_23 
REMARK   11  A    between atoms: C_19  and  N_16 
REMARK   12  A    between atoms: C_23  and  C_17 
ROOT
ATOM      1  C   UNL d   1      -2.781   0.502  -0.309  0.00  0.00     0.035 C 
ENDROOT
BRANCH   1   2
ATOM      2  C   UNL d   1      -1.304   0.164  -0.127  0.00  0.00    -0.048 C 
ATOM      3  C   UNL d   1      -0.353   1.176   0.055  0.00  0.00     0.047 C 
ATOM      4  C   UNL d   1       1.024   0.897   0.066  0.00  0.00     0.104 C 
ATOM      5  C   UNL d   1       1.471  -0.433  -0.034  0.00  0.00     0.135 C 
ATOM      6  C   UNL d   1       0.518  -1.468  -0.042  0.00  0.00     0.104 C 
ATOM      7  C   UNL d   1      -0.839  -1.155  -0.153  0.00  0.00     0.047 C 
BRANCH   4   8
ATOM      8  O   UNL d   1       1.789   2.023   0.230  0.00  0.00    -0.353 OA
ATOM      9  C   UNL d   1       3.047   2.045  -0.431  0.00  0.00     0.210 C 
ENDBRANCH   4   8
BRANCH   5  10
ATOM     10  O   UNL d   1       2.819  -0.683  -0.010  0.00  0.00    -0.351 OA
ATOM     11  C   UNL d   1       3.275  -1.606  -1.003  0.00  0.00     0.210 C 
ENDBRANCH   5  10
BRANCH   6  12
ATOM     12  O   UNL d   1       0.958  -2.768   0.066  0.00  0.00    -0.353 OA
ATOM     13  C   UNL d   1      -0.005  -3.725   0.505  0.00  0.00     0.210 C 
ENDBRANCH   6  12
ENDBRANCH   1   2
BRANCH   1  14
ATOM     14  C   UNL d   1      -2.995   1.427  -1.529  0.00  0.00     0.119 C 
BRANCH  14  15
ATOM     15  C   UNL d   1      -2.611   0.804  -2.846  0.00  0.00     0.140 C 
ATOM     16  O   UNL d   1      -1.504   0.885  -3.349  0.00  0.00    -0.650 OA
BRANCH  15  17
ATOM     17  O   UNL d   1      -3.622   0.135  -3.454  0.00  0.00    -0.776 OA
ATOM     18  H   UNL d   1      -4.489   0.114  -2.953  0.00  0.00     0.167 HD
ENDBRANCH  15  17
ENDBRANCH  14  15
ENDBRANCH   1  14
BRANCH   1  19
ATOM     19  C   UNL d   1      -3.680  -0.755  -0.350  0.00  0.00     0.089 C 
BRANCH  19  20
ATOM     20  C   UNL d   1      -5.135  -0.422  -0.528  0.00  0.00     0.140 C 
ATOM     21  O   UNL d   1      -5.595  -0.267  -1.663  0.00  0.00    -0.297 OA
BRANCH  20  22
ATOM     22  C   UNL d   1      -5.941  -0.173   0.723  0.00  0.00     0.170 C 
BRANCH  22  23
ATOM     23  N   UNL d   1      -6.314  -1.427   1.407  0.00  0.00    -0.286 NA
ATOM     24  H   UNL d   1      -6.810  -2.053   0.767  0.00  0.00     0.128 HD
BRANCH  23  25
ATOM     25  C   UNL d   1      -7.160  -1.157   2.509  0.00  0.00     0.011 C 
ATOM     26  C   UNL d   1      -8.176  -2.050   2.869  0.00  0.00     0.063 C 
ATOM     27  C   UNL d   1      -9.184  -1.631   3.741  0.00  0.00     0.103 C 
ATOM     28  O   UNL d   1      -9.988  -2.605   4.263  0.00  0.00    -0.348 OA
ATOM     29  C   UNL d   1      -9.189  -0.311   4.192  0.00  0.00     0.102 C 
ATOM     30  C   UNL d   1     -11.386  -2.468   4.042  0.00  0.00     0.178 C 
ATOM     31  C   UNL d   1     -12.017  -1.253   4.700  0.00  0.00     0.053 C 
ATOM     32  C   UNL d   1     -11.479   0.007   4.059  0.00  0.00     0.178 C 
ATOM     33  O   UNL d   1     -10.258   0.350   4.722  0.00  0.00    -0.348 OA
ATOM     34  C   UNL d   1      -8.027   0.436   4.095  0.00  0.00     0.041 C 
ATOM     35  C   UNL d   1      -6.983  -0.027   3.311  0.00  0.00     0.026 C 
ENDBRANCH  23  25
ENDBRANCH  22  23
ENDBRANCH  20  22
ENDBRANCH  19  20
ENDBRANCH   1  19
TORSDOF 12
