REMARK  6 active torsions:
REMARK  status: ('A' for Active; 'I' for Inactive)
REMARK    1  A    between atoms: C_3  and  C_1 
REMARK    2  A    between atoms: N_4  and  C_2 
REMARK       I    between atoms: C_5  and  N_13 
REMARK       I    between atoms: N_10  and  C_5 
REMARK    3  A    between atoms: C_7  and  N_6 
REMARK    4  A    between atoms: C_19  and  N_10 
REMARK    5  A    between atoms: N_13  and  C_26 
REMARK    6  A    between atoms: O_30  and  C_27 
ROOT
ATOM      1  C   UNL d   1      -3.194   6.212   0.981  0.00  0.00     0.103 A 
ATOM      2  N   UNL d   1      -3.841   6.482   2.139  0.00  0.00    -0.350 N 
ATOM      3  HN  UNL d   1      -3.594   5.992   2.999  1.00  0.00     0.166 HD
ATOM      4  C   UNL d   1      -3.486   6.963  -0.153  0.00  0.00     0.051 A 
ATOM      5  C   UNL d   1      -4.826   7.420   2.135  0.00  0.00     0.119 A 
ATOM      6  C   UNL d   1      -5.248   8.113   1.012  0.00  0.00     0.051 A 
ATOM      7  C   UNL d   1      -4.504   7.910  -0.139  0.00  0.00     0.035 A 
ENDROOT
BRANCH   1   8
ATOM      8  N   UNL d   1      -2.210   5.221   0.969  0.00  0.00    -0.364 N 
ATOM      9  C   UNL d   1      -1.724   4.739  -0.344  0.00  0.00     0.144 C 
ATOM     10  C   UNL d   1      -0.478   3.849  -0.167  0.00  0.00     0.144 C 
ATOM     11  N   UNL d   1      -0.844   2.724   0.711  0.00  0.00    -0.363 N 
ATOM     12  C   UNL d   1      -1.173   3.221   2.065  0.00  0.00     0.144 C 
ATOM     13  C   UNL d   1      -2.432   4.125   1.954  0.00  0.00     0.144 C 
BRANCH  11  14
ATOM     14  C   UNL d   1      -0.069   1.586   0.599  0.00  0.00     0.118 A 
ATOM     15  C   UNL d   1      -0.159   0.758  -0.524  0.00  0.00     0.091 A 
ATOM     16  C   UNL d   1       0.632  -0.411  -0.562  0.00  0.00     0.021 A 
ATOM     17  C   UNL d   1       1.459  -0.732   0.494  0.00  0.00     0.018 A 
ATOM     18  C   UNL d   1       1.475   0.133   1.571  0.00  0.00     0.089 A 
ATOM     19  N   UNL d   1       0.736   1.262   1.638  0.00  0.00    -0.352 N 
ATOM     20  HN  UNL d   1       0.784   1.862   2.461  1.00  0.00     0.166 HD
BRANCH  15  21
ATOM     21  C   UNL d   1      -1.079   0.991  -1.688  0.00  0.00     0.421 C 
ATOM     22  F   UNL d   1      -1.908   2.066  -1.639  0.00  0.00    -0.166 F 
ATOM     23  F   UNL d   1      -0.376   1.144  -2.852  0.00  0.00    -0.166 F 
ATOM     24  F   UNL d   1      -1.903  -0.077  -1.913  0.00  0.00    -0.166 F 
ENDBRANCH  15  21
ENDBRANCH  11  14
ENDBRANCH   1   8
BRANCH   6  25
ATOM     25  N   UNL d   1      -6.414   8.912   1.054  0.00  0.00    -0.307 N 
ATOM     26  C   UNL d   1      -7.052   9.437  -0.063  0.00  0.00     0.325 C 
ATOM     27  N   UNL d   1      -8.270  10.012   0.256  0.00  0.00    -0.309 N 
ATOM     28  O   UNL d   1      -6.606   9.371  -1.196  0.00  0.00    -0.247 OA
ATOM     29  H   UNL d   1      -8.680   9.773   1.143  0.00  0.00     0.170 HD
ATOM     30  H   UNL d   1      -6.868   9.015   1.952  0.00  0.00     0.170 HD
BRANCH  27  31
ATOM     31  C   UNL d   1      -9.065  10.776  -0.630  0.00  0.00     0.039 A 
ATOM     32  C   UNL d   1      -8.602  11.241  -1.870  0.00  0.00     0.066 A 
ATOM     33  C   UNL d   1      -9.376  12.090  -2.662  0.00  0.00     0.070 A 
ATOM     34  C   UNL d   1     -10.651  12.441  -2.228  0.00  0.00     0.037 A 
ATOM     35  C   UNL d   1     -11.146  11.955  -1.019  0.00  0.00     0.005 A 
ATOM     36  C   UNL d   1     -10.353  11.130  -0.217  0.00  0.00     0.030 A 
BRANCH  33  37
ATOM     37  O   UNL d   1      -8.979  12.647  -3.848  0.00  0.00    -0.356 OA
ATOM     38  C   UNL d   1      -7.653  12.360  -4.285  0.00  0.00     0.210 C 
ENDBRANCH  33  37
ENDBRANCH  27  31
ENDBRANCH   6  25
TORSDOF 6
