REMARK  4 active torsions:
REMARK  status: ('A' for Active; 'I' for Inactive)
REMARK    1  A    between atoms: C_2  and  C_1 
REMARK       I    between atoms: N_8  and  C_2 
REMARK    2  A    between atoms: C_7  and  C_5 
REMARK    3  A    between atoms: C_17  and  C_6 
REMARK    4  A    between atoms: C_12  and  N_8 
ROOT
ATOM      1  C   UNL d   1       0.210  -2.581   0.113  0.00  0.00     0.261 C 
ATOM      2  N   UNL d   1       1.492  -3.015   0.393  0.00  0.00    -0.321 N 
ATOM      3  O   UNL d   1      -0.714  -3.316  -0.210  0.00  0.00    -0.267 OA
ATOM      4  H   UNL d   1       2.153  -2.325   0.723  0.00  0.00     0.169 HD
ENDROOT
BRANCH   1   5
ATOM      5  C   UNL d   1       0.017  -1.137   0.248  0.00  0.00     0.093 A 
ATOM      6  C   UNL d   1      -1.188  -0.419   0.574  0.00  0.00     0.083 A 
ATOM      7  N   UNL d   1      -0.965   0.906   0.514  0.00  0.00    -0.259 N 
ATOM      8  O   UNL d   1       0.354   1.075   0.206  0.00  0.00    -0.241 OA
ATOM      9  HN  UNL d   1      -1.652   1.644   0.669  1.00  0.00     0.195 HD
ATOM     10  C   UNL d   1       0.953  -0.131   0.060  0.00  0.00     0.090 A 
ATOM     11  C   UNL d   1       2.392  -0.053  -0.268  0.00  0.00     0.080 C 
BRANCH   6  12
ATOM     12  C   UNL d   1      -2.509  -0.890   1.006  0.00  0.00    -0.006 A 
ATOM     13  C   UNL d   1      -3.655  -0.136   0.699  0.00  0.00     0.014 A 
ATOM     14  C   UNL d   1      -4.909  -0.497   1.202  0.00  0.00     0.001 A 
ATOM     15  C   UNL d   1      -5.034  -1.621   2.013  0.00  0.00     0.000 A 
ATOM     16  C   UNL d   1      -3.910  -2.386   2.315  0.00  0.00     0.001 A 
ATOM     17  C   UNL d   1      -2.655  -2.022   1.818  0.00  0.00     0.014 A 
ENDBRANCH   6  12
ENDBRANCH   1   5
BRANCH   2  18
ATOM     18  C   UNL d   1       2.025  -4.326   0.328  0.00  0.00     0.057 A 
ATOM     19  C   UNL d   1       1.277  -5.459  -0.010  0.00  0.00     0.049 A 
ATOM     20  C   UNL d   1       1.863  -6.747  -0.031  0.00  0.00     0.071 A 
ATOM     21  C   UNL d   1       3.222  -6.877   0.277  0.00  0.00     0.050 A 
ATOM     22  C   UNL d   1       3.986  -5.756   0.601  0.00  0.00     0.051 A 
ATOM     23 CL   UNL d   1       4.024  -8.406   0.279  0.00  0.00    -0.083 Cl
ATOM     24  C   UNL d   1       3.390  -4.496   0.630  0.00  0.00     0.062 A 
ATOM     25 CL   UNL d   1       4.386  -3.141   1.043  0.00  0.00    -0.082 Cl
BRANCH  20  26
ATOM     26  C   UNL d   1       1.023  -7.956  -0.363  0.00  0.00     0.419 C 
ATOM     27  F   UNL d   1      -0.277  -7.647  -0.645  0.00  0.00    -0.166 F 
ATOM     28  F   UNL d   1       1.477  -8.635  -1.450  0.00  0.00    -0.166 F 
ATOM     29  F   UNL d   1       0.966  -8.852   0.659  0.00  0.00    -0.166 F 
ENDBRANCH  20  26
ENDBRANCH   2  18
TORSDOF 4
