REMARK  6 active torsions:
REMARK  status: ('A' for Active; 'I' for Inactive)
REMARK    1  A    between atoms: N_2  and  S_1 
REMARK    2  A    between atoms: C_4  and  S_1 
REMARK    3  A    between atoms: N_3  and  C_5 
REMARK    4  A    between atoms: C_20  and  C_6 
REMARK    5  A    between atoms: C_11  and  O_19 
REMARK    6  A    between atoms: O_19  and  C_20 
ROOT
ATOM      1  N   UNL d   1       0.217   1.361   0.310  0.00  0.00    -0.290 N 
ATOM      2  C   UNL d   1      -1.248   1.417   0.107  0.00  0.00     0.181 C 
ATOM      3  S   UNL d   1      -1.486   2.650  -1.214  0.00  0.00    -0.139 SA
ATOM      4  C   UNL d   1       0.851   2.689   0.127  0.00  0.00     0.147 C 
ATOM      5  C   UNL d   1       0.011   3.565  -0.798  0.00  0.00     0.097 C 
ENDROOT
BRANCH   2   6
ATOM      6  C   UNL d   1      -1.905   1.898   1.417  0.00  0.00     0.212 C 
BRANCH   6   7
ATOM      7  O   UNL d   1      -3.332   1.992   1.302  0.00  0.00    -0.346 OA
BRANCH   7   8
ATOM      8  C   UNL d   1      -3.969   2.571   2.370  0.00  0.00     0.101 A 
ATOM      9  C   UNL d   1      -5.270   2.167   2.695  0.00  0.00     0.136 A 
ATOM     10  C   UNL d   1      -5.987   2.748   3.756  0.00  0.00     0.045 A 
ATOM     11  C   UNL d   1      -5.399   3.766   4.513  0.00  0.00    -0.059 A 
ATOM     12  C   UNL d   1      -4.115   4.199   4.179  0.00  0.00     0.009 A 
ATOM     13  C   UNL d   1      -6.136   4.395   5.657  0.00  0.00     0.048 C 
ATOM     14  C   UNL d   1      -3.415   3.618   3.115  0.00  0.00     0.040 A 
BRANCH   9  15
ATOM     15  N   UNL d   1      -5.917   1.110   1.942  0.00  0.00    -0.113 N 
ATOM     16  O   UNL d   1      -5.367   0.003   1.921  0.00  0.00    -0.532 OA
ATOM     17  O   UNL d   1      -7.014   1.381   1.428  0.00  0.00    -0.532 OA
ENDBRANCH   9  15
ENDBRANCH   7   8
ENDBRANCH   6   7
ENDBRANCH   2   6
BRANCH   1  18
ATOM     18  S   UNL d   1       1.039  -0.010  -0.226  0.00  0.00     0.262 S 
ATOM     19  O   UNL d   1       0.269  -1.173   0.162  0.00  0.00    -0.200 OA
ATOM     20  O   UNL d   1       2.428   0.129   0.148  0.00  0.00    -0.200 OA
BRANCH  18  21
ATOM     21  C   UNL d   1       0.945   0.141  -1.992  0.00  0.00     0.083 A 
ATOM     22  C   UNL d   1       1.924   0.868  -2.673  0.00  0.00     0.049 A 
ATOM     23  C   UNL d   1       1.776   1.083  -4.040  0.00  0.00     0.037 A 
ATOM     24 CL   UNL d   1       2.936   2.037  -4.878  0.00  0.00    -0.084 Cl
ATOM     25  C   UNL d   1       0.683   0.559  -4.729  0.00  0.00     0.047 A 
ATOM     26  C   UNL d   1      -0.257  -0.210  -4.043  0.00  0.00     0.037 A 
ATOM     27  C   UNL d   1      -0.128  -0.437  -2.677  0.00  0.00     0.049 A 
ATOM     28 CL   UNL d   1      -1.608  -0.856  -4.887  0.00  0.00    -0.084 Cl
ENDBRANCH  18  21
ENDBRANCH   1  18
TORSDOF 6
