REMARK  7 active torsions:
REMARK  status: ('A' for Active; 'I' for Inactive)
REMARK    1  A    between atoms: C_4  and  N_1 
REMARK    2  A    between atoms: C_3  and  C_2 
REMARK    3  A    between atoms: O_15  and  C_3 
REMARK    4  A    between atoms: C_10  and  C_6 
REMARK    5  A    between atoms: S_8  and  C_12 
REMARK    6  A    between atoms: C_9  and  S_8 
REMARK    7  A    between atoms: C_12  and  C_10 
ROOT
ATOM      1  C   UNL d   1      -0.157   2.194   5.822  0.00  0.00     0.163 C 
ENDROOT
BRANCH   1   2
ATOM      2  S   UNL d   1      -1.822   1.423   5.972  0.00  0.00    -0.121 SA
BRANCH   2   3
ATOM      3  C   UNL d   1      -2.076   1.392   7.745  0.00  0.00     0.017 A 
ATOM      4  C   UNL d   1      -2.162   2.520   8.578  0.00  0.00     0.054 A 
ATOM      5  C   UNL d   1      -2.444   2.371   9.947  0.00  0.00     0.020 A 
ATOM      6  C   UNL d   1      -2.671   1.107  10.490  0.00  0.00     0.001 A 
ATOM      7  C   UNL d   1      -2.599  -0.015   9.670  0.00  0.00     0.001 A 
ATOM      8  C   UNL d   1      -2.303   0.127   8.312  0.00  0.00     0.019 A 
BRANCH   4   9
ATOM      9  C   UNL d   1      -1.976   3.909   8.102  0.00  0.00     0.177 C 
ATOM     10  O   UNL d   1      -1.311   4.729   8.711  0.00  0.00    -0.646 OA
BRANCH   9  11
ATOM     11  O   UNL d   1      -2.650   4.195   6.970  0.00  0.00    -0.773 OA
ATOM     12  H   UNL d   1      -3.125   3.430   6.583  0.00  0.00     0.167 HD
ENDBRANCH   9  11
ENDBRANCH   4   9
ENDBRANCH   2   3
ENDBRANCH   1   2
BRANCH   1  13
ATOM     13  C   UNL d   1       0.470   1.795   4.490  0.00  0.00     0.169 C 
ATOM     14  O   UNL d   1       0.248   0.709   3.950  0.00  0.00    -0.291 OA
BRANCH  13  15
ATOM     15  C   UNL d   1       1.442   2.712   3.813  0.00  0.00     0.013 A 
ATOM     16  C   UNL d   1       1.839   2.392   2.502  0.00  0.00     0.051 A 
ATOM     17  C   UNL d   1       2.771   3.196   1.833  0.00  0.00     0.103 A 
ATOM     18  C   UNL d   1       3.312   4.325   2.458  0.00  0.00     0.036 A 
ATOM     19  C   UNL d   1       2.916   4.644   3.758  0.00  0.00     0.003 A 
ATOM     20  C   UNL d   1       1.988   3.842   4.435  0.00  0.00     0.015 A 
BRANCH  17  21
ATOM     21  N   UNL d   1       3.187   2.850   0.467  0.00  0.00    -0.116 N 
ATOM     22  O   UNL d   1       2.651   1.871  -0.070  0.00  0.00    -0.532 OA
ATOM     23  O   UNL d   1       4.050   3.560  -0.069  0.00  0.00    -0.532 OA
ENDBRANCH  17  21
ENDBRANCH  13  15
ENDBRANCH   1  13
TORSDOF 7
