REMARK  5 active torsions:
REMARK  status: ('A' for Active; 'I' for Inactive)
REMARK    1  A    between atoms: C_6  and  C_1 
REMARK    2  A    between atoms: C_9  and  N_2 
REMARK    3  A    between atoms: C_8  and  C_4 
REMARK       I    between atoms: N_7  and  C_6 
REMARK    4  A    between atoms: C_11  and  N_7 
REMARK    5  A    between atoms: O_21  and  C_17 
ROOT
ATOM      1  C   UNL d   1      -0.206   1.083   0.030  0.00  0.00     0.057 C 
ATOM      2  N   UNL d   1       0.918  -0.882   0.308  0.00  0.00    -0.314 N 
ATOM      3  C   UNL d   1       1.023   0.516   0.401  0.00  0.00     0.029 C 
ATOM      4  C   UNL d   1      -0.443  -1.196   0.144  0.00  0.00     0.051 C 
ATOM      5  C   UNL d   1      -1.112  -0.003  -0.082  0.00  0.00     0.050 C 
ATOM      6  C   UNL d   1       2.293   1.251   0.706  0.00  0.00     0.070 C 
ENDROOT
BRANCH   1   7
ATOM      7  C   UNL d   1      -0.458   2.526  -0.172  0.00  0.00     0.258 C 
ATOM      8  N   UNL d   1      -1.789   2.878  -0.336  0.00  0.00    -0.323 N 
ATOM      9  H   UNL d   1      -2.459   2.130  -0.421  0.00  0.00     0.169 HD
ATOM     10  O   UNL d   1       0.471   3.331  -0.211  0.00  0.00    -0.267 OA
BRANCH   8  11
ATOM     11  C   UNL d   1      -2.322   4.190  -0.370  0.00  0.00     0.037 A 
ATOM     12  C   UNL d   1      -1.563   5.342  -0.129  0.00  0.00     0.066 A 
ATOM     13  C   UNL d   1      -2.161   6.605  -0.089  0.00  0.00     0.070 A 
ATOM     14  C   UNL d   1      -3.529   6.722  -0.337  0.00  0.00     0.037 A 
ATOM     15  C   UNL d   1      -4.294   5.588  -0.600  0.00  0.00     0.005 A 
ATOM     16  C   UNL d   1      -3.695   4.327  -0.608  0.00  0.00     0.029 A 
BRANCH  13  17
ATOM     17  O   UNL d   1      -1.519   7.783   0.188  0.00  0.00    -0.356 OA
ATOM     18  C   UNL d   1      -0.166   7.682   0.624  0.00  0.00     0.210 C 
ENDBRANCH  13  17
ENDBRANCH   8  11
ENDBRANCH   1   7
BRANCH   2  19
ATOM     19  C   UNL d   1       1.995  -1.837   0.303  0.00  0.00     0.039 A 
ATOM     20  C   UNL d   1       3.083  -1.736   1.179  0.00  0.00     0.030 A 
ATOM     21  C   UNL d   1       4.088  -2.711   1.180  0.00  0.00     0.002 A 
ATOM     22  C   UNL d   1       4.008  -3.808   0.329  0.00  0.00     0.000 A 
ATOM     23  C   UNL d   1       2.931  -3.923  -0.545  0.00  0.00     0.002 A 
ATOM     24  C   UNL d   1       1.943  -2.937  -0.571  0.00  0.00     0.030 A 
ENDBRANCH   2  19
BRANCH   4  25
ATOM     25  C   UNL d   1      -1.055  -2.540   0.223  0.00  0.00    -0.009 A 
ATOM     26  C   UNL d   1      -2.087  -2.893  -0.662  0.00  0.00     0.015 A 
ATOM     27  C   UNL d   1      -2.664  -4.167  -0.623  0.00  0.00     0.024 A 
ATOM     28  C   UNL d   1      -2.207  -5.104   0.298  0.00  0.00     0.034 A 
ATOM     29  C   UNL d   1      -1.201  -4.769   1.199  0.00  0.00     0.024 A 
ATOM     30 CL   UNL d   1      -2.886  -6.684   0.321  0.00  0.00    -0.084 Cl
ATOM     31  C   UNL d   1      -0.645  -3.484   1.177  0.00  0.00     0.015 A 
ENDBRANCH   4  25
TORSDOF 5
