REMARK  3 active torsions:
REMARK  status: ('A' for Active; 'I' for Inactive)
REMARK    1  A    between atoms: C_3  and  C_1 
REMARK    2  A    between atoms: N_4  and  C_2 
REMARK    3  A    between atoms: O_6  and  C_3 
ROOT
ATOM      1  C   UNL d   1       1.182  -0.225   0.739  0.00  0.00     0.064 A 
ATOM      2  C   UNL d   1       0.693  -1.389   0.096  0.00  0.00     0.047 A 
ATOM      3  C   UNL d   1       0.524   1.016   0.629  0.00  0.00     0.020 A 
ATOM      4  C   UNL d   1      -0.467  -1.214  -0.688  0.00  0.00     0.030 A 
ATOM      5  C   UNL d   1      -0.616   1.142  -0.152  0.00  0.00     0.001 A 
ATOM      6  C   UNL d   1      -1.105   0.028  -0.821  0.00  0.00     0.002 A 
ENDROOT
BRANCH   2   7
ATOM      7  N   UNL d   1       1.266  -2.654   0.208  0.00  0.00    -0.380 N 
ATOM      8  C   UNL d   1       1.803  -3.142   1.492  0.00  0.00     0.123 C 
ATOM      9  C   UNL d   1       1.284  -4.542   1.817  0.00  0.00     0.020 C 
ATOM     10  C   UNL d   1       1.511  -5.500   0.656  0.00  0.00     0.003 C 
ATOM     11  C   UNL d   1       0.834  -4.957  -0.597  0.00  0.00     0.020 C 
ATOM     12  C   UNL d   1       1.357  -3.564  -0.945  0.00  0.00     0.123 C 
ENDBRANCH   2   7
BRANCH   1  13
ATOM     13  C   UNL d   1       2.477  -0.168   1.470  0.00  0.00     0.178 C 
ATOM     14  O   UNL d   1       2.640   0.469   2.497  0.00  0.00    -0.646 OA
BRANCH  13  15
ATOM     15  O   UNL d   1       3.476  -0.789   0.808  0.00  0.00    -0.773 OA
ATOM     16  H   UNL d   1       3.130  -1.300   0.047  0.00  0.00     0.167 HD
ENDBRANCH  13  15
ENDBRANCH   1  13
TORSDOF 3
