REMARK  7 active torsions:
REMARK  status: ('A' for Active; 'I' for Inactive)
REMARK    1  A    between atoms: C_9  and  N_1 
REMARK    2  A    between atoms: C_8  and  C_2 
REMARK       I    between atoms: C_7  and  N_10 
REMARK       I    between atoms: N_11  and  C_7 
REMARK    3  A    between atoms: O_23  and  C_8 
REMARK    4  A    between atoms: N_10  and  C_20 
REMARK    5  A    between atoms: C_21  and  N_11 
REMARK    6  A    between atoms: C_12  and  C_13 
REMARK    7  A    between atoms: C_32  and  O_23 
ROOT
ATOM      1  C   UNL d   1      -0.518  -2.485  -0.766  0.00  0.00     0.056 A 
ATOM      2  C   UNL d   1       0.485  -3.325  -0.242  0.00  0.00     0.034 A 
ATOM      3  C   UNL d   1      -1.671  -3.090  -1.253  0.00  0.00     0.034 A 
ATOM      4  C   UNL d   1      -0.945  -5.280  -0.441  0.00  0.00     0.036 A 
ATOM      5  C   UNL d   1       0.273  -4.705  -0.077  0.00  0.00     0.032 A 
ATOM      6  C   UNL d   1      -1.875  -4.469  -1.094  0.00  0.00     0.032 A 
ENDROOT
BRANCH   4   7
ATOM      7  N   UNL d   1      -1.190  -6.634  -0.088  0.00  0.00    -0.309 N 
ATOM      8  C   UNL d   1      -2.405  -7.292  -0.219  0.00  0.00     0.325 C 
ATOM      9  N   UNL d   1      -2.366  -8.591   0.270  0.00  0.00    -0.309 N 
ATOM     10  O   UNL d   1      -3.400  -6.783  -0.721  0.00  0.00    -0.247 OA
ATOM     11  H   UNL d   1      -1.508  -8.908   0.691  0.00  0.00     0.170 HD
ATOM     12  H   UNL d   1      -0.447  -7.114   0.394  0.00  0.00     0.170 HD
BRANCH   9  13
ATOM     13  C   UNL d   1      -3.380  -9.568   0.089  0.00  0.00     0.036 C 
ATOM     14  C   UNL d   1      -4.598  -9.309  -0.537  0.00  0.00     0.030 C 
ATOM     15  C   UNL d   1      -5.454 -10.348  -0.908  0.00  0.00     0.010 C 
ATOM     16  C   UNL d   1      -5.127 -11.689  -0.665  0.00  0.00    -0.051 C 
ATOM     17  C   UNL d   1      -3.982 -11.929   0.110  0.00  0.00     0.010 C 
ATOM     18  C   UNL d   1      -3.118 -10.882   0.482  0.00  0.00     0.030 C 
BRANCH  16  19
ATOM     19  C   UNL d   1      -5.953 -12.799  -1.337  0.00  0.00    -0.024 C 
ATOM     20  C   UNL d   1      -5.426 -14.221  -1.053  0.00  0.00     0.019 C 
ATOM     21  C   UNL d   1      -7.426 -12.746  -0.887  0.00  0.00     0.019 C 
ATOM     22  C   UNL d   1      -5.890 -12.597  -2.872  0.00  0.00     0.019 C 
ENDBRANCH  16  19
ENDBRANCH   9  13
ENDBRANCH   4   7
BRANCH   1  23
ATOM     23  N   UNL d   1      -0.337  -1.059  -0.705  0.00  0.00    -0.260 N 
ATOM     24  N   UNL d   1       0.849  -0.602  -0.226  0.00  0.00    -0.297 N 
ATOM     25  C   UNL d   1       0.715   0.714  -0.095  0.00  0.00     0.041 A 
ATOM     26  HN  UNL d   1       1.677  -1.158  -0.010  1.00  0.00     0.187 HD
ATOM     27  C   UNL d   1       1.818   1.482   0.539  0.00  0.00     0.071 C 
ATOM     28  C   UNL d   1      -0.533   1.176  -0.582  0.00  0.00     0.087 A 
ATOM     29  C   UNL d   1      -1.208   0.009  -0.959  0.00  0.00     0.049 A 
ATOM     30  C   UNL d   1      -2.608  -0.128  -1.447  0.00  0.00     0.071 C 
BRANCH  28  31
ATOM     31  C   UNL d   1      -1.027   2.555  -0.634  0.00  0.00     0.297 C 
ATOM     32  O   UNL d   1      -2.135   2.875  -1.037  0.00  0.00    -0.259 OA
BRANCH  31  33
ATOM     33  O   UNL d   1      -0.102   3.451  -0.181  0.00  0.00    -0.318 OA
BRANCH  33  34
ATOM     34  C   UNL d   1      -0.475   4.836  -0.202  0.00  0.00     0.174 C 
ATOM     35  C   UNL d   1      -1.227   5.198   1.065  0.00  0.00     0.034 C 
ENDBRANCH  33  34
ENDBRANCH  31  33
ENDBRANCH  28  31
ENDBRANCH   1  23
TORSDOF 7
