REMARK  9 active torsions:
REMARK  status: ('A' for Active; 'I' for Inactive)
REMARK    1  A    between atoms: N_4  and  C_1 
REMARK    2  A    between atoms: C_2  and  N_4 
REMARK    3  A    between atoms: N_13  and  C_2 
REMARK    4  A    between atoms: O_20  and  C_6 
REMARK    5  A    between atoms: O_21  and  C_8 
REMARK    6  A    between atoms: N_9  and  N_13 
REMARK    7  A    between atoms: O_23  and  C_11 
REMARK    8  A    between atoms: O_24  and  C_14 
REMARK    9  A    between atoms: C_18  and  C_17 
ROOT
ATOM      1  C   UNL d   1       4.675   1.527   0.261  0.00  0.00     0.191 C 
ATOM      2  S   UNL d   1       4.434   3.127   0.673  0.00  0.00    -0.039 SA
ENDROOT
BRANCH   1   3
ATOM      3  N   UNL d   1       3.728   0.535   0.113  0.00  0.00    -0.330 N 
ATOM      4  H   UNL d   1       4.094  -0.393   0.299  0.00  0.00     0.168 HD
BRANCH   3   5
ATOM      5  C   UNL d   1       2.400   0.580  -0.363  0.00  0.00     0.070 A 
ATOM      6  C   UNL d   1       1.927   1.643  -1.138  0.00  0.00     0.071 A 
ATOM      7  C   UNL d   1       0.645   1.637  -1.718  0.00  0.00     0.092 A 
ATOM      8  C   UNL d   1      -0.179   0.530  -1.493  0.00  0.00     0.070 A 
ATOM      9  C   UNL d   1       0.286  -0.542  -0.712  0.00  0.00     0.065 A 
ATOM     10 CL   UNL d   1      -1.764   0.311  -2.150  0.00  0.00    -0.081 Cl
ATOM     11  C   UNL d   1       1.573  -0.540  -0.166  0.00  0.00     0.096 A 
BRANCH   7  12
ATOM     12  O   UNL d   1       0.444   2.760  -2.471  0.00  0.00    -0.354 OA
ATOM     13  C   UNL d   1      -0.832   3.051  -3.009  0.00  0.00     0.210 C 
ENDBRANCH   7  12
BRANCH  11  14
ATOM     14  O   UNL d   1       2.102  -1.573   0.573  0.00  0.00    -0.354 OA
ATOM     15  C   UNL d   1       1.315  -2.755   0.686  0.00  0.00     0.210 C 
ENDBRANCH  11  14
ENDBRANCH   3   5
ENDBRANCH   1   3
BRANCH   1  16
ATOM     16  N   UNL d   1       5.969   1.081   0.041  0.00  0.00    -0.276 N 
ATOM     17  H   UNL d   1       6.728   1.755   0.061  0.00  0.00     0.189 HD
BRANCH  16  18
ATOM     18  N   UNL d   1       6.184  -0.212  -0.302  0.00  0.00    -0.309 N 
ATOM     19  C   UNL d   1       7.322  -0.515  -0.841  0.00  0.00     0.118 C 
ATOM     20  HN  UNL d   1       5.472  -0.925  -0.142  1.00  0.00     0.186 HD
BRANCH  19  21
ATOM     21  C   UNL d   1       7.579  -1.927  -1.208  0.00  0.00    -0.017 A 
ATOM     22  C   UNL d   1       8.700  -2.292  -1.964  0.00  0.00     0.052 A 
ATOM     23  C   UNL d   1       8.893  -3.640  -2.296  0.00  0.00     0.102 A 
ATOM     24  C   UNL d   1       7.957  -4.594  -1.858  0.00  0.00     0.099 A 
ATOM     25  C   UNL d   1       6.846  -4.231  -1.107  0.00  0.00     0.040 A 
ATOM     26  C   UNL d   1       6.658  -2.891  -0.784  0.00  0.00     0.016 A 
BRANCH  23  27
ATOM     27  O   UNL d   1       9.934  -4.141  -3.030  0.00  0.00    -0.353 OA
ATOM     28  C   UNL d   1      10.907  -3.239  -3.528  0.00  0.00     0.210 C 
ENDBRANCH  23  27
BRANCH  24  29
ATOM     29  O   UNL d   1       8.144  -5.912  -2.181  0.00  0.00    -0.358 OA
ATOM     30  H   UNL d   1       7.412  -6.439  -1.816  0.00  0.00     0.217 HD
ENDBRANCH  24  29
ENDBRANCH  19  21
ENDBRANCH  16  18
ENDBRANCH   1  16
TORSDOF 9
