REMARK  7 active torsions:
REMARK  status: ('A' for Active; 'I' for Inactive)
REMARK    1  A    between atoms: C_3  and  C_1 
REMARK       I    between atoms: C_2  and  N_4 
REMARK       I    between atoms: N_11  and  C_2 
REMARK    2  A    between atoms: N_4  and  C_14 
REMARK    3  A    between atoms: C_5  and  C_19 
REMARK    4  A    between atoms: C_22  and  N_11 
REMARK    5  A    between atoms: S_18  and  C_23 
REMARK    6  A    between atoms: C_19  and  S_18 
REMARK    7  A    between atoms: C_23  and  C_22 
ROOT
ATOM      1  C   UNL d   1       0.135  -5.518   3.533  0.00  0.00     0.320 C 
ATOM      2  N   UNL d   1       0.113  -4.174   3.814  0.00  0.00    -0.309 N 
ATOM      3  O   UNL d   1       0.492  -6.026   2.474  0.00  0.00    -0.247 OA
ATOM      4  N   UNL d   1      -0.255  -6.297   4.604  0.00  0.00    -0.342 N 
ATOM      5  H   UNL d   1       0.150  -3.934   4.793  0.00  0.00     0.170 HD
ATOM      6  H   UNL d   1      -0.992  -5.898   5.175  0.00  0.00     0.164 HD
ENDROOT
BRANCH   2   7
ATOM      7  C   UNL d   1       0.389  -3.150   2.877  0.00  0.00     0.036 A 
ATOM      8  C   UNL d   1       0.296  -3.349   1.497  0.00  0.00     0.030 A 
ATOM      9  C   UNL d   1       0.602  -2.323   0.600  0.00  0.00     0.018 A 
ATOM     10  C   UNL d   1       1.000  -1.065   1.067  0.00  0.00     0.048 A 
ATOM     11  C   UNL d   1       1.076  -0.857   2.452  0.00  0.00     0.018 A 
ATOM     12  C   UNL d   1       0.761  -1.891   3.352  0.00  0.00     0.030 A 
BRANCH  10  13
ATOM     13  C   UNL d   1       1.327   0.025   0.076  0.00  0.00     0.417 C 
ATOM     14  F   UNL d   1       1.677   1.206   0.659  0.00  0.00    -0.166 F 
ATOM     15  F   UNL d   1       0.278   0.312  -0.745  0.00  0.00    -0.166 F 
ATOM     16  F   UNL d   1       2.362  -0.306  -0.745  0.00  0.00    -0.166 F 
ENDBRANCH  10  13
ENDBRANCH   2   7
BRANCH   4  17
ATOM     17  C   UNL d   1      -0.320  -7.731   4.373  0.00  0.00     0.134 C 
BRANCH  17  18
ATOM     18  C   UNL d   1      -0.847  -8.541   5.550  0.00  0.00     0.094 C 
BRANCH  18  19
ATOM     19  S   UNL d   1      -2.511  -8.028   6.104  0.00  0.00    -0.163 SA
BRANCH  19  20
ATOM     20  C   UNL d   1      -3.465  -8.389   4.591  0.00  0.00     0.114 C 
BRANCH  20  21
ATOM     21  C   UNL d   1      -4.922  -8.042   4.766  0.00  0.00    -0.027 A 
ATOM     22  C   UNL d   1      -5.424  -6.752   4.530  0.00  0.00     0.041 A 
ATOM     23 CL   UNL d   1      -4.406  -5.452   4.013  0.00  0.00    -0.084 Cl
ATOM     24  C   UNL d   1      -6.782  -6.474   4.709  0.00  0.00     0.024 A 
ATOM     25  C   UNL d   1      -7.654  -7.478   5.133  0.00  0.00     0.002 A 
ATOM     26  C   UNL d   1      -7.169  -8.758   5.381  0.00  0.00     0.001 A 
ATOM     27  C   UNL d   1      -5.814  -9.039   5.202  0.00  0.00     0.009 A 
ENDBRANCH  20  21
ENDBRANCH  19  20
ENDBRANCH  18  19
ENDBRANCH  17  18
ENDBRANCH   4  17
TORSDOF 7
