REMARK  2 active torsions:
REMARK  status: ('A' for Active; 'I' for Inactive)
REMARK    1  A    between atoms: C_10  and  C_1 
REMARK    2  A    between atoms: O_14  and  C_1 
ROOT
ATOM      1  C   UNL d   1      -1.004   0.366   0.903  0.00  0.00     0.252 C 
ATOM      2  C   UNL d   1       0.894  -0.568  -0.095  0.00  0.00     0.048 C 
ATOM      3  C   UNL d   1       2.079  -1.385  -0.244  0.00  0.00     0.036 A 
ATOM      4  N   UNL d   1      -0.872   0.491  -0.545  0.00  0.00    -0.289 N 
ATOM      5  N   UNL d   1       0.157  -0.183  -1.092  0.00  0.00    -0.303 N 
ATOM      6  HN  UNL d   1       0.322  -0.357  -2.084  1.00  0.00     0.186 HD
ATOM      7  C   UNL d   1       0.426  -0.062   1.246  0.00  0.00     0.132 C 
ATOM      8  S   UNL d   1       3.325  -1.234   0.915  0.00  0.00    -0.087 SA
ATOM      9  C   UNL d   1       2.395  -2.323  -1.220  0.00  0.00    -0.031 A 
ATOM     10  C   UNL d   1       3.701  -2.924  -0.984  0.00  0.00    -0.011 A 
ATOM     11  C   UNL d   1       4.312  -2.400   0.152  0.00  0.00     0.016 A 
ATOM     12  C   UNL d   1       4.402  -3.920  -1.712  0.00  0.00     0.020 A 
ATOM     13  C   UNL d   1       5.593  -2.827   0.570  0.00  0.00     0.020 A 
ATOM     14  C   UNL d   1      -1.694   1.400  -1.308  0.00  0.00     0.175 C 
ATOM     15  C   UNL d   1       5.674  -4.355  -1.307  0.00  0.00    -0.061 A 
ATOM     16  C   UNL d   1       1.526  -2.730  -2.371  0.00  0.00     0.050 C 
ATOM     17  C   UNL d   1       6.255  -3.801  -0.170  0.00  0.00     0.008 A 
ATOM     18  C   UNL d   1       6.413  -5.403  -2.085  0.00  0.00     0.048 C 
ENDROOT
BRANCH   1  19
ATOM     19  C   UNL d   1      -1.421   1.593   1.781  0.00  0.00     0.439 C 
ATOM     20  F   UNL d   1      -1.401   2.759   1.093  0.00  0.00    -0.166 F 
ATOM     21  F   UNL d   1      -2.677   1.456   2.278  0.00  0.00    -0.166 F 
ATOM     22  F   UNL d   1      -0.598   1.760   2.847  0.00  0.00    -0.166 F 
ENDBRANCH   1  19
BRANCH   1  23
ATOM     23  O   UNL d   1      -1.844  -0.779   1.130  0.00  0.00    -0.362 OA
ATOM     24  H   UNL d   1      -1.867  -1.206   0.256  0.00  0.00     0.213 HD
ENDBRANCH   1  23
TORSDOF 2
