REMARK  3 active torsions:
REMARK  status: ('A' for Active; 'I' for Inactive)
REMARK    1  A    between atoms: C_6  and  N_1 
REMARK    2  A    between atoms: C_7  and  C_2 
REMARK    3  A    between atoms: C_3  and  C_9 
ROOT
ATOM      1  C   UNL d   1      -2.909   5.157   0.200  0.00  0.00     0.036 C 
ATOM      2  C   UNL d   1      -1.861   4.923  -0.620  0.00  0.00     0.055 C 
ATOM      3  C   UNL d   1      -1.135   3.684  -0.550  0.00  0.00     0.100 C 
ATOM      4  N   UNL d   1      -0.552   2.679  -0.521  0.00  0.00    -0.191 NA
ENDROOT
BRANCH   2   5
ATOM      5  C   UNL d   1      -1.462   5.951  -1.627  0.00  0.00    -0.015 A 
ATOM      6  C   UNL d   1      -1.575   7.329  -1.353  0.00  0.00     0.015 A 
ATOM      7  C   UNL d   1      -1.182   8.296  -2.287  0.00  0.00     0.037 A 
ATOM      8  C   UNL d   1      -0.650   7.892  -3.514  0.00  0.00     0.102 A 
ATOM      9  C   UNL d   1      -0.519   6.533  -3.811  0.00  0.00     0.037 A 
ATOM     10  C   UNL d   1      -0.924   5.574  -2.871  0.00  0.00     0.015 A 
BRANCH   8  11
ATOM     11  N   UNL d   1      -0.223   8.903  -4.493  0.00  0.00    -0.116 N 
ATOM     12  O   UNL d   1       0.256   8.502  -5.563  0.00  0.00    -0.532 OA
ATOM     13  O   UNL d   1      -0.368  10.095  -4.190  0.00  0.00    -0.532 OA
ENDBRANCH   8  11
ENDBRANCH   2   5
BRANCH   1  14
ATOM     14  C   UNL d   1      -3.379   4.252   1.261  0.00  0.00    -0.013 A 
ATOM     15  C   UNL d   1      -2.839   4.262   2.559  0.00  0.00     0.044 A 
ATOM     16 CL   UNL d   1      -1.597   5.375   3.016  0.00  0.00    -0.083 Cl
ATOM     17  C   UNL d   1      -3.313   3.373   3.528  0.00  0.00     0.024 A 
ATOM     18  C   UNL d   1      -4.333   2.476   3.214  0.00  0.00     0.002 A 
ATOM     19  C   UNL d   1      -4.886   2.471   1.935  0.00  0.00     0.001 A 
ATOM     20  C   UNL d   1      -4.413   3.353   0.962  0.00  0.00     0.013 A 
ENDBRANCH   1  14
TORSDOF 3
