REMARK  5 active torsions:
REMARK  status: ('A' for Active; 'I' for Inactive)
REMARK    1  A    between atoms: C_2  and  N_1 
REMARK       I    between atoms: C_3  and  N_1 
REMARK    2  A    between atoms: C_4  and  C_3 
REMARK    3  A    between atoms: C_12  and  C_5 
REMARK    4  A    between atoms: C_16  and  C_9 
REMARK    5  A    between atoms: C_17  and  C_12 
ROOT
ATOM      1  C   UNL d   1       0.408  -1.003   0.603  0.00  0.00     0.048 A 
ATOM      2  C   UNL d   1       0.762  -1.200   1.964  0.00  0.00    -0.027 A 
ATOM      3  C   UNL d   1      -0.797  -1.537   0.082  0.00  0.00    -0.031 A 
ATOM      4  C   UNL d   1      -0.169  -1.874   2.781  0.00  0.00     0.010 A 
ATOM      5  C   UNL d   1      -1.372  -2.369   2.280  0.00  0.00     0.001 A 
ATOM      6  C   UNL d   1      -1.678  -2.213   0.935  0.00  0.00     0.009 A 
ENDROOT
BRANCH   1   7
ATOM      7  N   UNL d   1       1.117  -0.120  -0.232  0.00  0.00    -0.322 N 
ATOM      8  C   UNL d   1       2.418  -0.267  -0.670  0.00  0.00     0.263 C 
ATOM      9  O   UNL d   1       3.123  -1.240  -0.409  0.00  0.00    -0.267 OA
ATOM     10  H   UNL d   1       0.556   0.471  -0.830  0.00  0.00     0.169 HD
BRANCH   8  11
ATOM     11  C   UNL d   1       2.891   0.837  -1.504  0.00  0.00     0.072 A 
ATOM     12  S   UNL d   1       1.860   2.121  -2.004  0.00  0.00    -0.097 SA
ATOM     13  C   UNL d   1       3.135   2.938  -2.793  0.00  0.00     0.050 A 
ATOM     14  C   UNL d   1       4.321   2.246  -2.706  0.00  0.00     0.009 A 
ATOM     15  C   UNL d   1       4.176   1.028  -1.979  0.00  0.00     0.025 A 
ENDBRANCH   8  11
ENDBRANCH   1   7
BRANCH   2  16
ATOM     16  C   UNL d   1       2.048  -0.665   2.598  0.00  0.00     0.016 C 
ATOM     17  C   UNL d   1       2.638  -1.636   3.644  0.00  0.00     0.015 C 
BRANCH  16  18
ATOM     18  C   UNL d   1       1.888   0.723   3.253  0.00  0.00     0.004 C 
ATOM     19  C   UNL d   1       1.638   1.857   2.270  0.00  0.00     0.006 C 
ENDBRANCH  16  18
ENDBRANCH   2  16
BRANCH   3  20
ATOM     20  C   UNL d   1      -1.135  -1.486  -1.395  0.00  0.00     0.036 C 
ATOM     21  C   UNL d   1      -2.014  -0.307  -1.775  0.00  0.00     0.010 C 
ENDBRANCH   3  20
TORSDOF 5
