REMARK  3 active torsions:
REMARK  status: ('A' for Active; 'I' for Inactive)
REMARK    1  A    between atoms: C_4  and  C_1 
REMARK    2  A    between atoms: C_15  and  C_5 
REMARK    3  A    between atoms: C_11  and  C_16 
ROOT
ATOM      1  C   UNL d   1       0.532  -1.007  -0.024  0.00  0.00     0.186 A 
ATOM      2  N   UNL d   1       1.193   0.105   0.221  0.00  0.00    -0.318 N 
ATOM      3  HN  UNL d   1       2.166   0.215   0.508  1.00  0.00     0.169 HD
ATOM      4  C   UNL d   1       0.250   1.084  -0.006  0.00  0.00     0.138 A 
ATOM      5  N   UNL d   1      -0.964   0.604  -0.318  0.00  0.00    -0.242 N 
ATOM      6  HN  UNL d   1      -1.821   1.127  -0.498  1.00  0.00     0.196 HD
ATOM      7  O   UNL d   1      -0.779  -0.772  -0.339  0.00  0.00    -0.217 OA
ENDROOT
BRANCH   4   8
ATOM      8  C   UNL d   1       0.577   2.505   0.018  0.00  0.00     0.010 A 
ATOM      9  C   UNL d   1       1.886   2.927   0.292  0.00  0.00     0.016 A 
ATOM     10  C   UNL d   1       2.223   4.284   0.242  0.00  0.00     0.017 A 
ATOM     11  C   UNL d   1       1.256   5.248  -0.080  0.00  0.00     0.048 A 
ATOM     12  C   UNL d   1      -0.058   4.828  -0.334  0.00  0.00     0.017 A 
ATOM     13  C   UNL d   1      -0.393   3.471  -0.283  0.00  0.00     0.016 A 
BRANCH  11  14
ATOM     14  C   UNL d   1       1.606   6.713  -0.170  0.00  0.00     0.417 C 
ATOM     15  F   UNL d   1       2.914   6.978   0.103  0.00  0.00    -0.166 F 
ATOM     16  F   UNL d   1       1.372   7.227  -1.409  0.00  0.00    -0.166 F 
ATOM     17  F   UNL d   1       0.881   7.475   0.695  0.00  0.00    -0.166 F 
ENDBRANCH  11  14
ENDBRANCH   4   8
BRANCH   1  18
ATOM     18  C   UNL d   1       1.138  -2.354  -0.003  0.00  0.00     0.073 A 
ATOM     19  C   UNL d   1       0.514  -3.524  -0.362  0.00  0.00     0.089 A 
ATOM     20  O   UNL d   1       1.401  -4.549  -0.234  0.00  0.00    -0.242 OA
ATOM     21  C   UNL d   1      -0.831  -3.875  -0.854  0.00  0.00     0.080 C 
ATOM     22  N   UNL d   1       2.616  -4.059   0.214  0.00  0.00    -0.265 N 
ATOM     23  C   UNL d   1       2.451  -2.736   0.349  0.00  0.00     0.045 A 
ATOM     24  HN  UNL d   1       3.463  -4.595   0.402  1.00  0.00     0.194 HD
ATOM     25  C   UNL d   1       3.572  -1.890   0.821  0.00  0.00     0.071 C 
ENDBRANCH   1  18
TORSDOF 3
