REMARK  5 active torsions:
REMARK  status: ('A' for Active; 'I' for Inactive)
REMARK    1  A    between atoms: N_3  and  C_1 
REMARK    2  A    between atoms: O_4  and  C_2 
REMARK    3  A    between atoms: C_6  and  O_4 
REMARK    4  A    between atoms: C_5  and  C_8 
REMARK    5  A    between atoms: C_10  and  C_6 
ROOT
ATOM      1  C   UNL d   1       2.244  -1.211  -0.042  0.00  0.00     0.139 A 
ATOM      2  C   UNL d   1       0.968  -1.157   0.542  0.00  0.00     0.130 A 
ATOM      3  C   UNL d   1       2.986  -0.029  -0.232  0.00  0.00     0.055 A 
ATOM      4  C   UNL d   1       2.478   1.212   0.181  0.00  0.00     0.051 A 
ATOM      5  C   UNL d   1       0.481   0.078   1.004  0.00  0.00     0.048 A 
ATOM      6  C   UNL d   1       1.223   1.251   0.807  0.00  0.00     0.038 A 
ATOM      7 BR   UNL d   1      -1.167   0.228   1.936  0.00  0.00    -0.048 Br
ENDROOT
BRANCH   2   8
ATOM      8  O   UNL d   1       0.192  -2.316   0.693  0.00  0.00    -0.271 OA
BRANCH   8   9
ATOM      9  C   UNL d   1      -0.799  -2.418  -0.269  0.00  0.00     0.298 C 
ATOM     10  O   UNL d   1      -1.134  -1.554  -1.066  0.00  0.00    -0.259 OA
BRANCH   9  11
ATOM     11  C   UNL d   1      -1.431  -3.760  -0.237  0.00  0.00     0.041 A 
ATOM     12  C   UNL d   1      -2.766  -3.879  -0.650  0.00  0.00     0.044 A 
ATOM     13  C   UNL d   1      -3.347  -5.146  -0.762  0.00  0.00     0.073 A 
ATOM     14 CL   UNL d   1      -4.984  -5.283  -1.273  0.00  0.00    -0.081 Cl
ATOM     15  C   UNL d   1      -2.597  -6.285  -0.478  0.00  0.00     0.138 A 
ATOM     16  C   UNL d   1      -1.276  -6.174  -0.055  0.00  0.00     0.045 A 
ATOM     17  F   UNL d   1      -3.125  -7.509  -0.619  0.00  0.00    -0.204 F 
ATOM     18  C   UNL d   1      -0.695  -4.912   0.079  0.00  0.00     0.021 A 
ENDBRANCH   9  11
ENDBRANCH   8   9
ENDBRANCH   2   8
BRANCH   1  19
ATOM     19  N   UNL d   1       2.865  -2.479  -0.450  0.00  0.00    -0.113 N 
ATOM     20  O   UNL d   1       2.303  -3.542  -0.166  0.00  0.00    -0.532 OA
ATOM     21  O   UNL d   1       3.952  -2.416  -1.047  0.00  0.00    -0.532 OA
ENDBRANCH   1  19
BRANCH   4  22
ATOM     22  C   UNL d   1       3.254   2.488  -0.060  0.00  0.00     0.417 C 
ATOM     23  F   UNL d   1       4.568   2.269  -0.340  0.00  0.00    -0.166 F 
ATOM     24  F   UNL d   1       2.758   3.200  -1.107  0.00  0.00    -0.166 F 
ATOM     25  F   UNL d   1       3.234   3.323   1.013  0.00  0.00    -0.166 F 
ENDBRANCH   4  22
TORSDOF 5
