REMARK  2 active torsions:
REMARK  status: ('A' for Active; 'I' for Inactive)
REMARK    1  A    between atoms: C_8  and  N_1 
REMARK    2  A    between atoms: C_9  and  C_4 
ROOT
ATOM      1  N   UNL d   1      -0.302  -1.166   0.100  0.00  0.00    -0.238 N 
ATOM      2  N   UNL d   1       0.948  -0.681   0.297  0.00  0.00    -0.235 N 
ATOM      3  HN  UNL d   1       1.775  -1.243   0.501  1.00  0.00     0.209 HD
ATOM      4  C   UNL d   1      -0.370   1.028  -0.005  0.00  0.00     0.119 A 
ATOM      5  C   UNL d   1      -1.186  -0.099  -0.027  0.00  0.00     0.064 A 
ATOM      6  N   UNL d   1       0.924   0.633   0.183  0.00  0.00    -0.280 N 
ATOM      7  HN  UNL d   1       1.735   1.250   0.229  1.00  0.00     0.188 HD
ATOM      8  C   UNL d   1      -2.668  -0.205  -0.048  0.00  0.00     0.073 C 
ENDROOT
BRANCH   1   9
ATOM      9  C   UNL d   1      -0.511  -2.563   0.045  0.00  0.00     0.135 A 
ATOM     10  C   UNL d   1       0.315  -3.416   0.787  0.00  0.00     0.148 A 
ATOM     11  F   UNL d   1       1.250  -2.937   1.621  0.00  0.00    -0.203 F 
ATOM     12  C   UNL d   1       0.151  -4.801   0.741  0.00  0.00     0.045 A 
ATOM     13  C   UNL d   1      -0.835  -5.361  -0.066  0.00  0.00     0.006 A 
ATOM     14  C   UNL d   1      -1.649  -4.524  -0.827  0.00  0.00     0.045 A 
ATOM     15  C   UNL d   1      -1.481  -3.138  -0.771  0.00  0.00     0.148 A 
ATOM     16  F   UNL d   1      -2.224  -2.402  -1.606  0.00  0.00    -0.203 F 
ENDBRANCH   1   9
BRANCH   4  17
ATOM     17  C   UNL d   1      -0.744   2.434  -0.114  0.00  0.00     0.175 C 
ATOM     18  O   UNL d   1      -1.911   2.788  -0.283  0.00  0.00    -0.291 OA
ATOM     19  C   UNL d   1       0.340   3.478   0.008  0.00  0.00     0.098 C 
ENDBRANCH   4  17
TORSDOF 2
