REMARK  5 active torsions:
REMARK  status: ('A' for Active; 'I' for Inactive)
REMARK    1  A    between atoms: C_2  and  C_1 
REMARK       I    between atoms: N_11  and  C_2 
REMARK    2  A    between atoms: N_3  and  C_14 
REMARK    3  A    between atoms: C_19  and  N_11 
REMARK    4  A    between atoms: C_14  and  C_15 
REMARK    5  A    between atoms: C_15  and  C_19 
ROOT
ATOM      1  C   UNL d   1       1.148   2.464   1.221  0.00  0.00     0.257 C 
ATOM      2  O   UNL d   1       1.211   3.023   2.309  0.00  0.00    -0.267 OA
ATOM      3  N   UNL d   1       1.125   3.182   0.040  0.00  0.00    -0.357 N 
ATOM      4  H   UNL d   1       1.091   2.687  -0.846  0.00  0.00     0.162 HD
ENDROOT
BRANCH   1   5
ATOM      5  C   UNL d   1       1.103   0.978   1.122  0.00  0.00     0.108 A 
ATOM      6  C   UNL d   1       1.075   0.204   2.286  0.00  0.00     0.135 A 
ATOM      7  F   UNL d   1       1.078   0.764   3.504  0.00  0.00    -0.205 F 
ATOM      8  C   UNL d   1       1.044  -1.192   2.229  0.00  0.00     0.043 A 
ATOM      9  C   UNL d   1       1.037  -1.844   0.999  0.00  0.00     0.006 A 
ATOM     10  C   UNL d   1       1.063  -1.091  -0.171  0.00  0.00     0.043 A 
ATOM     11  C   UNL d   1       1.095   0.304  -0.103  0.00  0.00     0.135 A 
ATOM     12  F   UNL d   1       1.125   0.978  -1.265  0.00  0.00    -0.205 F 
ENDBRANCH   1   5
BRANCH   3  13
ATOM     13  C   UNL d   1       1.216   4.629   0.018  0.00  0.00     0.124 C 
BRANCH  13  14
ATOM     14  C   UNL d   1       2.659   5.128   0.062  0.00  0.00     0.040 C 
BRANCH  14  15
ATOM     15  C   UNL d   1       3.451   4.681  -1.163  0.00  0.00     0.129 C 
BRANCH  15  16
ATOM     16  N   UNL d   1       4.815   5.185  -1.155  0.00  0.00    -0.366 N 
ATOM     17  C   UNL d   1       5.227   6.359  -1.729  0.00  0.00     0.090 A 
ATOM     18  C   UNL d   1       6.588   6.465  -1.542  0.00  0.00     0.019 A 
ATOM     19  C   UNL d   1       7.009   5.311  -0.839  0.00  0.00     0.019 A 
ATOM     20  C   UNL d   1       5.892   4.536  -0.614  0.00  0.00     0.090 A 
ENDBRANCH  15  16
ENDBRANCH  14  15
ENDBRANCH  13  14
ENDBRANCH   3  13
TORSDOF 5
