REMARK  7 active torsions:
REMARK  status: ('A' for Active; 'I' for Inactive)
REMARK    1  A    between atoms: O_6  and  C_1 
REMARK    2  A    between atoms: C_7  and  C_1 
REMARK    3  A    between atoms: C_2  and  C_8 
REMARK    4  A    between atoms: C_5  and  C_2 
REMARK    5  A    between atoms: C_11  and  C_7 
REMARK    6  A    between atoms: C_8  and  C_12 
REMARK    7  A    between atoms: C_12  and  C_11 
ROOT
ATOM      1  C   UNL d   1       6.691   0.406  -2.859  0.00  0.00     0.159 C 
ATOM      2  O   UNL d   1       7.395   1.400  -2.676  0.00  0.00    -0.292 OA
ENDROOT
BRANCH   1   3
ATOM      3  C   UNL d   1       5.179   0.514  -2.798  0.00  0.00     0.084 C 
BRANCH   3   4
ATOM      4  C   UNL d   1       4.642   0.238  -1.394  0.00  0.00     0.008 C 
BRANCH   4   5
ATOM      5  C   UNL d   1       5.135   1.270  -0.376  0.00  0.00     0.011 C 
BRANCH   5   6
ATOM      6  C   UNL d   1       4.611   0.985   1.027  0.00  0.00     0.110 C 
BRANCH   6   7
ATOM      7  C   UNL d   1       5.107   1.998   2.027  0.00  0.00     0.139 C 
ATOM      8  O   UNL d   1       4.372   2.739   2.664  0.00  0.00    -0.650 OA
BRANCH   7   9
ATOM      9  O   UNL d   1       6.447   1.991   2.197  0.00  0.00    -0.776 OA
ATOM     10  H   UNL d   1       6.925   1.355   1.632  0.00  0.00     0.167 HD
ENDBRANCH   7   9
ENDBRANCH   6   7
ENDBRANCH   5   6
ENDBRANCH   4   5
ENDBRANCH   3   4
ENDBRANCH   1   3
BRANCH   1  11
ATOM     11  C   UNL d   1       7.346  -0.918  -3.087  0.00  0.00     0.010 A 
ATOM     12  C   UNL d   1       6.621  -2.104  -3.252  0.00  0.00     0.015 A 
ATOM     13  C   UNL d   1       7.291  -3.311  -3.476  0.00  0.00     0.001 A 
ATOM     14  C   UNL d   1       8.684  -3.342  -3.527  0.00  0.00     0.000 A 
ATOM     15  C   UNL d   1       9.413  -2.169  -3.347  0.00  0.00     0.001 A 
ATOM     16  C   UNL d   1       8.748  -0.962  -3.127  0.00  0.00     0.015 A 
ENDBRANCH   1  11
TORSDOF 7
