REMARK  2 active torsions:
REMARK  status: ('A' for Active; 'I' for Inactive)
REMARK    1  A    between atoms: C_9  and  N_5 
REMARK    2  A    between atoms: C_11  and  C_7 
ROOT
ATOM      1  C   UNL d   1       0.429   1.398   0.246  0.00  0.00     0.161 C 
ATOM      2  N   UNL d   1      -1.339  -0.360   0.149  0.00  0.00    -0.299 N 
ATOM      3  HN  UNL d   1      -2.340  -0.557   0.153  1.00  0.00     0.187 HD
ATOM      4  N   UNL d   1      -0.884   0.943   0.116  0.00  0.00    -0.275 N 
ATOM      5  N   UNL d   1       0.834   2.522  -0.275  0.00  0.00    -0.334 N 
ATOM      6  HN  UNL d   1       0.138   3.105  -0.739  1.00  0.00     0.168 HD
ATOM      7  C   UNL d   1      -0.476  -1.333   0.175  0.00  0.00     0.046 C 
ATOM      8  S   UNL d   1       1.463   0.306   1.168  0.00  0.00    -0.086 SA
ATOM      9  C   UNL d   1       1.025  -1.149   0.204  0.00  0.00     0.142 C 
ATOM     10  C   UNL d   1      -1.939   1.932  -0.091  0.00  0.00     0.180 C 
ENDROOT
BRANCH   5  11
ATOM     11  C   UNL d   1       2.164   2.990  -0.243  0.00  0.00     0.056 A 
ATOM     12  C   UNL d   1       2.459   4.310   0.141  0.00  0.00     0.060 A 
ATOM     13 CL   UNL d   1       1.212   5.397   0.651  0.00  0.00    -0.082 Cl
ATOM     14  C   UNL d   1       3.772   4.799   0.094  0.00  0.00     0.026 A 
ATOM     15  C   UNL d   1       4.812   3.975  -0.333  0.00  0.00     0.002 A 
ATOM     16  C   UNL d   1       4.537   2.676  -0.747  0.00  0.00     0.002 A 
ATOM     17  C   UNL d   1       3.219   2.206  -0.734  0.00  0.00     0.031 A 
ENDBRANCH   5  11
BRANCH   7  18
ATOM     18  C   UNL d   1      -0.985  -2.739   0.131  0.00  0.00    -0.011 A 
ATOM     19  C   UNL d   1      -2.238  -3.025   0.685  0.00  0.00     0.013 A 
ATOM     20  C   UNL d   1      -2.726  -4.332   0.679  0.00  0.00     0.001 A 
ATOM     21  C   UNL d   1      -1.974  -5.356   0.111  0.00  0.00     0.000 A 
ATOM     22  C   UNL d   1      -0.735  -5.077  -0.468  0.00  0.00     0.001 A 
ATOM     23  C   UNL d   1      -0.241  -3.769  -0.462  0.00  0.00     0.013 A 
ENDBRANCH   7  18
TORSDOF 2
