REMARK  4 active torsions:
REMARK  status: ('A' for Active; 'I' for Inactive)
REMARK    1  A    between atoms: C_9  and  C_3 
REMARK    2  A    between atoms: C_7  and  C_4 
REMARK    3  A    between atoms: C_8  and  C_7 
REMARK    4  A    between atoms: O_14  and  C_8 
ROOT
ATOM      1  N   UNL d   1      -1.327  -1.004  -0.010  0.00  0.00    -0.352 N 
ATOM      2  HN  UNL d   1      -2.088  -1.683  -0.012  1.00  0.00     0.166 HD
ATOM      3  C   UNL d   1      -1.494   0.304  -0.030  0.00  0.00     0.085 A 
ATOM      4  C   UNL d   1       0.027  -1.333   0.013  0.00  0.00     0.032 A 
ATOM      5  S   UNL d   1      -0.038   1.210   0.083  0.00  0.00    -0.075 SA
ATOM      6  C   UNL d   1       0.877  -0.239   0.090  0.00  0.00     0.004 A 
ATOM      7  C   UNL d   1       2.360  -0.152   0.152  0.00  0.00     0.058 C 
ENDROOT
BRANCH   3   8
ATOM      8  C   UNL d   1      -2.797   0.985  -0.097  0.00  0.00    -0.002 A 
ATOM      9  C   UNL d   1      -3.921   0.399   0.509  0.00  0.00     0.016 A 
ATOM     10  C   UNL d   1      -5.172   1.025   0.456  0.00  0.00     0.024 A 
ATOM     11  C   UNL d   1      -5.311   2.238  -0.214  0.00  0.00     0.034 A 
ATOM     12  C   UNL d   1      -4.214   2.830  -0.831  0.00  0.00     0.024 A 
ATOM     13 CL   UNL d   1      -6.848   3.006  -0.290  0.00  0.00    -0.084 Cl
ATOM     14  C   UNL d   1      -2.965   2.205  -0.773  0.00  0.00     0.016 A 
ENDBRANCH   3   8
BRANCH   4  15
ATOM     15  C   UNL d   1       0.381  -2.789   0.020  0.00  0.00     0.169 C 
BRANCH  15  16
ATOM     16  C   UNL d   1       1.183  -3.238  -1.180  0.00  0.00     0.264 C 
ATOM     17  O   UNL d   1       1.712  -2.514  -2.016  0.00  0.00    -0.265 OA
BRANCH  16  18
ATOM     18  O   UNL d   1       1.289  -4.603  -1.163  0.00  0.00    -0.326 OA
ATOM     19  C   UNL d   1       2.045  -5.173  -2.235  0.00  0.00     0.213 C 
ENDBRANCH  16  18
ENDBRANCH  15  16
ENDBRANCH   4  15
TORSDOF 4
