REMARK  4 active torsions:
REMARK  status: ('A' for Active; 'I' for Inactive)
REMARK    1  A    between atoms: N_15  and  C_7 
REMARK    2  A    between atoms: C_8  and  C_10 
REMARK    3  A    between atoms: C_9  and  C_11 
REMARK    4  A    between atoms: C_17  and  N_15 
ROOT
ATOM      1  N   UNL d   1      -4.382  -0.135   1.807  0.00  0.00    -0.364 N 
ATOM      2  H   UNL d   1      -4.462   0.801   1.400  0.00  0.00     0.165 HD
ENDROOT
BRANCH   1   3
ATOM      3  C   UNL d   1      -3.257  -0.835   1.442  0.00  0.00     0.118 C 
ATOM      4  C   UNL d   1      -2.370  -0.513   0.486  0.00  0.00     0.146 C 
ATOM      5  S   UNL d   1      -1.123  -1.598   0.035  0.00  0.00     0.270 S 
ATOM      6  C   UNL d   1      -2.590   0.618  -0.423  0.00  0.00     0.209 C 
ATOM      7  N   UNL d   1      -1.658  -1.986  -1.527  0.00  0.00    -0.275 N 
ATOM      8  O   UNL d   1       0.129  -0.889  -0.099  0.00  0.00    -0.200 OA
ATOM      9  O   UNL d   1      -1.181  -2.806   0.835  0.00  0.00    -0.200 OA
ATOM     10  C   UNL d   1      -1.907  -0.853  -2.396  0.00  0.00     0.059 A 
ATOM     11  C   UNL d   1      -1.359  -3.327  -2.040  0.00  0.00     0.170 C 
ATOM     12  C   UNL d   1      -2.341   0.390  -1.877  0.00  0.00     0.043 A 
ATOM     13  C   UNL d   1      -1.846  -1.004  -3.788  0.00  0.00     0.031 A 
ATOM     14  C   UNL d   1      -2.655   1.450  -2.745  0.00  0.00     0.018 A 
ATOM     15  C   UNL d   1      -2.575   1.278  -4.125  0.00  0.00     0.001 A 
ATOM     16  C   UNL d   1      -2.175   0.052  -4.644  0.00  0.00     0.002 A 
ATOM     17  O   UNL d   1      -3.053   1.681  -0.014  0.00  0.00    -0.286 OA
ENDBRANCH   1   3
BRANCH   1  18
ATOM     18  C   UNL d   1      -5.433  -0.543   2.639  0.00  0.00     0.033 A 
ATOM     19  C   UNL d   1      -6.220   0.443   3.247  0.00  0.00     0.045 A 
ATOM     20  C   UNL d   1      -7.236   0.119   4.160  0.00  0.00     0.050 A 
ATOM     21  C   UNL d   1      -7.471  -1.230   4.462  0.00  0.00     0.032 A 
ATOM     22  C   UNL d   1      -6.704  -2.241   3.866  0.00  0.00     0.050 A 
ATOM     23  C   UNL d   1      -5.686  -1.883   2.964  0.00  0.00     0.045 A 
BRANCH  20  24
ATOM     24  C   UNL d   1      -8.039   1.220   4.806  0.00  0.00     0.417 C 
ATOM     25  F   UNL d   1      -8.998   0.762   5.658  0.00  0.00    -0.166 F 
ATOM     26  F   UNL d   1      -7.265   2.069   5.536  0.00  0.00    -0.166 F 
ATOM     27  F   UNL d   1      -8.689   1.993   3.894  0.00  0.00    -0.166 F 
ENDBRANCH  20  24
BRANCH  22  28
ATOM     28  C   UNL d   1      -6.958  -3.697   4.178  0.00  0.00     0.417 C 
ATOM     29  F   UNL d   1      -7.944  -3.889   5.100  0.00  0.00    -0.166 F 
ATOM     30  F   UNL d   1      -7.333  -4.408   3.080  0.00  0.00    -0.166 F 
ATOM     31  F   UNL d   1      -5.857  -4.325   4.675  0.00  0.00    -0.166 F 
ENDBRANCH  22  28
ENDBRANCH   1  18
TORSDOF 4
