REMARK  4 active torsions:
REMARK  status: ('A' for Active; 'I' for Inactive)
REMARK    1  A    between atoms: C_8  and  C_1 
REMARK    2  A    between atoms: O_11  and  C_6 
REMARK    3  A    between atoms: C_15  and  C_9 
REMARK    4  A    between atoms: C_18  and  C_15 
ROOT
ATOM      1  C   UNL d   1       1.021  -1.146   0.023  0.00  0.00     0.117 A 
ATOM      2  N   UNL d   1      -0.323  -1.183  -0.019  0.00  0.00    -0.323 N 
ATOM      3  HN  UNL d   1      -0.847  -2.058  -0.041  1.00  0.00     0.169 HD
ATOM      4  N   UNL d   1       1.751  -0.010   0.048  0.00  0.00    -0.345 N 
ATOM      5  HN  UNL d   1       2.770  -0.038   0.086  1.00  0.00     0.167 HD
ATOM      6  C   UNL d   1      -0.921   0.009  -0.028  0.00  0.00     0.143 A 
ATOM      7  C   UNL d   1      -0.290   1.223  -0.005  0.00  0.00     0.081 A 
ATOM      8  C   UNL d   1       1.085   1.164   0.023  0.00  0.00     0.015 A 
ENDROOT
BRANCH   1   9
ATOM      9  C   UNL d   1       1.745  -2.433   0.051  0.00  0.00     0.009 A 
ATOM     10  C   UNL d   1       3.152  -2.485   0.120  0.00  0.00     0.022 A 
ATOM     11  C   UNL d   1       3.849  -3.703   0.167  0.00  0.00    -0.061 A 
ATOM     12  C   UNL d   1       5.346  -3.728   0.256  0.00  0.00     0.048 C 
ATOM     13  C   UNL d   1       3.130  -4.900   0.134  0.00  0.00     0.007 A 
ATOM     14  C   UNL d   1       1.740  -4.881   0.058  0.00  0.00     0.002 A 
ATOM     15  C   UNL d   1       1.059  -3.662   0.018  0.00  0.00     0.015 A 
ENDBRANCH   1   9
BRANCH   6  16
ATOM     16  O   UNL d   1      -2.277  -0.054  -0.064  0.00  0.00    -0.346 OA
ATOM     17  H   UNL d   1      -2.408  -1.020  -0.073  0.00  0.00     0.219 HD
ENDBRANCH   6  16
BRANCH   8  18
ATOM     18  C   UNL d   1       1.910   2.426   0.039  0.00  0.00     0.057 C 
BRANCH  18  19
ATOM     19  C   UNL d   1       2.897   2.525  -1.129  0.00  0.00     0.002 C 
ATOM     20  C   UNL d   1       2.217   2.553  -2.491  0.00  0.00     0.005 C 
ENDBRANCH  18  19
ENDBRANCH   8  18
TORSDOF 4
