REMARK  5 active torsions:
REMARK  status: ('A' for Active; 'I' for Inactive)
REMARK    1  A    between atoms: N_7  and  C_3 
REMARK    2  A    between atoms: C_8  and  C_6 
REMARK    3  A    between atoms: C_10  and  N_7 
REMARK    4  A    between atoms: C_9  and  C_8 
REMARK       I    between atoms: N_11  and  C_9 
REMARK    5  A    between atoms: C_14  and  N_11 
ROOT
ATOM      1  N   UNL d   1      -0.602  -1.633   0.138  0.00  0.00    -0.307 N 
ATOM      2  HN  UNL d   1      -1.109  -2.421   0.541  1.00  0.00     0.171 HD
ATOM      3  C   UNL d   1       0.586  -1.716  -0.351  0.00  0.00     0.143 C 
ATOM      4  C   UNL d   1      -1.107  -0.356   0.053  0.00  0.00     0.238 C 
ATOM      5  S   UNL d   1       1.287  -0.242  -0.973  0.00  0.00    -0.079 SA
ATOM      6  C   UNL d   1      -0.046   0.716  -0.185  0.00  0.00     0.156 C 
ATOM      7  O   UNL d   1      -2.296  -0.070   0.179  0.00  0.00    -0.272 OA
ENDROOT
BRANCH   6   8
ATOM      8  C   UNL d   1      -0.525   1.820  -1.103  0.00  0.00     0.128 C 
BRANCH   8   9
ATOM      9  C   UNL d   1      -1.029   2.993  -0.289  0.00  0.00     0.223 C 
ATOM     10  N   UNL d   1      -2.350   2.879   0.094  0.00  0.00    -0.326 N 
ATOM     11  H   UNL d   1      -2.861   2.046  -0.204  0.00  0.00     0.169 HD
ATOM     12  O   UNL d   1      -0.289   3.949  -0.073  0.00  0.00    -0.273 OA
BRANCH  10  13
ATOM     13  C   UNL d   1      -3.164   3.978   0.473  0.00  0.00     0.056 A 
ATOM     14  C   UNL d   1      -4.531   3.947   0.150  0.00  0.00     0.060 A 
ATOM     15 CL   UNL d   1      -5.246   2.549  -0.578  0.00  0.00    -0.082 Cl
ATOM     16  C   UNL d   1      -5.331   5.078   0.332  0.00  0.00     0.026 A 
ATOM     17  C   UNL d   1      -4.786   6.234   0.888  0.00  0.00     0.002 A 
ATOM     18  C   UNL d   1      -3.452   6.247   1.289  0.00  0.00     0.002 A 
ATOM     19  C   UNL d   1      -2.644   5.125   1.082  0.00  0.00     0.031 A 
ENDBRANCH  10  13
ENDBRANCH   8   9
ENDBRANCH   6   8
BRANCH   3  20
ATOM     20  N   UNL d   1       1.409  -2.784  -0.438  0.00  0.00    -0.365 N 
ATOM     21  H   UNL d   1       2.236  -2.675  -1.016  0.00  0.00     0.162 HD
BRANCH  20  22
ATOM     22  C   UNL d   1       1.207  -4.082   0.166  0.00  0.00     0.091 C 
ATOM     23  C   UNL d   1       0.547  -5.117  -0.783  0.00  0.00     0.031 C 
ATOM     24  C   UNL d   1       1.324  -5.182  -2.084  0.00  0.00    -0.024 C 
ATOM     25  C   UNL d   1       1.044  -6.430  -0.162  0.00  0.00     0.019 C 
ATOM     26  C   UNL d   1       2.515  -5.733  -1.805  0.00  0.00    -0.026 C 
ATOM     27  C   UNL d   1       2.521  -6.065  -0.329  0.00  0.00     0.010 C 
ATOM     28  C   UNL d   1       2.590  -4.748   0.471  0.00  0.00     0.034 C 
ENDBRANCH  20  22
ENDBRANCH   3  20
TORSDOF 5
