REMARK  2 active torsions:
REMARK  status: ('A' for Active; 'I' for Inactive)
REMARK    1  A    between atoms: C_11  and  N_2 
REMARK    2  A    between atoms: O_13  and  C_10 
ROOT
ATOM      1  C   UNL d   1       0.194  -0.603   0.012  0.00  0.00     0.137 A 
ATOM      2  N   UNL d   1       1.507  -1.017   0.012  0.00  0.00    -0.267 N 
ATOM      3  N   UNL d   1       2.374   0.018   0.004  0.00  0.00    -0.300 N 
ATOM      4  HN  UNL d   1       3.393  -0.026  -0.001  1.00  0.00     0.187 HD
ATOM      5  C   UNL d   1       0.214   0.795   0.010  0.00  0.00     0.039 A 
ATOM      6  C   UNL d   1       1.605   1.114   0.003  0.00  0.00     0.036 A 
ATOM      7  N   UNL d   1      -0.894  -1.405   0.013  0.00  0.00    -0.321 N 
ATOM      8  HN  UNL d   1      -0.846  -2.424   0.013  1.00  0.00     0.169 HD
ATOM      9  C   UNL d   1      -1.036   1.470   0.013  0.00  0.00    -0.042 A 
ATOM     10  C   UNL d   1      -2.042  -0.716   0.012  0.00  0.00     0.141 A 
ATOM     11  C   UNL d   1      -2.182   0.655   0.013  0.00  0.00     0.063 A 
ATOM     12  C   UNL d   1       2.306   2.421  -0.006  0.00  0.00     0.070 C 
ATOM     13  C   UNL d   1      -1.257   2.956   0.015  0.00  0.00     0.049 C 
ENDROOT
BRANCH   2  14
ATOM     14  C   UNL d   1       2.016  -2.402   0.009  0.00  0.00     0.044 C 
ATOM     15  C   UNL d   1       1.555  -3.140  -1.263  0.00  0.00     0.039 C 
ATOM     16  C   UNL d   1       3.566  -2.435   0.031  0.00  0.00     0.039 C 
ATOM     17  C   UNL d   1       1.527  -3.164   1.256  0.00  0.00     0.039 C 
ENDBRANCH   2  14
BRANCH  10  18
ATOM     18  O   UNL d   1      -3.152  -1.500   0.011  0.00  0.00    -0.346 OA
ATOM     19  H   UNL d   1      -2.739  -2.381   0.010  0.00  0.00     0.219 HD
ENDBRANCH  10  18
TORSDOF 2
