REMARK  5 active torsions:
REMARK  status: ('A' for Active; 'I' for Inactive)
REMARK    1  A    between atoms: C_6  and  N_1 
REMARK    2  A    between atoms: N_10  and  C_6 
REMARK    3  A    between atoms: N_13  and  C_7 
REMARK    4  A    between atoms: C_17  and  N_10 
REMARK    5  A    between atoms: C_11  and  C_12 
ROOT
ATOM      1  N   UNL d   1       0.260  -1.061   0.042  0.00  0.00    -0.276 N 
ATOM      2  C   UNL d   1      -1.125   0.673   0.583  0.00  0.00     0.118 C 
ATOM      3  C   UNL d   1       0.688   0.074  -0.622  0.00  0.00     0.182 C 
ATOM      4  C   UNL d   1      -0.939  -0.802   0.666  0.00  0.00     0.279 C 
ATOM      5  N   UNL d   1      -0.157   1.124  -0.274  0.00  0.00    -0.327 N 
ATOM      6  C   UNL d   1      -2.038   1.436   1.198  0.00  0.00     0.120 C 
ATOM      7  S   UNL d   1       1.974   0.270  -1.650  0.00  0.00    -0.040 SA
ATOM      8  O   UNL d   1      -1.755  -1.629   1.055  0.00  0.00    -0.265 OA
ATOM      9  H   UNL d   1      -0.032   2.083  -0.570  0.00  0.00     0.168 HD
ENDROOT
BRANCH   1  10
ATOM     10  C   UNL d   1       0.688  -2.432  -0.095  0.00  0.00     0.229 C 
BRANCH  10  11
ATOM     11  N   UNL d   1       2.075  -2.567   0.312  0.00  0.00    -0.276 NA
ATOM     12  H   UNL d   1       2.660  -1.884  -0.167  0.00  0.00     0.129 HD
BRANCH  11  13
ATOM     13  C   UNL d   1       2.642  -3.852   0.269  0.00  0.00     0.009 A 
ATOM     14  C   UNL d   1       4.024  -3.961   0.080  0.00  0.00     0.024 A 
ATOM     15  C   UNL d   1       4.668  -5.202   0.102  0.00  0.00     0.017 A 
ATOM     16  C   UNL d   1       3.947  -6.371   0.361  0.00  0.00     0.009 A 
ATOM     17  C   UNL d   1       2.572  -6.285   0.577  0.00  0.00     0.017 A 
ATOM     18  C   UNL d   1       1.933  -5.033   0.544  0.00  0.00     0.024 A 
BRANCH  16  19
ATOM     19  C   UNL d   1       4.701  -7.655   0.382  0.00  0.00     0.155 C 
ATOM     20  O   UNL d   1       5.710  -7.769  -0.314  0.00  0.00    -0.293 OA
ATOM     21  C   UNL d   1       4.266  -8.775   1.291  0.00  0.00     0.096 C 
ENDBRANCH  16  19
ENDBRANCH  11  13
ENDBRANCH  10  11
ENDBRANCH   1  10
BRANCH   6  22
ATOM     22  N   UNL d   1      -2.970   1.151   2.189  0.00  0.00    -0.396 N 
ATOM     23  C   UNL d   1      -2.820   0.061   3.157  0.00  0.00     0.148 C 
ATOM     24  C   UNL d   1      -4.254   1.845   2.267  0.00  0.00     0.148 C 
ENDBRANCH   6  22
TORSDOF 5
