REMARK  5 active torsions:
REMARK  status: ('A' for Active; 'I' for Inactive)
REMARK    1  A    between atoms: C_10  and  C_3 
REMARK    2  A    between atoms: N_4  and  C_9 
REMARK    3  A    between atoms: C_15  and  C_7 
REMARK    4  A    between atoms: S_14  and  C_15 
REMARK    5  A    between atoms: C_16  and  S_14 
ROOT
ATOM      1  N   UNL d   1       1.254   0.152  -0.207  0.00  0.00    -0.322 N 
ATOM      2  HN  UNL d   1       2.238   0.291  -0.435  1.00  0.00     0.169 HD
ATOM      3  C   UNL d   1       0.280   1.102   0.016  0.00  0.00     0.138 A 
ATOM      4  N   UNL d   1      -0.929   0.586   0.288  0.00  0.00    -0.242 N 
ATOM      5  HN  UNL d   1      -1.800   1.085   0.472  1.00  0.00     0.196 HD
ATOM      6  C   UNL d   1       0.599  -0.978  -0.052  0.00  0.00     0.158 A 
ATOM      7  O   UNL d   1      -0.717  -0.790   0.262  0.00  0.00    -0.222 OA
ENDROOT
BRANCH   3   8
ATOM      8  C   UNL d   1       0.580   2.530   0.013  0.00  0.00     0.012 A 
ATOM      9  C   UNL d   1       1.893   2.967  -0.219  0.00  0.00     0.051 A 
ATOM     10  C   UNL d   1       2.197   4.334  -0.165  0.00  0.00     0.103 A 
ATOM     11  C   UNL d   1       1.199   5.278   0.111  0.00  0.00     0.036 A 
ATOM     12  C   UNL d   1      -0.110   4.848   0.327  0.00  0.00     0.003 A 
ATOM     13  C   UNL d   1      -0.417   3.484   0.277  0.00  0.00     0.015 A 
BRANCH  10  14
ATOM     14  N   UNL d   1       3.577   4.779  -0.386  0.00  0.00    -0.116 N 
ATOM     15  O   UNL d   1       4.432   3.913  -0.628  0.00  0.00    -0.532 OA
ATOM     16  O   UNL d   1       3.811   5.993  -0.315  0.00  0.00    -0.532 OA
ENDBRANCH  10  14
ENDBRANCH   3   8
BRANCH   6  17
ATOM     17  C   UNL d   1       1.115  -2.372  -0.097  0.00  0.00     0.166 C 
BRANCH  17  18
ATOM     18  S   UNL d   1      -0.038  -3.521  -0.918  0.00  0.00    -0.122 SA
BRANCH  18  19
ATOM     19  C   UNL d   1       0.738  -5.106  -0.640  0.00  0.00     0.001 A 
ATOM     20  C   UNL d   1      -0.098  -6.210  -0.428  0.00  0.00     0.018 A 
ATOM     21  C   UNL d   1       0.435  -7.493  -0.284  0.00  0.00     0.001 A 
ATOM     22  C   UNL d   1       1.812  -7.685  -0.354  0.00  0.00     0.000 A 
ATOM     23  C   UNL d   1       2.654  -6.595  -0.560  0.00  0.00     0.001 A 
ATOM     24  C   UNL d   1       2.120  -5.310  -0.706  0.00  0.00     0.018 A 
ENDBRANCH  18  19
ENDBRANCH  17  18
ENDBRANCH   6  17
TORSDOF 5
