REMARK  7 active torsions:
REMARK  status: ('A' for Active; 'I' for Inactive)
REMARK    1  A    between atoms: N_8  and  C_1 
REMARK    2  A    between atoms: C_10  and  N_8 
REMARK    3  A    between atoms: C_9  and  C_10 
REMARK    4  A    between atoms: O_14  and  C_9 
REMARK    5  A    between atoms: C_16  and  O_14 
REMARK    6  A    between atoms: C_17  and  C_16 
REMARK    7  A    between atoms: C_18  and  C_17 
ROOT
ATOM      1  C   UNL d   1      -0.779   1.243  -0.548  0.00  0.00     0.186 C 
ATOM      2  N   UNL d   1       1.330   0.387  -1.460  0.00  0.00    -0.296 N 
ATOM      3  C   UNL d   1       0.756   1.303  -0.628  0.00  0.00     0.292 C 
ATOM      4  N   UNL d   1      -1.423   0.259  -1.106  0.00  0.00    -0.279 N 
ATOM      5  HN  UNL d   1      -2.440   0.201  -1.049  1.00  0.00     0.189 HD
ATOM      6  C   UNL d   1       0.636  -0.642  -2.009  0.00  0.00     0.193 C 
ATOM      7  N   UNL d   1      -0.706  -0.691  -1.768  0.00  0.00    -0.274 N 
ATOM      8  S   UNL d   1       1.395  -1.799  -2.932  0.00  0.00    -0.039 SA
ATOM      9  O   UNL d   1       1.370   2.138   0.019  0.00  0.00    -0.264 OA
ATOM     10  H   UNL d   1       2.332   0.416  -1.574  0.00  0.00     0.171 HD
ATOM     11  H   UNL d   1      -1.246  -1.459  -2.159  0.00  0.00     0.189 HD
ENDROOT
BRANCH   1  12
ATOM     12  N   UNL d   1      -1.416   2.276   0.103  0.00  0.00    -0.357 N 
ATOM     13  H   UNL d   1      -0.839   2.927   0.630  0.00  0.00     0.162 HD
BRANCH  12  14
ATOM     14  C   UNL d   1      -2.860   2.445   0.131  0.00  0.00     0.179 C 
ATOM     15  C   UNL d   1      -3.208   3.921  -0.079  0.00  0.00     0.043 C 
BRANCH  14  16
ATOM     16  C   UNL d   1      -3.487   1.913   1.424  0.00  0.00     0.281 C 
ATOM     17  O   UNL d   1      -4.019   0.820   1.547  0.00  0.00    -0.263 OA
BRANCH  16  18
ATOM     18  O   UNL d   1      -3.466   2.870   2.398  0.00  0.00    -0.320 OA
BRANCH  18  19
ATOM     19  C   UNL d   1      -4.698   2.991   3.115  0.00  0.00     0.178 C 
BRANCH  19  20
ATOM     20  C   UNL d   1      -4.523   2.645   4.584  0.00  0.00     0.026 C 
BRANCH  20  21
ATOM     21  C   UNL d   1      -5.824   2.916   5.339  0.00  0.00    -0.002 C 
ATOM     22  C   UNL d   1      -5.709   2.575   6.813  0.00  0.00     0.005 C 
ENDBRANCH  20  21
ENDBRANCH  19  20
ENDBRANCH  18  19
ENDBRANCH  16  18
ENDBRANCH  14  16
ENDBRANCH  12  14
ENDBRANCH   1  12
TORSDOF 7
