REMARK  6 active torsions:
REMARK  status: ('A' for Active; 'I' for Inactive)
REMARK    1  A    between atoms: N_2  and  S_1 
REMARK    2  A    between atoms: C_3  and  S_1 
REMARK    3  A    between atoms: C_15  and  C_4 
REMARK    4  A    between atoms: C_11  and  C_5 
REMARK    5  A    between atoms: C_7  and  C_12 
REMARK    6  A    between atoms: O_26  and  C_15 
ROOT
ATOM      1  C   UNL d   1       0.539   1.110  -1.391  0.00  0.00     0.116 A 
ATOM      2  S   UNL d   1      -1.098   1.417  -1.777  0.00  0.00    -0.075 SA
ATOM      3  C   UNL d   1      -0.676   2.207  -3.237  0.00  0.00     0.035 A 
ATOM      4  C   UNL d   1       1.391   1.743  -2.278  0.00  0.00     0.034 A 
ATOM      5  C   UNL d   1       0.690   2.369  -3.349  0.00  0.00     0.023 A 
ENDROOT
BRANCH   1   6
ATOM      6  S   UNL d   1       0.866   0.006  -0.035  0.00  0.00     0.251 S 
ATOM      7  O   UNL d   1       0.075  -1.173  -0.311  0.00  0.00    -0.205 OA
ATOM      8  O   UNL d   1       2.308  -0.072   0.019  0.00  0.00    -0.205 OA
BRANCH   6   9
ATOM      9  N   UNL d   1       0.331   0.647   1.432  0.00  0.00    -0.181 NA
ATOM     10  C   UNL d   1       0.850   1.980   1.815  0.00  0.00     0.235 C 
ATOM     11  S   UNL d   1       2.283   1.691   2.885  0.00  0.00    -0.137 SA
ATOM     12  C   UNL d   1       1.615   0.139   3.515  0.00  0.00     0.091 C 
ATOM     13  C   UNL d   1       0.476  -0.295   2.590  0.00  0.00     0.120 C 
BRANCH  10  14
ATOM     14  C   UNL d   1      -0.216   2.712   2.654  0.00  0.00     0.287 C 
ATOM     15  O   UNL d   1      -0.986   2.171   3.444  0.00  0.00    -0.262 OA
BRANCH  14  16
ATOM     16  O   UNL d   1      -0.150   4.063   2.464  0.00  0.00    -0.325 OA
ATOM     17  C   UNL d   1      -1.046   4.789   3.309  0.00  0.00     0.213 C 
ENDBRANCH  14  16
ENDBRANCH  10  14
ENDBRANCH   6   9
ENDBRANCH   1   6
BRANCH   3  18
ATOM     18  C   UNL d   1      -1.655   2.642  -4.288  0.00  0.00     0.074 A 
ATOM     19  C   UNL d   1      -3.063   2.526  -4.241  0.00  0.00     0.077 A 
ATOM     20  C   UNL d   1      -3.492   3.007  -5.456  0.00  0.00     0.184 A 
ATOM     21  O   UNL d   1      -2.411   3.398  -6.184  0.00  0.00    -0.233 OA
ATOM     22  N   UNL d   1      -1.259   3.178  -5.451  0.00  0.00    -0.260 N 
ATOM     23  HN  UNL d   1      -0.302   3.383  -5.737  1.00  0.00     0.195 HD
BRANCH  20  24
ATOM     24  C   UNL d   1      -4.807   3.179  -6.095  0.00  0.00     0.441 C 
ATOM     25  F   UNL d   1      -5.818   2.806  -5.265  0.00  0.00    -0.164 F 
ATOM     26  F   UNL d   1      -5.047   4.468  -6.442  0.00  0.00    -0.164 F 
ATOM     27  F   UNL d   1      -4.934   2.431  -7.220  0.00  0.00    -0.164 F 
ENDBRANCH  20  24
ENDBRANCH   3  18
TORSDOF 6
