REMARK  3 active torsions:
REMARK  status: ('A' for Active; 'I' for Inactive)
REMARK    1  A    between atoms: C_3  and  C_1 
REMARK    2  A    between atoms: O_15  and  C_1 
REMARK    3  A    between atoms: C_2  and  C_7 
ROOT
ATOM      1  C   UNL d   1      -0.380   1.161   0.504  0.00  0.00     0.233 C 
ATOM      2  N   UNL d   1      -1.082  -0.087   0.178  0.00  0.00    -0.198 NA
ATOM      3  N   UNL d   1      -0.240  -1.146   0.087  0.00  0.00    -0.326 N 
ATOM      4  HN  UNL d   1      -0.494  -2.134   0.120  1.00  0.00     0.180 HD
ATOM      5  C   UNL d   1       0.949  -0.654  -0.051  0.00  0.00     0.012 C 
ATOM      6  C   UNL d   1       0.992   0.854  -0.083  0.00  0.00     0.120 C 
ATOM      7  H   UNL d   1      -1.873  -0.270   0.784  0.00  0.00     0.150 HD
ENDROOT
BRANCH   5   8
ATOM      8  C   UNL d   1       2.202  -1.502  -0.217  0.00  0.00     0.001 C 
ATOM      9  C   UNL d   1       3.214  -1.204   0.914  0.00  0.00     0.020 C 
ATOM     10  C   UNL d   1       4.486  -2.055   0.743  0.00  0.00    -0.013 C 
ATOM     11  C   UNL d   1       4.111  -3.544   0.786  0.00  0.00     0.009 C 
ATOM     12  C   UNL d   1       5.130  -1.734  -0.617  0.00  0.00     0.009 C 
ATOM     13  C   UNL d   1       3.123  -3.869  -0.345  0.00  0.00    -0.013 C 
ATOM     14  C   UNL d   1       1.858  -3.014  -0.172  0.00  0.00     0.020 C 
ATOM     15  C   UNL d   1       3.771  -3.540  -1.699  0.00  0.00     0.009 C 
ATOM     16  C   UNL d   1       4.144  -2.050  -1.756  0.00  0.00    -0.013 C 
ATOM     17  C   UNL d   1       2.874  -1.199  -1.578  0.00  0.00     0.020 C 
ENDBRANCH   5   8
BRANCH   1  18
ATOM     18  C   UNL d   1      -0.999   2.461  -0.102  0.00  0.00     0.434 C 
ATOM     19  F   UNL d   1      -1.986   2.208  -0.991  0.00  0.00    -0.166 F 
ATOM     20  F   UNL d   1      -1.556   3.213   0.888  0.00  0.00    -0.166 F 
ATOM     21  F   UNL d   1      -0.080   3.238  -0.719  0.00  0.00    -0.166 F 
ENDBRANCH   1  18
BRANCH   1  22
ATOM     22  O   UNL d   1      -0.235   1.246   1.933  0.00  0.00    -0.366 OA
ATOM     23  H   UNL d   1      -1.080   1.583   2.278  0.00  0.00     0.212 HD
ENDBRANCH   1  22
TORSDOF 3
