REMARK  5 active torsions:
REMARK  status: ('A' for Active; 'I' for Inactive)
REMARK    1  A    between atoms: C_2  and  C_1 
REMARK       I    between atoms: N_8  and  C_2 
REMARK    2  A    between atoms: C_20  and  C_5 
REMARK    3  A    between atoms: N_6  and  C_11 
REMARK    4  A    between atoms: C_7  and  N_8 
REMARK    5  A    between atoms: C_9  and  C_13 
ROOT
ATOM      1  C   UNL d   1      -1.819  -3.658  -0.380  0.00  0.00     0.062 A 
ATOM      2  C   UNL d   1      -2.228  -2.818  -1.460  0.00  0.00     0.057 A 
ATOM      3  C   UNL d   1      -4.081  -4.567  -0.129  0.00  0.00     0.050 A 
ATOM      4  C   UNL d   1      -2.734  -4.530   0.245  0.00  0.00     0.048 A 
ATOM      5  C   UNL d   1      -3.579  -2.947  -1.859  0.00  0.00     0.032 A 
ATOM      6  C   UNL d   1      -4.491  -3.791  -1.209  0.00  0.00     0.018 A 
ENDROOT
BRANCH   1   7
ATOM      7  N   UNL d   1      -0.536  -3.577   0.212  0.00  0.00    -0.321 N 
ATOM      8  C   UNL d   1       0.290  -4.646   0.516  0.00  0.00     0.261 C 
ATOM      9  O   UNL d   1       0.087  -5.803   0.155  0.00  0.00    -0.267 OA
ATOM     10  H   UNL d   1      -0.154  -2.660   0.349  0.00  0.00     0.169 HD
BRANCH   8  11
ATOM     11  C   UNL d   1       1.450  -4.271   1.310  0.00  0.00     0.093 A 
ATOM     12  C   UNL d   1       2.839  -4.666   1.265  0.00  0.00     0.083 A 
ATOM     13  N   UNL d   1       3.503  -4.044   2.260  0.00  0.00    -0.259 N 
ATOM     14  O   UNL d   1       2.605  -3.296   2.961  0.00  0.00    -0.241 OA
ATOM     15  HN  UNL d   1       4.501  -4.121   2.454  1.00  0.00     0.195 HD
ATOM     16  C   UNL d   1       1.380  -3.432   2.413  0.00  0.00     0.090 A 
ATOM     17  C   UNL d   1       0.296  -2.718   3.119  0.00  0.00     0.080 C 
BRANCH  12  18
ATOM     18  C   UNL d   1       3.624  -5.537   0.366  0.00  0.00    -0.006 A 
ATOM     19  C   UNL d   1       4.967  -5.837   0.696  0.00  0.00     0.014 A 
ATOM     20  C   UNL d   1       5.776  -6.620  -0.131  0.00  0.00     0.001 A 
ATOM     21  C   UNL d   1       5.268  -7.131  -1.314  0.00  0.00     0.000 A 
ATOM     22  C   UNL d   1       3.947  -6.857  -1.662  0.00  0.00     0.001 A 
ATOM     23  C   UNL d   1       3.132  -6.066  -0.834  0.00  0.00     0.014 A 
ENDBRANCH  12  18
ENDBRANCH   8  11
ENDBRANCH   1   7
BRANCH   2  24
ATOM     24  N   UNL d   1      -1.393  -1.939  -2.166  0.00  0.00    -0.374 N 
ATOM     25  C   UNL d   1      -0.239  -1.304  -1.536  0.00  0.00     0.162 C 
ATOM     26  C   UNL d   1       0.258  -0.056  -2.218  0.00  0.00    -0.034 A 
ATOM     27  C   UNL d   1       0.919   0.933  -1.476  0.00  0.00     0.009 A 
ATOM     28  C   UNL d   1       0.167   0.060  -3.609  0.00  0.00    -0.049 A 
ATOM     29  C   UNL d   1       1.483   2.031  -2.120  0.00  0.00     0.001 A 
ATOM     30  C   UNL d   1       1.399   2.141  -3.507  0.00  0.00     0.001 A 
ATOM     31  C   UNL d   1       0.745   1.157  -4.252  0.00  0.00     0.008 A 
ATOM     32  C   UNL d   1      -0.501  -1.061  -4.353  0.00  0.00     0.059 C 
ATOM     33  C   UNL d   1      -1.710  -1.587  -3.567  0.00  0.00     0.128 C 
ENDBRANCH   2  24
BRANCH   3  34
ATOM     34  C   UNL d   1      -5.094  -5.367   0.656  0.00  0.00     0.417 C 
ATOM     35  F   UNL d   1      -4.579  -5.966   1.765  0.00  0.00    -0.166 F 
ATOM     36  F   UNL d   1      -6.120  -4.588   1.106  0.00  0.00    -0.166 F 
ATOM     37  F   UNL d   1      -5.674  -6.356  -0.076  0.00  0.00    -0.166 F 
ENDBRANCH   3  34
TORSDOF 5
