REMARK  6 active torsions:
REMARK  status: ('A' for Active; 'I' for Inactive)
REMARK    1  A    between atoms: C_9  and  N_1 
REMARK    2  A    between atoms: C_12  and  N_6 
REMARK    3  A    between atoms: C_7  and  C_8 
REMARK       I    between atoms: N_10  and  C_7 
REMARK    4  A    between atoms: C_8  and  C_9 
REMARK    5  A    between atoms: C_15  and  N_10 
REMARK    6  A    between atoms: C_19  and  C_12 
ROOT
ATOM      1  C   UNL d   1       1.650   4.746  -0.075  0.00  0.00     0.219 C 
ATOM      2  N   UNL d   1       2.951   5.040   0.283  0.00  0.00    -0.356 N 
ATOM      3  O   UNL d   1       1.324   3.840  -0.824  0.00  0.00    -0.274 OA
ATOM      4  H   UNL d   1       3.095   5.828   0.901  0.00  0.00     0.162 HD
ENDROOT
BRANCH   2   5
ATOM      5  C   UNL d   1       4.174   4.398  -0.210  0.00  0.00     0.087 C 
ATOM      6  C   UNL d   1       4.389   4.560  -1.712  0.00  0.00     0.055 C 
ATOM      7  C   UNL d   1       3.932   3.365  -2.538  0.00  0.00     0.275 C 
ATOM      8  N   UNL d   1       4.570   2.128  -2.062  0.00  0.00     0.092 N 
ATOM      9  C   UNL d   1       4.118   1.854  -0.683  0.00  0.00     0.275 C 
ATOM     10  C   UNL d   1       4.430   2.981   0.304  0.00  0.00     0.055 C 
BRANCH   8  11
ATOM     11  C   UNL d   1       4.196   0.971  -2.912  0.00  0.00     0.311 C 
BRANCH  11  12
ATOM     12  C   UNL d   1       4.460   1.148  -4.396  0.00  0.00    -0.030 A 
ATOM     13  C   UNL d   1       5.759   1.343  -4.885  0.00  0.00     0.009 A 
ATOM     14  C   UNL d   1       5.978   1.542  -6.250  0.00  0.00     0.001 A 
ATOM     15  C   UNL d   1       4.904   1.545  -7.139  0.00  0.00     0.000 A 
ATOM     16  C   UNL d   1       3.608   1.341  -6.668  0.00  0.00     0.001 A 
ATOM     17  C   UNL d   1       3.388   1.142  -5.304  0.00  0.00     0.009 A 
ENDBRANCH  11  12
ENDBRANCH   8  11
ENDBRANCH   2   5
BRANCH   1  18
ATOM     18  C   UNL d   1       0.664   5.752   0.505  0.00  0.00     0.123 C 
BRANCH  18  19
ATOM     19  C   UNL d   1      -0.783   5.267   0.500  0.00  0.00     0.138 C 
BRANCH  19  20
ATOM     20  N   UNL d   1      -1.050   4.074   1.289  0.00  0.00    -0.355 N 
ATOM     21  C   UNL d   1      -0.356   3.687   2.406  0.00  0.00     0.099 C 
ATOM     22  C   UNL d   1      -0.763   2.416   2.752  0.00  0.00    -0.034 C 
ATOM     23  C   UNL d   1      -0.177   1.566   3.818  0.00  0.00     0.050 C 
ATOM     24  C   UNL d   1      -1.851   2.080   1.890  0.00  0.00    -0.002 A 
ATOM     25  C   UNL d   1      -2.037   3.148   1.008  0.00  0.00     0.045 A 
ATOM     26  C   UNL d   1      -2.695   0.955   1.782  0.00  0.00     0.014 A 
ATOM     27  C   UNL d   1      -3.058   3.142   0.041  0.00  0.00     0.030 A 
ATOM     28  C   UNL d   1      -3.890   2.021  -0.034  0.00  0.00     0.002 A 
ATOM     29  C   UNL d   1      -3.709   0.938   0.819  0.00  0.00     0.001 A 
ENDBRANCH  19  20
ENDBRANCH  18  19
ENDBRANCH   1  18
TORSDOF 6
