REMARK  2 active torsions:
REMARK  status: ('A' for Active; 'I' for Inactive)
REMARK    1  A    between atoms: C_16  and  C_10 
REMARK    2  A    between atoms: N_12  and  C_14 
REMARK       I    between atoms: C_15  and  N_12 
ROOT
ATOM      1  N   UNL d   1      -0.567   0.351  -0.974  0.00  0.00    -0.225 N 
ATOM      2  N   UNL d   1      -1.504  -0.636  -1.139  0.00  0.00    -0.290 N 
ATOM      3  HN  UNL d   1      -1.850  -0.933  -2.051  1.00  0.00     0.187 HD
ATOM      4  C   UNL d   1      -0.045   0.820   0.213  0.00  0.00     0.143 A 
ATOM      5  N   UNL d   1       0.831   1.772  -0.031  0.00  0.00    -0.283 N 
ATOM      6  HN  UNL d   1       1.369   2.288   0.666  1.00  0.00     0.188 HD
ATOM      7  N   UNL d   1       0.891   1.945  -1.395  0.00  0.00    -0.286 N 
ATOM      8  HN  UNL d   1       1.482   2.615  -1.888  1.00  0.00     0.188 HD
ATOM      9  C   UNL d   1       0.051   1.095  -1.953  0.00  0.00     0.116 A 
ATOM     10  C   UNL d   1      -1.907  -1.158  -0.015  0.00  0.00     0.059 A 
ATOM     11  C   UNL d   1      -0.522   0.254   1.406  0.00  0.00     0.054 A 
ATOM     12  C   UNL d   1      -1.443  -0.717   1.343  0.00  0.00     0.036 A 
ATOM     13  C   UNL d   1      -0.221   0.931  -3.394  0.00  0.00     0.092 C 
ENDROOT
BRANCH  10  14
ATOM     14  C   UNL d   1      -2.940  -2.239  -0.035  0.00  0.00    -0.006 A 
ATOM     15  C   UNL d   1      -2.966  -3.253   0.940  0.00  0.00     0.043 A 
ATOM     16  C   UNL d   1      -3.985  -4.220   0.991  0.00  0.00     0.037 A 
ATOM     17  C   UNL d   1      -4.974  -4.136  -0.004  0.00  0.00     0.030 A 
ATOM     18  C   UNL d   1      -4.922  -3.174  -1.022  0.00  0.00     0.003 A 
ATOM     19  C   UNL d   1      -3.903  -2.229  -1.042  0.00  0.00     0.014 A 
BRANCH  16  20
ATOM     20  N   UNL d   1      -4.002  -5.258   2.006  0.00  0.00    -0.323 N 
ATOM     21  C   UNL d   1      -3.257  -5.153   3.199  0.00  0.00     0.220 C 
ATOM     22  O   UNL d   1      -2.636  -4.149   3.563  0.00  0.00    -0.274 OA
ATOM     23  C   UNL d   1      -3.277  -6.336   4.147  0.00  0.00     0.117 C 
ATOM     24  C   UNL d   1      -4.835  -6.443   1.796  0.00  0.00     0.159 C 
ENDBRANCH  16  20
ENDBRANCH  10  14
TORSDOF 2
