REMARK  8 active torsions:
REMARK  status: ('A' for Active; 'I' for Inactive)
REMARK    1  A    between atoms: C_8  and  C_1 
REMARK    2  A    between atoms: O_12  and  C_2 
REMARK    3  A    between atoms: O_13  and  C_3 
REMARK    4  A    between atoms: C_7  and  C_17 
REMARK    5  A    between atoms: C_18  and  N_9 
REMARK    6  A    between atoms: S_16  and  C_21 
REMARK    7  A    between atoms: C_17  and  S_16 
REMARK    8  A    between atoms: C_21  and  C_18 
ROOT
ATOM      1  C   UNL d   1      -2.933  -2.380   0.534  0.00  0.00     0.097 C 
ATOM      2  N   UNL d   1      -4.087  -2.468  -0.038  0.00  0.00    -0.397 N 
ATOM      3  HN  UNL d   1      -4.542  -1.670  -0.481  1.00  0.00     0.158 HD
ENDROOT
BRANCH   2   4
ATOM      4  C   UNL d   1      -4.692  -3.803  -0.002  0.00  0.00     0.129 C 
BRANCH   4   5
ATOM      5  C   UNL d   1      -6.213  -3.644   0.024  0.00  0.00     0.093 C 
BRANCH   5   6
ATOM      6  S   UNL d   1      -7.090  -5.242   0.009  0.00  0.00    -0.163 SA
BRANCH   6   7
ATOM      7  C   UNL d   1      -6.486  -5.930   1.581  0.00  0.00     0.114 C 
BRANCH   7   8
ATOM      8  C   UNL d   1      -6.950  -7.346   1.785  0.00  0.00    -0.027 A 
ATOM      9  C   UNL d   1      -6.235  -8.454   1.298  0.00  0.00     0.041 A 
ATOM     10 CL   UNL d   1      -4.759  -8.279   0.411  0.00  0.00    -0.084 Cl
ATOM     11  C   UNL d   1      -6.698  -9.752   1.526  0.00  0.00     0.024 A 
ATOM     12  C   UNL d   1      -7.880  -9.958   2.236  0.00  0.00     0.002 A 
ATOM     13  C   UNL d   1      -8.607  -8.869   2.710  0.00  0.00     0.001 A 
ATOM     14  C   UNL d   1      -8.149  -7.572   2.483  0.00  0.00     0.009 A 
ENDBRANCH   7   8
ENDBRANCH   6   7
ENDBRANCH   5   6
ENDBRANCH   4   5
ENDBRANCH   2   4
BRANCH   1  15
ATOM     15  C   UNL d   1      -2.226  -1.084   0.578  0.00  0.00     0.016 A 
ATOM     16  C   UNL d   1      -2.785   0.074  -0.003  0.00  0.00     0.110 A 
ATOM     17  C   UNL d   1      -2.092   1.283   0.058  0.00  0.00     0.103 A 
ATOM     18  C   UNL d   1      -0.844   1.319   0.701  0.00  0.00     0.058 A 
ATOM     19  C   UNL d   1      -0.302   0.170   1.273  0.00  0.00     0.014 A 
ATOM     20  C   UNL d   1      -0.986  -1.039   1.218  0.00  0.00     0.034 A 
ATOM     21 BR   UNL d   1       1.380   0.254   2.132  0.00  0.00    -0.051 Br
BRANCH  16  22
ATOM     22  O   UNL d   1      -4.005   0.009  -0.627  0.00  0.00    -0.357 OA
ATOM     23  H   UNL d   1      -4.320  -0.923  -0.577  0.00  0.00     0.217 HD
ENDBRANCH  16  22
BRANCH  17  24
ATOM     24  O   UNL d   1      -2.469   2.502  -0.443  0.00  0.00    -0.353 OA
ATOM     25  C   UNL d   1      -3.718   2.593  -1.117  0.00  0.00     0.210 C 
ENDBRANCH  17  24
ENDBRANCH   1  15
TORSDOF 8
