REMARK  2 active torsions:
REMARK  status: ('A' for Active; 'I' for Inactive)
REMARK    1  A    between atoms: N_6  and  C_1 
REMARK    2  A    between atoms: O_9  and  C_4 
ROOT
ATOM      1  C   UNL d   1      -2.786   0.900  -0.660  0.00  0.00     0.272 C 
ATOM      2  C   UNL d   1      -3.164  -0.200   0.375  0.00  0.00     0.085 C 
ATOM      3  O   UNL d   1      -1.520   1.474  -0.214  0.00  0.00    -0.309 OA
ATOM      4  C   UNL d   1      -2.106  -1.315   0.427  0.00  0.00     0.162 C 
ATOM      5  C   UNL d   1      -0.710  -0.757   0.312  0.00  0.00     0.004 A 
ATOM      6  C   UNL d   1      -0.507   0.594   0.023  0.00  0.00     0.081 A 
ATOM      7  C   UNL d   1      -3.782   2.058  -0.402  0.00  0.00     0.072 C 
ATOM      8  C   UNL d   1      -4.600  -0.717   0.273  0.00  0.00     0.012 C 
ATOM      9  C   UNL d   1       0.409  -1.578   0.534  0.00  0.00     0.012 A 
ATOM     10  C   UNL d   1       0.783   1.126   0.011  0.00  0.00     0.037 A 
ATOM     11  C   UNL d   1      -5.253   1.698  -0.518  0.00  0.00     0.005 C 
ATOM     12  C   UNL d   1      -5.662   0.384   0.150  0.00  0.00     0.001 C 
ATOM     13  C   UNL d   1       1.697  -1.050   0.494  0.00  0.00     0.001 A 
ATOM     14  C   UNL d   1       1.892   0.306   0.241  0.00  0.00     0.003 A 
ENDROOT
BRANCH   1  15
ATOM     15  N   UNL d   1      -2.659   0.489  -2.077  0.00  0.00     0.124 N 
ATOM     16  C   UNL d   1      -2.087   1.500  -2.975  0.00  0.00     0.276 C 
ATOM     17  C   UNL d   1      -3.252   2.038  -3.780  0.00  0.00     0.032 C 
ATOM     18  C   UNL d   1      -4.172   0.846  -3.925  0.00  0.00     0.032 C 
ATOM     19  C   UNL d   1      -3.776  -0.108  -2.803  0.00  0.00     0.276 C 
ENDBRANCH   1  15
BRANCH   4  20
ATOM     20  O   UNL d   1      -2.341  -2.328  -0.547  0.00  0.00    -0.390 OA
ATOM     21  H   UNL d   1      -1.641  -2.249  -1.219  0.00  0.00     0.210 HD
ENDBRANCH   4  20
TORSDOF 2
