REMARK  4 active torsions:
REMARK  status: ('A' for Active; 'I' for Inactive)
REMARK    1  A    between atoms: N_2  and  C_1 
REMARK    2  A    between atoms: N_4  and  C_1 
REMARK    3  A    between atoms: C_3  and  N_2 
REMARK    4  A    between atoms: C_10  and  N_4 
ROOT
ATOM      1  C   UNL d   1       0.993   0.093   0.121  0.00  0.00     0.176 C 
ATOM      2  S   UNL d   1       2.610   0.506  -0.084  0.00  0.00    -0.041 SA
ENDROOT
BRANCH   1   3
ATOM      3  N   UNL d   1       0.389  -1.085  -0.321  0.00  0.00    -0.333 N 
ATOM      4  H   UNL d   1      -0.516  -0.927  -0.749  0.00  0.00     0.168 HD
BRANCH   3   5
ATOM      5  C   UNL d   1       1.032  -2.295  -0.666  0.00  0.00     0.035 A 
ATOM      6  C   UNL d   1       2.105  -2.785   0.080  0.00  0.00     0.036 A 
ATOM      7  C   UNL d   1       2.737  -3.981  -0.270  0.00  0.00    -0.059 A 
ATOM      8  C   UNL d   1       3.910  -4.479   0.519  0.00  0.00     0.048 C 
ATOM      9  C   UNL d   1       2.272  -4.696  -1.380  0.00  0.00     0.013 A 
ATOM     10  C   UNL d   1       1.175  -4.236  -2.120  0.00  0.00    -0.059 A 
ATOM     11  C   UNL d   1       0.541  -3.043  -1.743  0.00  0.00     0.036 A 
ATOM     12  C   UNL d   1       0.717  -5.013  -3.320  0.00  0.00     0.048 C 
ENDBRANCH   3   5
ENDBRANCH   1   3
BRANCH   1  13
ATOM     13  N   UNL d   1       0.039   0.883   0.766  0.00  0.00    -0.333 N 
ATOM     14  H   UNL d   1      -0.552   0.349   1.394  0.00  0.00     0.168 HD
BRANCH  13  15
ATOM     15  C   UNL d   1       0.073   2.277   0.971  0.00  0.00     0.034 A 
ATOM     16  C   UNL d   1       0.568   3.152  -0.003  0.00  0.00     0.031 A 
ATOM     17  C   UNL d   1       0.553   4.531   0.209  0.00  0.00     0.026 A 
ATOM     18  C   UNL d   1       0.038   5.040   1.396  0.00  0.00     0.034 A 
ATOM     19  C   UNL d   1      -0.476   4.181   2.367  0.00  0.00     0.026 A 
ATOM     20 CL   UNL d   1       0.021   6.740   1.659  0.00  0.00    -0.084 Cl
ATOM     21  C   UNL d   1      -0.474   2.799   2.147  0.00  0.00     0.031 A 
ENDBRANCH  13  15
ENDBRANCH   1  13
TORSDOF 4
