REMARK  5 active torsions:
REMARK  status: ('A' for Active; 'I' for Inactive)
REMARK    1  A    between atoms: C_14  and  N_3 
REMARK    2  A    between atoms: C_8  and  C_5 
REMARK    3  A    between atoms: O_17  and  C_9 
REMARK    4  A    between atoms: O_18  and  C_10 
REMARK    5  A    between atoms: O_19  and  C_11 
ROOT
ATOM      1  N   UNL d   1      -0.377  -0.520   0.829  0.00  0.00    -0.264 N 
ATOM      2  HN  UNL d   1      -0.550  -1.117   1.638  1.00  0.00     0.190 HD
ATOM      3  N   UNL d   1       0.800  -0.044   0.339  0.00  0.00    -0.179 N 
ATOM      4  N   UNL d   1       0.665   0.692  -0.791  0.00  0.00     0.003 NA
ATOM      5  C   UNL d   1      -1.249   0.010  -0.047  0.00  0.00     0.145 A 
ATOM      6  N   UNL d   1      -0.632   0.729  -1.040  0.00  0.00    -0.266 N 
ATOM      7  HN  UNL d   1      -1.088   1.201  -1.821  1.00  0.00     0.186 HD
ENDROOT
BRANCH   5   8
ATOM      8  C   UNL d   1      -2.703  -0.083   0.048  0.00  0.00     0.016 A 
ATOM      9  C   UNL d   1      -3.326  -0.770   1.097  0.00  0.00     0.055 A 
ATOM     10  C   UNL d   1      -4.728  -0.800   1.226  0.00  0.00     0.105 A 
ATOM     11  C   UNL d   1      -5.535  -0.139   0.271  0.00  0.00     0.135 A 
ATOM     12  C   UNL d   1      -4.901   0.555  -0.783  0.00  0.00     0.105 A 
ATOM     13  C   UNL d   1      -3.506   0.560  -0.895  0.00  0.00     0.055 A 
BRANCH  10  14
ATOM     14  O   UNL d   1      -5.354  -1.447   2.261  0.00  0.00    -0.353 OA
ATOM     15  C   UNL d   1      -4.564  -2.119   3.233  0.00  0.00     0.210 C 
ENDBRANCH  10  14
BRANCH  11  16
ATOM     16  O   UNL d   1      -6.904  -0.119   0.230  0.00  0.00    -0.351 OA
ATOM     17  C   UNL d   1      -7.674  -0.758   1.233  0.00  0.00     0.210 C 
ENDBRANCH  11  16
BRANCH  12  18
ATOM     18  O   UNL d   1      -5.520   1.228  -1.810  0.00  0.00    -0.353 OA
ATOM     19  C   UNL d   1      -6.687   1.969  -1.470  0.00  0.00     0.210 C 
ENDBRANCH  12  18
ENDBRANCH   5   8
BRANCH   3  20
ATOM     20  C   UNL d   1       2.058  -0.255   0.958  0.00  0.00     0.073 A 
ATOM     21  C   UNL d   1       2.167  -1.069   2.091  0.00  0.00     0.033 A 
ATOM     22  C   UNL d   1       3.417  -1.262   2.689  0.00  0.00     0.009 A 
ATOM     23  C   UNL d   1       4.562  -0.639   2.175  0.00  0.00    -0.062 A 
ATOM     24  C   UNL d   1       4.443   0.174   1.042  0.00  0.00     0.009 A 
ATOM     25  C   UNL d   1       5.900  -0.861   2.819  0.00  0.00     0.048 C 
ATOM     26  C   UNL d   1       3.201   0.366   0.436  0.00  0.00     0.033 A 
ENDBRANCH   3  20
TORSDOF 5
