REMARK  7 active torsions:
REMARK  status: ('A' for Active; 'I' for Inactive)
REMARK    1  A    between atoms: C_8  and  N_1 
REMARK    2  A    between atoms: C_10  and  C_2 
REMARK    3  A    between atoms: S_9  and  C_5 
REMARK    4  A    between atoms: C_11  and  C_8 
REMARK    5  A    between atoms: C_22  and  S_9 
REMARK    6  A    between atoms: C_13  and  C_14 
REMARK    7  A    between atoms: C_24  and  C_22 
ROOT
ATOM      1  N   UNL d   1      -0.281  -1.206  -0.041  0.00  0.00    -0.305 N 
ATOM      2  C   UNL d   1       0.946  -0.559  -0.095  0.00  0.00     0.135 A 
ATOM      3  N   UNL d   1       0.716   0.745  -0.038  0.00  0.00    -0.283 N 
ATOM      4  HN  UNL d   1       1.432   1.470  -0.008  1.00  0.00     0.188 HD
ATOM      5  C   UNL d   1      -1.223  -0.204  -0.048  0.00  0.00     0.163 A 
ATOM      6  N   UNL d   1      -0.634   0.964  -0.025  0.00  0.00    -0.278 N 
ATOM      7  HN  UNL d   1      -1.097   1.873  -0.002  1.00  0.00     0.189 HD
ENDROOT
BRANCH   2   8
ATOM      8  C   UNL d   1       2.297  -1.141  -0.128  0.00  0.00     0.009 A 
ATOM      9  C   UNL d   1       2.628  -2.305  -0.822  0.00  0.00     0.016 A 
ATOM     10  C   UNL d   1       3.930  -2.828  -0.777  0.00  0.00     0.009 A 
ATOM     11  C   UNL d   1       4.960  -2.193  -0.060  0.00  0.00    -0.051 A 
ATOM     12  C   UNL d   1       4.636  -0.988   0.578  0.00  0.00     0.009 A 
ATOM     13  C   UNL d   1       3.331  -0.475   0.544  0.00  0.00     0.016 A 
BRANCH  11  14
ATOM     14  C   UNL d   1       6.358  -2.832   0.027  0.00  0.00    -0.024 C 
ATOM     15  C   UNL d   1       7.372  -2.003   0.847  0.00  0.00     0.019 C 
ATOM     16  C   UNL d   1       6.239  -4.212   0.712  0.00  0.00     0.019 C 
ATOM     17  C   UNL d   1       6.956  -3.018  -1.383  0.00  0.00     0.019 C 
ENDBRANCH  11  14
ENDBRANCH   2   8
BRANCH   1  18
ATOM     18  C   UNL d   1      -0.551  -2.633  -0.041  0.00  0.00     0.198 C 
BRANCH  18  19
ATOM     19  C   UNL d   1       0.100  -3.373   1.069  0.00  0.00     0.070 A 
ATOM     20  O   UNL d   1       0.478  -4.651   0.772  0.00  0.00    -0.325 OA
ATOM     21  C   UNL d   1       1.031  -5.178   1.893  0.00  0.00     0.142 A 
ATOM     22  C   UNL d   1       1.012  -4.258   2.914  0.00  0.00     0.027 A 
ATOM     23  C   UNL d   1       0.405  -3.092   2.386  0.00  0.00     0.036 A 
ENDBRANCH  18  19
ENDBRANCH   1  18
BRANCH   5  24
ATOM     24  S   UNL d   1      -2.935  -0.456  -0.092  0.00  0.00    -0.088 SA
BRANCH  24  25
ATOM     25  C   UNL d   1      -3.502   1.183  -0.642  0.00  0.00     0.121 C 
BRANCH  25  26
ATOM     26  C   UNL d   1      -5.009   1.240  -0.745  0.00  0.00    -0.048 A 
ATOM     27  C   UNL d   1      -5.780   1.668   0.348  0.00  0.00     0.009 A 
ATOM     28  C   UNL d   1      -7.174   1.716   0.262  0.00  0.00     0.024 A 
ATOM     29  C   UNL d   1      -7.808   1.333  -0.919  0.00  0.00     0.034 A 
ATOM     30  C   UNL d   1      -7.059   0.898  -2.011  0.00  0.00     0.024 A 
ATOM     31 CL   UNL d   1      -9.523   1.393  -1.028  0.00  0.00    -0.084 Cl
ATOM     32  C   UNL d   1      -5.665   0.851  -1.924  0.00  0.00     0.009 A 
ENDBRANCH  25  26
ENDBRANCH  24  25
ENDBRANCH   5  24
TORSDOF 7
