REMARK  8 active torsions:
REMARK  status: ('A' for Active; 'I' for Inactive)
REMARK    1  A    between atoms: N_4  and  C_3 
REMARK    2  A    between atoms: C_5  and  C_3 
REMARK    3  A    between atoms: C_8  and  N_4 
REMARK    4  A    between atoms: C_9  and  N_4 
REMARK    5  A    between atoms: O_6  and  C_12 
REMARK    6  A    between atoms: O_7  and  C_13 
REMARK    7  A    between atoms: C_13  and  C_8 
REMARK    8  A    between atoms: C_12  and  C_9 
ROOT
ATOM      1  N   UNL d   1       4.191  -2.429  -1.158  0.00  0.00    -0.195 NA
ATOM      2  C   UNL d   1       4.027  -1.395  -0.646  0.00  0.00     0.100 C 
ATOM      3  C   UNL d   1       3.805  -0.056   0.006  0.00  0.00     0.361 C 
ENDROOT
BRANCH   3   4
ATOM      4  N   UNL d   1       4.342  -0.060   1.409  0.00  0.00     0.115 N 
BRANCH   4   5
ATOM      5  C   UNL d   1       5.824  -0.092   1.426  0.00  0.00     0.300 C 
BRANCH   5   6
ATOM      6  C   UNL d   1       6.473  -0.280   2.811  0.00  0.00     0.194 C 
BRANCH   6   7
ATOM      7  O   UNL d   1       7.887  -0.372   2.665  0.00  0.00    -0.399 OA
ATOM      8  H   UNL d   1       8.253  -0.542   3.550  0.00  0.00     0.209 HD
ENDBRANCH   6   7
ENDBRANCH   5   6
ENDBRANCH   4   5
BRANCH   4   9
ATOM      9  C   UNL d   1       3.803   0.971   2.312  0.00  0.00     0.300 C 
BRANCH   9  10
ATOM     10  C   UNL d   1       2.271   1.089   2.416  0.00  0.00     0.194 C 
BRANCH  10  11
ATOM     11  O   UNL d   1       1.948   2.242   3.189  0.00  0.00    -0.399 OA
ATOM     12  H   UNL d   1       0.978   2.275   3.264  0.00  0.00     0.209 HD
ENDBRANCH  10  11
ENDBRANCH   9  10
ENDBRANCH   4   9
ENDBRANCH   3   4
BRANCH   3  13
ATOM     13  C   UNL d   1       4.205   1.140  -0.881  0.00  0.00    -0.011 A 
ATOM     14  C   UNL d   1       4.883   0.978  -2.104  0.00  0.00     0.010 A 
ATOM     15  C   UNL d   1       5.197   2.075  -2.917  0.00  0.00     0.001 A 
ATOM     16  C   UNL d   1       4.864   3.365  -2.518  0.00  0.00     0.000 A 
ATOM     17  C   UNL d   1       4.192   3.559  -1.321  0.00  0.00     0.001 A 
ATOM     18  C   UNL d   1       3.842   2.458  -0.532  0.00  0.00     0.010 A 
ENDBRANCH   3  13
TORSDOF 8
