REMARK  8 active torsions:
REMARK  status: ('A' for Active; 'I' for Inactive)
REMARK    1  A    between atoms: N_2  and  C_1 
REMARK    2  A    between atoms: C_3  and  C_1 
REMARK    3  A    between atoms: C_4  and  C_1 
REMARK    4  A    between atoms: N_6  and  C_1 
REMARK       I    between atoms: C_5  and  N_2 
REMARK    5  A    between atoms: C_7  and  C_5 
REMARK    6  A    between atoms: C_8  and  N_6 
REMARK    7  A    between atoms: O_20  and  C_12 
REMARK    8  A    between atoms: C_24  and  O_20 
ROOT
ATOM      1  C   UNL d   1       1.232   0.106  -0.562  0.00  0.00     0.307 C 
ENDROOT
BRANCH   1   2
ATOM      2  N   UNL d   1       0.020  -0.646  -0.158  0.00  0.00    -0.315 N 
ATOM      3  C   UNL d   1       0.081  -1.787   0.605  0.00  0.00     0.256 C 
ATOM      4  O   UNL d   1       1.060  -2.521   0.594  0.00  0.00    -0.267 OA
ATOM      5  H   UNL d   1      -0.809  -0.079  -0.046  0.00  0.00     0.165 HD
BRANCH   3   6
ATOM      6  C   UNL d   1      -1.067  -2.107   1.503  0.00  0.00     0.065 A 
ATOM      7  C   UNL d   1      -2.237  -1.344   1.607  0.00  0.00     0.084 A 
ATOM      8  C   UNL d   1      -3.191  -1.642   2.589  0.00  0.00     0.038 A 
ATOM      9  C   UNL d   1      -3.006  -2.724   3.442  0.00  0.00     0.003 A 
ATOM     10  C   UNL d   1      -1.866  -3.522   3.322  0.00  0.00     0.001 A 
ATOM     11  C   UNL d   1      -0.906  -3.215   2.358  0.00  0.00     0.020 A 
BRANCH   7  12
ATOM     12  O   UNL d   1      -2.412  -0.217   0.844  0.00  0.00    -0.350 OA
BRANCH  12  13
ATOM     13  C   UNL d   1      -3.467  -0.362  -0.118  0.00  0.00     0.171 C 
ATOM     14  C   UNL d   1      -4.272   0.925  -0.120  0.00  0.00     0.034 C 
ENDBRANCH  12  13
ENDBRANCH   7  12
ENDBRANCH   3   6
ENDBRANCH   1   2
BRANCH   1  15
ATOM     15  C   UNL d   1       2.567  -0.711  -0.725  0.00  0.00     0.441 C 
ATOM     16  F   UNL d   1       3.119  -1.129   0.432  0.00  0.00    -0.166 F 
ATOM     17  F   UNL d   1       2.410  -1.778  -1.550  0.00  0.00    -0.166 F 
ATOM     18  F   UNL d   1       3.512   0.061  -1.337  0.00  0.00    -0.166 F 
ENDBRANCH   1  15
BRANCH   1  19
ATOM     19  C   UNL d   1       1.656   1.141   0.526  0.00  0.00     0.441 C 
ATOM     20  F   UNL d   1       1.678   0.576   1.761  0.00  0.00    -0.166 F 
ATOM     21  F   UNL d   1       2.866   1.701   0.321  0.00  0.00    -0.166 F 
ATOM     22  F   UNL d   1       0.772   2.168   0.625  0.00  0.00    -0.166 F 
ENDBRANCH   1  19
BRANCH   1  23
ATOM     23  N   UNL d   1       0.848   0.658  -1.888  0.00  0.00    -0.335 N 
ATOM     24  H   UNL d   1       1.458   0.373  -2.653  0.00  0.00     0.164 HD
BRANCH  23  25
ATOM     25  C   UNL d   1       0.057   1.663  -2.325  0.00  0.00     0.103 A 
ATOM     26  N   UNL d   1       0.262   1.948  -3.626  0.00  0.00    -0.353 N 
ATOM     27  C   UNL d   1      -0.481   2.915  -4.210  0.00  0.00     0.089 A 
ATOM     28  HN  UNL d   1       0.968   1.443  -4.162  1.00  0.00     0.166 HD
ATOM     29  C   UNL d   1      -1.448   3.640  -3.546  0.00  0.00     0.017 A 
ATOM     30  C   UNL d   1      -1.660   3.343  -2.209  0.00  0.00     0.005 A 
ATOM     31  C   UNL d   1      -0.906   2.339  -1.596  0.00  0.00     0.048 A 
ENDBRANCH  23  25
ENDBRANCH   1  23
TORSDOF 8
