REMARK  3 active torsions:
REMARK  status: ('A' for Active; 'I' for Inactive)
REMARK       I    between atoms: C_7  and  N_1 
REMARK    1  A    between atoms: C_8  and  C_4 
REMARK    2  A    between atoms: C_9  and  C_5 
REMARK    3  A    between atoms: O_22  and  C_16 
ROOT
ATOM      1  N   UNL d   1       0.167  -1.108   0.122  0.00  0.00    -0.252 N 
ATOM      2  N   UNL d   1       1.162  -0.169   0.067  0.00  0.00    -0.299 N 
ATOM      3  HN  UNL d   1       2.166  -0.349   0.102  1.00  0.00     0.187 HD
ATOM      4  C   UNL d   1       0.590   0.992  -0.037  0.00  0.00     0.038 A 
ATOM      5  C   UNL d   1      -1.173  -0.534   0.028  0.00  0.00     0.150 A 
ATOM      6  C   UNL d   1      -0.916   0.967  -0.085  0.00  0.00     0.091 A 
ATOM      7  C   UNL d   1       0.419  -2.463   0.003  0.00  0.00     0.234 C 
ATOM      8  O   UNL d   1      -0.475  -3.305  -0.105  0.00  0.00    -0.272 OA
ATOM      9  C   UNL d   1       1.869  -2.886  -0.035  0.00  0.00     0.119 C 
ENDROOT
BRANCH   4  10
ATOM     10  C   UNL d   1       1.352   2.257  -0.118  0.00  0.00    -0.012 A 
ATOM     11  C   UNL d   1       2.753   2.209  -0.103  0.00  0.00     0.016 A 
ATOM     12  C   UNL d   1       3.507   3.385  -0.170  0.00  0.00     0.037 A 
ATOM     13  C   UNL d   1       2.865   4.620  -0.250  0.00  0.00     0.068 A 
ATOM     14  C   UNL d   1       1.469   4.668  -0.289  0.00  0.00     0.037 A 
ATOM     15  C   UNL d   1       0.711   3.496  -0.215  0.00  0.00     0.016 A 
BRANCH  13  16
ATOM     16  O   UNL d   1       3.490   5.833  -0.338  0.00  0.00    -0.356 OA
ATOM     17  C   UNL d   1       4.783   5.904   0.253  0.00  0.00     0.210 C 
ENDBRANCH  13  16
ENDBRANCH   4  10
BRANCH   5  18
ATOM     18  C   UNL d   1      -2.075  -0.877   1.201  0.00  0.00    -0.033 A 
ATOM     19  C   UNL d   1      -1.712  -0.576   2.524  0.00  0.00     0.011 A 
ATOM     20  C   UNL d   1      -2.580  -0.863   3.582  0.00  0.00     0.024 A 
ATOM     21  C   UNL d   1      -3.809  -1.465   3.327  0.00  0.00     0.034 A 
ATOM     22  C   UNL d   1      -4.179  -1.786   2.023  0.00  0.00     0.024 A 
ATOM     23 CL   UNL d   1      -4.881  -1.808   4.629  0.00  0.00    -0.084 Cl
ATOM     24  C   UNL d   1      -3.316  -1.493   0.967  0.00  0.00     0.011 A 
ENDBRANCH   5  18
TORSDOF 3
