REMARK  1 active torsions:
REMARK  status: ('A' for Active; 'I' for Inactive)
REMARK    1  A    between atoms: C_3  and  N_1 
ROOT
ATOM      1  C   UNL d   1      -2.108  -2.453  -0.072  0.00  0.00     0.059 A 
ATOM      2  N   UNL d   1      -4.716  -1.213  -2.224  0.00  0.00    -0.191 NA
ATOM      3  C   UNL d   1      -3.266  -2.820  -0.788  0.00  0.00     0.071 A 
ATOM      4  C   UNL d   1      -4.049  -1.914  -1.585  0.00  0.00     0.102 C 
ATOM      5  C   UNL d   1      -1.400  -3.450   0.624  0.00  0.00     0.031 A 
ATOM      6  C   UNL d   1      -3.666  -4.170  -0.813  0.00  0.00     0.025 A 
ATOM      7  C   UNL d   1      -1.801  -4.788   0.575  0.00  0.00     0.002 A 
ATOM      8  C   UNL d   1      -2.931  -5.149  -0.146  0.00  0.00     0.002 A 
ENDROOT
BRANCH   1   9
ATOM      9  N   UNL d   1      -1.625  -1.104  -0.021  0.00  0.00    -0.320 N 
ATOM     10  C   UNL d   1      -2.423   0.023   0.036  0.00  0.00     0.098 A 
ATOM     11  C   UNL d   1      -1.631   1.146   0.059  0.00  0.00     0.031 A 
ATOM     12  C   UNL d   1      -0.285   0.718   0.054  0.00  0.00    -0.008 A 
ATOM     13  C   UNL d   1      -0.286  -0.684   0.008  0.00  0.00     0.049 A 
ATOM     14  C   UNL d   1       0.941   1.415   0.075  0.00  0.00     0.014 A 
ATOM     15  C   UNL d   1       0.935  -1.390  -0.066  0.00  0.00     0.031 A 
ATOM     16  C   UNL d   1       2.138  -0.678  -0.022  0.00  0.00     0.002 A 
ATOM     17  C   UNL d   1       2.144   0.708   0.050  0.00  0.00     0.001 A 
ENDBRANCH   1   9
TORSDOF 1
