REMARK  7 active torsions:
REMARK  status: ('A' for Active; 'I' for Inactive)
REMARK    1  A    between atoms: N_2  and  S_1 
REMARK    2  A    between atoms: C_10  and  S_1 
REMARK       I    between atoms: N_5  and  C_4 
REMARK       I    between atoms: N_7  and  C_4 
REMARK    3  A    between atoms: C_6  and  N_11 
REMARK    4  A    between atoms: N_15  and  C_6 
REMARK    5  A    between atoms: N_11  and  N_7 
REMARK    6  A    between atoms: C_12  and  C_19 
REMARK    7  A    between atoms: C_19  and  N_15 
ROOT
ATOM      1  N   UNL d   1       0.420  -0.864  -1.701  0.00  0.00    -0.111 N 
ATOM      2  HN  UNL d   1       0.830  -0.405  -0.887  1.00  0.00     0.197 HD
ATOM      3  C   UNL d   1       0.649  -0.375  -2.893  0.00  0.00     0.704 C 
ATOM      4  N   UNL d   1       1.513   0.716  -3.009  0.00  0.00    -0.216 N 
ATOM      5  N   UNL d   1       0.076  -0.839  -4.059  0.00  0.00    -0.129 N 
ATOM      6  C   UNL d   1       2.171   1.307  -1.837  0.00  0.00     0.141 C 
ATOM      7  C   UNL d   1       1.463   1.711  -4.089  0.00  0.00     0.141 C 
ATOM      8  C   UNL d   1       2.087   2.810  -2.070  0.00  0.00     0.022 C 
ATOM      9  C   UNL d   1       2.230   2.923  -3.571  0.00  0.00     0.022 C 
ATOM     10  H   UNL d   1      -0.624  -1.589  -4.012  0.00  0.00     0.205 HD
ENDROOT
BRANCH   1  11
ATOM     11  S   UNL d   1      -0.498  -2.180  -1.488  0.00  0.00     0.276 S 
ATOM     12  O   UNL d   1       0.371  -3.339  -1.416  0.00  0.00    -0.200 OA
ATOM     13  O   UNL d   1      -1.604  -2.179  -2.430  0.00  0.00    -0.200 OA
BRANCH  11  14
ATOM     14  C   UNL d   1      -1.214  -1.982   0.140  0.00  0.00     0.080 A 
ATOM     15  C   UNL d   1      -2.466  -1.375   0.276  0.00  0.00     0.025 A 
ATOM     16  C   UNL d   1      -3.071  -1.317   1.534  0.00  0.00     0.002 A 
ATOM     17  C   UNL d   1      -2.431  -1.871   2.645  0.00  0.00     0.000 A 
ATOM     18  C   UNL d   1      -1.185  -2.483   2.505  0.00  0.00     0.002 A 
ATOM     19  C   UNL d   1      -0.574  -2.543   1.251  0.00  0.00     0.025 A 
ENDBRANCH  11  14
ENDBRANCH   1  11
BRANCH   5  20
ATOM     20  N   UNL d   1       0.710  -0.697  -5.292  0.00  0.00    -0.262 N 
ATOM     21  H   UNL d   1       1.704  -0.902  -5.290  0.00  0.00     0.190 HD
BRANCH  20  22
ATOM     22  C   UNL d   1      -0.014  -0.808  -6.467  0.00  0.00     0.187 C 
ATOM     23  S   UNL d   1      -1.565  -1.431  -6.565  0.00  0.00    -0.040 SA
BRANCH  22  24
ATOM     24  N   UNL d   1       0.705  -0.312  -7.536  0.00  0.00    -0.360 N 
ATOM     25  H   UNL d   1       1.528   0.241  -7.336  0.00  0.00     0.162 HD
BRANCH  24  26
ATOM     26  C   UNL d   1       0.337  -0.431  -8.937  0.00  0.00     0.187 C 
BRANCH  26  27
ATOM     27  C   UNL d   1       1.162   0.478  -9.772  0.00  0.00     0.070 A 
ATOM     28  O   UNL d   1       2.516   0.443  -9.595  0.00  0.00    -0.325 OA
ATOM     29  C   UNL d   1       3.056   1.302 -10.500  0.00  0.00     0.142 A 
ATOM     30  C   UNL d   1       2.069   1.898 -11.249  0.00  0.00     0.027 A 
ATOM     31  C   UNL d   1       0.844   1.374 -10.774  0.00  0.00     0.036 A 
ENDBRANCH  26  27
ENDBRANCH  24  26
ENDBRANCH  22  24
ENDBRANCH  20  22
ENDBRANCH   5  20
TORSDOF 7
