REMARK  3 active torsions:
REMARK  status: ('A' for Active; 'I' for Inactive)
REMARK       I    between atoms: N_2  and  C_1 
REMARK    1  A    between atoms: O_10  and  C_1 
REMARK    2  A    between atoms: C_3  and  N_2 
REMARK    3  A    between atoms: C_13  and  O_10 
ROOT
ATOM      1  C   UNL d   1       1.086  -2.181   1.380  0.00  0.00     0.075 A 
ATOM      2  C   UNL d   1       2.247  -2.134   2.167  0.00  0.00     0.146 A 
ATOM      3  C   UNL d   1       2.796  -3.291   2.714  0.00  0.00     0.086 A 
ATOM      4  C   UNL d   1       0.431  -3.413   1.234  0.00  0.00     0.036 A 
ATOM      5  C   UNL d   1       2.166  -4.506   2.501  0.00  0.00     0.119 A 
ATOM      6  F   UNL d   1       2.826  -0.971   2.499  0.00  0.00    -0.204 F 
ATOM      7  C   UNL d   1       0.978  -4.577   1.783  0.00  0.00     0.044 A 
ATOM      8  F   UNL d   1       2.697  -5.625   3.008  0.00  0.00    -0.206 F 
ENDROOT
BRANCH   1   9
ATOM      9  N   UNL d   1       0.506  -1.082   0.715  0.00  0.00    -0.300 N 
ATOM     10  C   UNL d   1       1.086   0.069   0.246  0.00  0.00     0.365 C 
ATOM     11  O   UNL d   1       0.411   0.900  -0.353  0.00  0.00    -0.238 OA
ATOM     12  H   UNL d   1      -0.436  -1.185   0.362  0.00  0.00     0.171 HD
BRANCH  10  13
ATOM     13  O   UNL d   1       2.428   0.140   0.402  0.00  0.00    -0.304 OA
BRANCH  13  14
ATOM     14  C   UNL d   1       3.099   1.254  -0.197  0.00  0.00     0.176 C 
ATOM     15  C   UNL d   1       2.941   2.515   0.631  0.00  0.00     0.034 C 
ENDBRANCH  13  14
ENDBRANCH  10  13
ENDBRANCH   1   9
TORSDOF 3
