REMARK  5 active torsions:
REMARK  status: ('A' for Active; 'I' for Inactive)
REMARK    1  A    between atoms: C_4  and  S_1 
REMARK    2  A    between atoms: C_5  and  S_1 
REMARK    3  A    between atoms: S_2  and  C_3 
REMARK    4  A    between atoms: C_6  and  S_2 
REMARK    5  A    between atoms: C_3  and  C_4 
ROOT
ATOM      1  C   UNL d   1       1.009   1.716  -1.964  0.00  0.00     0.161 C 
ENDROOT
BRANCH   1   2
ATOM      2  S   UNL d   1       0.445   2.063  -3.606  0.00  0.00     0.176 S 
ATOM      3  O   UNL d   1       1.057   1.099  -4.499  0.00  0.00    -0.223 OA
ATOM      4  O   UNL d   1      -0.996   2.219  -3.559  0.00  0.00    -0.223 OA
BRANCH   2   5
ATOM      5  C   UNL d   1       1.144   3.656  -3.974  0.00  0.00     0.059 A 
ATOM      6  C   UNL d   1       2.366   3.737  -4.649  0.00  0.00     0.025 A 
ATOM      7  C   UNL d   1       2.896   4.992  -4.962  0.00  0.00     0.025 A 
ATOM      8  C   UNL d   1       2.199   6.149  -4.611  0.00  0.00     0.034 A 
ATOM      9  C   UNL d   1       0.972   6.065  -3.951  0.00  0.00     0.025 A 
ATOM     10 CL   UNL d   1       2.855   7.691  -5.000  0.00  0.00    -0.084 Cl
ATOM     11  C   UNL d   1       0.436   4.814  -3.634  0.00  0.00     0.025 A 
ENDBRANCH   2   5
ENDBRANCH   1   2
BRANCH   1  12
ATOM     12  C   UNL d   1       0.495   0.362  -1.520  0.00  0.00     0.161 C 
BRANCH  12  13
ATOM     13  S   UNL d   1       1.062   0.007   0.119  0.00  0.00     0.176 S 
ATOM     14  O   UNL d   1       0.460   0.977   1.015  0.00  0.00    -0.223 OA
ATOM     15  O   UNL d   1       2.503  -0.152   0.063  0.00  0.00    -0.223 OA
BRANCH  13  16
ATOM     16  C   UNL d   1       0.350  -1.579   0.474  0.00  0.00     0.059 A 
ATOM     17  C   UNL d   1       1.073  -2.740   0.197  0.00  0.00     0.024 A 
ATOM     18  C   UNL d   1       0.499  -3.985   0.462  0.00  0.00     0.008 A 
ATOM     19  C   UNL d   1      -0.789  -4.073   1.011  0.00  0.00    -0.062 A 
ATOM     20  C   UNL d   1      -1.489  -2.897   1.312  0.00  0.00     0.008 A 
ATOM     21  C   UNL d   1      -1.397  -5.420   1.274  0.00  0.00     0.048 C 
ATOM     22  C   UNL d   1      -0.921  -1.649   1.049  0.00  0.00     0.024 A 
ENDBRANCH  13  16
ENDBRANCH  12  13
ENDBRANCH   1  12
TORSDOF 5
