REMARK  1 active torsions:
REMARK  status: ('A' for Active; 'I' for Inactive)
REMARK    1  A    between atoms: C_3  and  C_4 
ROOT
ATOM      1  N   UNL d   1       1.209  -0.633  -0.069  0.00  0.00    -0.355 N 
ATOM      2  HN  UNL d   1       2.098  -1.132  -0.095  1.00  0.00     0.166 HD
ATOM      3  C   UNL d   1       0.034  -1.318   0.049  0.00  0.00     0.117 A 
ATOM      4  C   UNL d   1       1.176   0.724  -0.152  0.00  0.00     0.026 A 
ATOM      5  N   UNL d   1      -0.062   4.033  -0.240  0.00  0.00    -0.191 NA
ATOM      6  C   UNL d   1      -0.018   1.444  -0.118  0.00  0.00     0.066 A 
ATOM      7  C   UNL d   1      -0.041   2.874  -0.189  0.00  0.00     0.101 C 
ATOM      8  C   UNL d   1      -1.193  -0.656   0.076  0.00  0.00     0.036 A 
ATOM      9  C   UNL d   1      -1.216   0.735  -0.006  0.00  0.00     0.027 A 
ATOM     10  C   UNL d   1       2.509   1.405  -0.291  0.00  0.00     0.070 C 
ENDROOT
BRANCH   3  11
ATOM     11  C   UNL d   1       0.052  -2.839   0.162  0.00  0.00     0.432 C 
ATOM     12  F   UNL d   1       1.297  -3.393   0.136  0.00  0.00    -0.165 F 
ATOM     13  F   UNL d   1      -0.526  -3.277   1.319  0.00  0.00    -0.165 F 
ATOM     14  F   UNL d   1      -0.646  -3.443  -0.844  0.00  0.00    -0.165 F 
ENDBRANCH   3  11
TORSDOF 1
