REMARK  7 active torsions:
REMARK  status: ('A' for Active; 'I' for Inactive)
REMARK    1  A    between atoms: C_11  and  C_3 
REMARK    2  A    between atoms: C_12  and  C_4 
REMARK    3  A    between atoms: C_5  and  C_7 
REMARK    4  A    between atoms: C_13  and  O_18 
REMARK    5  A    between atoms: C_14  and  O_17 
REMARK    6  A    between atoms: O_17  and  C_26 
REMARK    7  A    between atoms: O_18  and  C_27 
ROOT
ATOM      1  C   UNL d   1      -0.057  -2.576  -0.072  0.00  0.00    -0.002 A 
ATOM      2  C   UNL d   1       0.489  -3.336   0.972  0.00  0.00     0.017 A 
ATOM      3  C   UNL d   1      -0.792  -3.240  -1.066  0.00  0.00     0.017 A 
ATOM      4  C   UNL d   1      -0.397  -5.376   0.008  0.00  0.00     0.077 A 
ATOM      5  C   UNL d   1       0.298  -4.719   1.028  0.00  0.00     0.038 A 
ATOM      6  C   UNL d   1      -0.963  -4.630  -1.024  0.00  0.00     0.038 A 
ENDROOT
BRANCH   1   7
ATOM      7  C   UNL d   1       0.174  -1.123  -0.085  0.00  0.00     0.084 A 
ATOM      8  N   UNL d   1       1.277  -0.540   0.349  0.00  0.00    -0.349 N 
ATOM      9  C   UNL d   1       1.169   0.839   0.251  0.00  0.00     0.050 A 
ATOM     10  HN  UNL d   1       2.093  -1.035   0.707  1.00  0.00     0.166 HD
ATOM     11  C   UNL d   1      -0.033   1.287  -0.258  0.00  0.00     0.082 A 
ATOM     12  S   UNL d   1      -1.053  -0.038  -0.619  0.00  0.00    -0.081 SA
BRANCH   9  13
ATOM     13  C   UNL d   1       2.269   1.719   0.628  0.00  0.00    -0.009 A 
ATOM     14  C   UNL d   1       3.593   1.282   0.485  0.00  0.00     0.016 A 
ATOM     15  C   UNL d   1       4.669   2.124   0.799  0.00  0.00     0.038 A 
ATOM     16  C   UNL d   1       4.429   3.409   1.285  0.00  0.00     0.074 A 
ATOM     17  C   UNL d   1       3.113   3.850   1.432  0.00  0.00     0.038 A 
ATOM     18  C   UNL d   1       2.041   3.012   1.116  0.00  0.00     0.016 A 
BRANCH  16  19
ATOM     19  O   UNL d   1       5.382   4.330   1.618  0.00  0.00    -0.290 OA
BRANCH  19  20
ATOM     20  C   UNL d   1       6.645   3.804   1.988  0.00  0.00     0.505 C 
ATOM     21  F   UNL d   1       7.350   3.513   0.867  0.00  0.00    -0.184 F 
ATOM     22  F   UNL d   1       7.320   4.794   2.627  0.00  0.00    -0.184 F 
ENDBRANCH  19  20
ENDBRANCH  16  19
ENDBRANCH   9  13
ENDBRANCH   1   7
BRANCH   4  23
ATOM     23  O   UNL d   1      -0.622  -6.736  -0.019  0.00  0.00    -0.294 OA
BRANCH  23  24
ATOM     24  C   UNL d   1       0.356  -7.562   0.513  0.00  0.00     0.147 A 
ATOM     25  N   UNL d   1       1.659  -7.218   0.392  0.00  0.00    -0.346 N 
ATOM     26  C   UNL d   1       2.565  -8.000   1.014  0.00  0.00     0.106 A 
ATOM     27  HN  UNL d   1       1.944  -6.401  -0.148  1.00  0.00     0.167 HD
ATOM     28  C   UNL d   1       2.236  -9.135   1.740  0.00  0.00     0.063 A 
ATOM     29  C   UNL d   1       0.885  -9.508   1.783  0.00  0.00     0.022 A 
ATOM     30  C   UNL d   1      -0.071  -8.713   1.157  0.00  0.00     0.057 A 
BRANCH  28  31
ATOM     31  C   UNL d   1       3.293  -9.907   2.466  0.00  0.00     0.418 C 
ATOM     32  F   UNL d   1       4.536  -9.358   2.366  0.00  0.00    -0.166 F 
ATOM     33  F   UNL d   1       3.037 -10.001   3.800  0.00  0.00    -0.166 F 
ATOM     34  F   UNL d   1       3.411 -11.185   2.017  0.00  0.00    -0.166 F 
ENDBRANCH  28  31
ENDBRANCH  23  24
ENDBRANCH   4  23
TORSDOF 7
