REMARK  5 active torsions:
REMARK  status: ('A' for Active; 'I' for Inactive)
REMARK    1  A    between atoms: C_3  and  S_1 
REMARK    2  A    between atoms: N_15  and  S_1 
REMARK    3  A    between atoms: N_2  and  C_9 
REMARK    4  A    between atoms: O_10  and  C_4 
REMARK    5  A    between atoms: C_18  and  O_10 
ROOT
ATOM      1  C   UNL d   1       0.598  -1.366  -0.892  0.00  0.00     0.077 A 
ATOM      2  C   UNL d   1       0.084  -3.789  -2.210  0.00  0.00     0.119 A 
ATOM      3  C   UNL d   1       0.818  -3.775  -1.013  0.00  0.00     0.071 A 
ATOM      4  C   UNL d   1      -0.447  -2.573  -2.688  0.00  0.00     0.071 A 
ATOM      5  C   UNL d   1       1.099  -2.564  -0.376  0.00  0.00     0.051 A 
ATOM      6  C   UNL d   1      -0.202  -1.363  -2.030  0.00  0.00     0.051 A 
ATOM      7 CL   UNL d   1       1.353  -5.201  -0.195  0.00  0.00    -0.081 Cl
ATOM      8 CL   UNL d   1      -1.449  -2.526  -4.099  0.00  0.00    -0.081 Cl
ENDROOT
BRANCH   2   9
ATOM      9  O   UNL d   1      -0.292  -4.926  -2.890  0.00  0.00    -0.307 OA
BRANCH   9  10
ATOM     10  C   UNL d   1       0.611  -5.913  -3.208  0.00  0.00     0.076 A 
ATOM     11  C   UNL d   1       0.036  -7.168  -3.447  0.00  0.00     0.040 A 
ATOM     12  C   UNL d   1       0.836  -8.276  -3.737  0.00  0.00     0.039 A 
ATOM     13  C   UNL d   1       2.226  -8.122  -3.786  0.00  0.00     0.103 A 
ATOM     14  C   UNL d   1       2.809  -6.864  -3.579  0.00  0.00     0.039 A 
ATOM     15  C   UNL d   1       1.995  -5.753  -3.323  0.00  0.00     0.040 A 
BRANCH  13  16
ATOM     16  N   UNL d   1       3.076  -9.287  -4.062  0.00  0.00    -0.116 N 
ATOM     17  O   UNL d   1       4.304  -9.116  -4.062  0.00  0.00    -0.532 OA
ATOM     18  O   UNL d   1       2.518 -10.371  -4.280  0.00  0.00    -0.532 OA
ENDBRANCH  13  16
ENDBRANCH   9  10
ENDBRANCH   2   9
BRANCH   1  19
ATOM     19  S   UNL d   1       0.945   0.135  -0.030  0.00  0.00     0.239 S 
ATOM     20  O   UNL d   1       1.295  -0.180   1.339  0.00  0.00    -0.206 OA
ATOM     21  O   UNL d   1      -0.048   1.119  -0.373  0.00  0.00    -0.206 OA
BRANCH  19  22
ATOM     22  N   UNL d   1       2.369   0.604  -0.778  0.00  0.00    -0.225 NA
ATOM     23  H   UNL d   1       3.165   0.479  -0.153  0.00  0.00     0.136 HD
ATOM     24  H   UNL d   1       2.275   1.557  -1.135  0.00  0.00     0.136 HD
ENDBRANCH  19  22
ENDBRANCH   1  19
TORSDOF 5
