REMARK  4 active torsions:
REMARK  status: ('A' for Active; 'I' for Inactive)
REMARK    1  A    between atoms: C_2  and  C_1 
REMARK    2  A    between atoms: C_6  and  C_1 
REMARK    3  A    between atoms: C_3  and  C_7 
REMARK    4  A    between atoms: O_15  and  N_4 
ROOT
ATOM      1  C   UNL d   1       0.181   3.530  -1.472  0.00  0.00     0.016 A 
ATOM      2  C   UNL d   1      -1.238   5.690  -2.656  0.00  0.00    -0.023 A 
ATOM      3  C   UNL d   1       0.637   4.111  -2.658  0.00  0.00     0.016 A 
ATOM      4  C   UNL d   1      -0.994   4.005  -0.888  0.00  0.00     0.016 A 
ATOM      5  C   UNL d   1      -0.057   5.184  -3.231  0.00  0.00     0.013 A 
ATOM      6  C   UNL d   1      -1.693   5.066  -1.480  0.00  0.00     0.013 A 
ENDROOT
BRANCH   1   7
ATOM      7  C   UNL d   1       0.967   2.422  -0.878  0.00  0.00     0.206 C 
ATOM      8  O   UNL d   1       1.676   1.705  -1.576  0.00  0.00    -0.285 OA
BRANCH   7   9
ATOM      9  C   UNL d   1       0.930   2.167   0.614  0.00  0.00     0.079 C 
ATOM     10  N   UNL d   1       0.874   3.192   1.412  0.00  0.00    -0.270 N 
ATOM     11  HN  UNL d   1       0.852   4.163   1.098  1.00  0.00     0.194 HD
ATOM     12  C   UNL d   1       0.995   0.731   1.065  0.00  0.00     0.074 C 
BRANCH  10  13
ATOM     13  O   UNL d   1       0.846   2.797   2.753  0.00  0.00    -0.290 OA
ATOM     14  H   UNL d   1       0.826   3.651   3.226  0.00  0.00     0.244 HD
ENDBRANCH  10  13
ENDBRANCH   7   9
ENDBRANCH   1   7
BRANCH   2  15
ATOM     15  C   UNL d   1      -1.975   6.822  -3.270  0.00  0.00     0.013 A 
ATOM     16  C   UNL d   1      -2.640   7.796  -2.501  0.00  0.00     0.127 A 
ATOM     17  F   UNL d   1      -2.610   7.746  -1.160  0.00  0.00    -0.205 F 
ATOM     18  C   UNL d   1      -3.343   8.852  -3.084  0.00  0.00     0.043 A 
ATOM     19  C   UNL d   1      -3.390   8.975  -4.468  0.00  0.00     0.003 A 
ATOM     20  C   UNL d   1      -2.738   8.035  -5.262  0.00  0.00     0.001 A 
ATOM     21  C   UNL d   1      -2.046   6.973  -4.669  0.00  0.00     0.015 A 
ENDBRANCH   2  15
TORSDOF 4
