REMARK  5 active torsions:
REMARK  status: ('A' for Active; 'I' for Inactive)
REMARK    1  A    between atoms: C_9  and  C_1 
REMARK    2  A    between atoms: C_2  and  C_18 
REMARK       I    between atoms: N_3  and  C_2 
REMARK    3  A    between atoms: C_8  and  N_3 
REMARK    4  A    between atoms: S_7  and  C_9 
REMARK    5  A    between atoms: C_18  and  S_7 
ROOT
ATOM      1  C   UNL d   1      -2.339   5.665  -0.074  0.00  0.00     0.231 C 
ATOM      2  N   UNL d   1      -3.537   4.998  -0.243  0.00  0.00    -0.327 N 
ATOM      3  O   UNL d   1      -2.224   6.878   0.120  0.00  0.00    -0.272 OA
ATOM      4  H   UNL d   1      -3.485   3.985  -0.282  0.00  0.00     0.169 HD
ENDROOT
BRANCH   1   5
ATOM      5  C   UNL d   1      -1.093   4.798   0.015  0.00  0.00     0.177 C 
BRANCH   5   6
ATOM      6  S   UNL d   1      -1.091   3.348  -1.076  0.00  0.00    -0.155 SA
BRANCH   6   7
ATOM      7  C   UNL d   1       0.659   2.876  -0.828  0.00  0.00     0.117 C 
BRANCH   7   8
ATOM      8  C   UNL d   1       1.050   1.651  -1.609  0.00  0.00     0.011 A 
ATOM      9  C   UNL d   1       1.714   1.804  -2.834  0.00  0.00     0.125 A 
ATOM     10  F   UNL d   1       2.012   3.032  -3.282  0.00  0.00    -0.205 F 
ATOM     11  C   UNL d   1       2.100   0.710  -3.607  0.00  0.00     0.043 A 
ATOM     12  C   UNL d   1       1.823  -0.579  -3.164  0.00  0.00     0.005 A 
ATOM     13  C   UNL d   1       1.172  -0.761  -1.945  0.00  0.00     0.024 A 
ATOM     14  C   UNL d   1       0.790   0.344  -1.172  0.00  0.00     0.044 A 
ATOM     15 CL   UNL d   1       0.014   0.026   0.340  0.00  0.00    -0.084 Cl
ENDBRANCH   7   8
ENDBRANCH   6   7
ENDBRANCH   5   6
ENDBRANCH   1   5
BRANCH   2  16
ATOM     16  C   UNL d   1      -4.822   5.584  -0.334  0.00  0.00     0.034 A 
ATOM     17  C   UNL d   1      -5.029   6.960  -0.490  0.00  0.00     0.031 A 
ATOM     18  C   UNL d   1      -6.321   7.491  -0.570  0.00  0.00     0.026 A 
ATOM     19  C   UNL d   1      -7.421   6.647  -0.488  0.00  0.00     0.034 A 
ATOM     20  C   UNL d   1      -7.236   5.276  -0.339  0.00  0.00     0.026 A 
ATOM     21 CL   UNL d   1      -9.009   7.302  -0.571  0.00  0.00    -0.084 Cl
ATOM     22  C   UNL d   1      -5.940   4.745  -0.272  0.00  0.00     0.031 A 
ENDBRANCH   2  16
TORSDOF 5
