REMARK  8 active torsions:
REMARK  status: ('A' for Active; 'I' for Inactive)
REMARK    1  A    between atoms: C_6  and  N_1 
REMARK    2  A    between atoms: C_11  and  C_6 
REMARK    3  A    between atoms: C_12  and  C_11 
REMARK    4  A    between atoms: O_20  and  C_11 
REMARK    5  A    between atoms: N_15  and  C_12 
REMARK    6  A    between atoms: C_21  and  N_15 
REMARK    7  A    between atoms: C_23  and  C_21 
REMARK    8  A    between atoms: C_24  and  C_23 
ROOT
ATOM      1  N   UNL d   1      -0.317  -1.250   0.933  0.00  0.00    -0.343 N 
ATOM      2  C   UNL d   1      -0.489   0.696  -0.164  0.00  0.00     0.005 A 
ATOM      3  C   UNL d   1       0.024   0.954   1.144  0.00  0.00     0.005 A 
ATOM      4  C   UNL d   1      -0.723  -0.678  -0.265  0.00  0.00     0.046 A 
ATOM      5  C   UNL d   1       0.117  -0.271   1.809  0.00  0.00     0.046 A 
ATOM      6  C   UNL d   1      -1.296  -1.242  -1.419  0.00  0.00     0.032 A 
ATOM      7  C   UNL d   1       0.561  -0.350   3.140  0.00  0.00     0.032 A 
ATOM      8  C   UNL d   1      -0.812   1.535  -1.255  0.00  0.00     0.033 A 
ATOM      9  C   UNL d   1       0.372   2.139   1.823  0.00  0.00     0.033 A 
ATOM     10  C   UNL d   1      -1.387   0.976  -2.398  0.00  0.00     0.011 A 
ATOM     11  C   UNL d   1       0.786   2.061   3.154  0.00  0.00     0.011 A 
ATOM     12  C   UNL d   1      -1.632  -0.389  -2.479  0.00  0.00     0.021 A 
ATOM     13  C   UNL d   1       0.883   0.838   3.804  0.00  0.00     0.021 A 
ATOM     14 BR   UNL d   1      -1.856   2.102  -3.844  0.00  0.00    -0.051 Br
ATOM     15 BR   UNL d   1       1.193   3.655   4.091  0.00  0.00    -0.051 Br
ENDROOT
BRANCH   1  16
ATOM     16  C   UNL d   1      -0.474  -2.660   1.275  0.00  0.00     0.163 C 
BRANCH  16  17
ATOM     17  C   UNL d   1       0.649  -3.572   0.759  0.00  0.00     0.164 C 
BRANCH  17  18
ATOM     18  C   UNL d   1       1.925  -3.631   1.649  0.00  0.00     0.305 C 
BRANCH  18  19
ATOM     19  N   UNL d   1       1.789  -3.993   3.074  0.00  0.00     0.086 N 
ATOM     20  C   UNL d   1       3.045  -3.758   3.785  0.00  0.00     0.310 C 
BRANCH  19  21
ATOM     21  C   UNL d   1       1.209  -5.313   3.369  0.00  0.00     0.272 C 
BRANCH  21  22
ATOM     22  C   UNL d   1       1.843  -6.593   2.793  0.00  0.00     0.030 C 
BRANCH  22  23
ATOM     23  C   UNL d   1       3.155  -7.099   3.405  0.00  0.00    -0.003 C 
ATOM     24  C   UNL d   1       3.071  -7.424   4.888  0.00  0.00     0.005 C 
ENDBRANCH  22  23
ENDBRANCH  21  22
ENDBRANCH  19  21
ENDBRANCH  18  19
ENDBRANCH  17  18
BRANCH  17  25
ATOM     25  O   UNL d   1       0.111  -4.886   0.540  0.00  0.00    -0.392 OA
ATOM     26  H   UNL d   1       0.830  -5.440   0.190  0.00  0.00     0.210 HD
ENDBRANCH  17  25
ENDBRANCH  16  17
ENDBRANCH   1  16
TORSDOF 8
