REMARK  4 active torsions:
REMARK  status: ('A' for Active; 'I' for Inactive)
REMARK    1  A    between atoms: C_5  and  C_3 
REMARK    2  A    between atoms: C_10  and  C_4 
REMARK    3  A    between atoms: O_21  and  C_8 
REMARK    4  A    between atoms: O_22  and  C_15 
ROOT
ATOM      1  N   UNL d   1      -0.411   1.660  -0.598  0.00  0.00    -0.357 N 
ATOM      2  HN  UNL d   1      -0.231   2.241  -1.417  1.00  0.00     0.166 HD
ATOM      3  C   UNL d   1      -2.384  -0.483   0.719  0.00  0.00     0.093 C 
ATOM      4  C   UNL d   1      -1.553   1.780   0.013  0.00  0.00     0.028 C 
ATOM      5  S   UNL d   1      -1.116  -1.518  -0.159  0.00  0.00    -0.118 SA
ATOM      6  C   UNL d   1      -1.937   0.903   1.186  0.00  0.00     0.079 C 
ATOM      7  C   UNL d   1       0.584   0.763  -0.178  0.00  0.00     0.049 A 
ATOM      8  C   UNL d   1       0.410  -0.619   0.041  0.00  0.00     0.028 A 
ATOM      9  C   UNL d   1       1.875   1.300  -0.060  0.00  0.00     0.031 A 
ATOM     10  C   UNL d   1       1.528  -1.413   0.356  0.00  0.00     0.021 A 
ATOM     11  C   UNL d   1       2.976   0.504   0.263  0.00  0.00     0.002 A 
ATOM     12  C   UNL d   1       2.802  -0.857   0.469  0.00  0.00     0.002 A 
ENDROOT
BRANCH   3  13
ATOM     13  C   UNL d   1      -3.707  -0.495  -0.062  0.00  0.00    -0.019 A 
ATOM     14  C   UNL d   1      -4.965  -0.643   0.573  0.00  0.00     0.077 A 
ATOM     15  C   UNL d   1      -6.145  -0.781  -0.197  0.00  0.00     0.123 A 
ATOM     16 CL   UNL d   1      -5.027  -0.529   2.307  0.00  0.00    -0.081 Cl
ATOM     17  C   UNL d   1      -6.071  -0.714  -1.607  0.00  0.00     0.103 A 
ATOM     18  C   UNL d   1      -4.846  -0.468  -2.223  0.00  0.00     0.040 A 
ATOM     19  C   UNL d   1      -3.688  -0.350  -1.460  0.00  0.00     0.013 A 
BRANCH  15  20
ATOM     20  O   UNL d   1      -7.426  -0.868   0.302  0.00  0.00    -0.351 OA
ATOM     21  C   UNL d   1      -7.662  -1.749   1.392  0.00  0.00     0.210 C 
ENDBRANCH  15  20
BRANCH  17  22
ATOM     22  O   UNL d   1      -7.247  -0.894  -2.296  0.00  0.00    -0.353 OA
ATOM     23  C   UNL d   1      -7.179  -0.903  -3.719  0.00  0.00     0.210 C 
ENDBRANCH  17  22
ENDBRANCH   3  13
BRANCH   4  24
ATOM     24  C   UNL d   1      -2.515   2.781  -0.462  0.00  0.00     0.027 A 
ATOM     25  S   UNL d   1      -2.158   3.723  -1.859  0.00  0.00    -0.100 SA
ATOM     26  C   UNL d   1      -3.661   4.528  -1.801  0.00  0.00     0.050 A 
ATOM     27  C   UNL d   1      -4.423   4.119  -0.733  0.00  0.00     0.008 A 
ATOM     28  C   UNL d   1      -3.760   3.124   0.045  0.00  0.00     0.021 A 
ENDBRANCH   4  24
TORSDOF 4
