REMARK  4 active torsions:
REMARK  status: ('A' for Active; 'I' for Inactive)
REMARK    1  A    between atoms: N_7  and  C_1 
REMARK    2  A    between atoms: C_11  and  C_2 
REMARK       I    between atoms: C_8  and  N_7 
REMARK    3  A    between atoms: O_13  and  C_8 
REMARK    4  A    between atoms: C_15  and  O_13 
ROOT
ATOM      1  C   UNL d   1       4.043  -4.628   0.420  0.00  0.00    -0.091 C 
ATOM      2  C   UNL d   1       4.996  -4.319  -0.235  0.00  0.00     0.014 C 
ATOM      3  C   UNL d   1       2.830  -4.940   1.187  0.00  0.00     0.273 C 
ENDROOT
BRANCH   3   4
ATOM      4  O   UNL d   1       1.696  -4.363   0.531  0.00  0.00    -0.292 OA
BRANCH   4   5
ATOM      5  C   UNL d   1       1.510  -3.042   0.794  0.00  0.00     0.366 C 
ATOM      6  N   UNL d   1       0.529  -2.570  -0.029  0.00  0.00    -0.298 N 
ATOM      7  H   UNL d   1      -0.053  -3.280  -0.451  0.00  0.00     0.171 HD
ATOM      8  O   UNL d   1       2.099  -2.417   1.663  0.00  0.00    -0.238 OA
BRANCH   6   9
ATOM      9  C   UNL d   1       0.067  -1.266   0.005  0.00  0.00     0.098 A 
ATOM     10  C   UNL d   1      -1.294  -0.826  -0.056  0.00  0.00     0.094 A 
ATOM     11  N   UNL d   1      -1.343   0.517  -0.085  0.00  0.00    -0.258 N 
ATOM     12  O   UNL d   1      -0.043   0.958  -0.002  0.00  0.00    -0.240 OA
ATOM     13  HN  UNL d   1      -2.180   1.095  -0.154  1.00  0.00     0.195 HD
ATOM     14  C   UNL d   1       0.804  -0.102   0.059  0.00  0.00     0.101 A 
ATOM     15  C   UNL d   1       2.236   0.257   0.072  0.00  0.00     0.081 C 
BRANCH  10  16
ATOM     16  C   UNL d   1      -2.531  -1.611   0.004  0.00  0.00    -0.005 A 
ATOM     17  C   UNL d   1      -2.588  -2.836   0.689  0.00  0.00     0.014 A 
ATOM     18  C   UNL d   1      -3.793  -3.535   0.803  0.00  0.00     0.001 A 
ATOM     19  C   UNL d   1      -4.958  -3.011   0.250  0.00  0.00     0.000 A 
ATOM     20  C   UNL d   1      -4.919  -1.795  -0.427  0.00  0.00     0.001 A 
ATOM     21  C   UNL d   1      -3.713  -1.102  -0.554  0.00  0.00     0.014 A 
ENDBRANCH  10  16
ENDBRANCH   6   9
ENDBRANCH   4   5
ENDBRANCH   3   4
TORSDOF 4
