REMARK  7 active torsions:
REMARK  status: ('A' for Active; 'I' for Inactive)
REMARK    1  A    between atoms: N_3  and  C_1 
REMARK    2  A    between atoms: C_4  and  C_1 
REMARK    3  A    between atoms: N_7  and  C_1 
REMARK    4  A    between atoms: C_9  and  C_1 
REMARK    5  A    between atoms: C_2  and  N_3 
REMARK       I    between atoms: C_12  and  N_7 
REMARK    6  A    between atoms: O_18  and  C_9 
REMARK    7  A    between atoms: C_22  and  O_18 
ROOT
ATOM      1  C   UNL d   1       1.015  -0.107   0.030  0.00  0.00     0.298 C 
ENDROOT
BRANCH   1   2
ATOM      2  N   UNL d   1       0.699  -1.541  -0.149  0.00  0.00    -0.328 N 
ATOM      3  H   UNL d   1       0.581  -1.864  -1.109  0.00  0.00     0.165 HD
BRANCH   2   4
ATOM      4  C   UNL d   1       0.886  -2.502   0.803  0.00  0.00     0.148 A 
ATOM      5  N   UNL d   1       1.116  -2.180   2.043  0.00  0.00    -0.336 N 
ATOM      6  C   UNL d   1       1.259  -3.343   2.789  0.00  0.00     0.051 A 
ATOM      7  HN  UNL d   1       1.180  -1.229   2.408  1.00  0.00     0.168 HD
ATOM      8  C   UNL d   1       1.490  -3.417   4.174  0.00  0.00     0.031 A 
ATOM      9  C   UNL d   1       1.156  -4.535   2.061  0.00  0.00     0.035 A 
ATOM     10  C   UNL d   1       1.620  -4.664   4.792  0.00  0.00     0.002 A 
ATOM     11  C   UNL d   1       1.530  -5.838   4.044  0.00  0.00     0.002 A 
ATOM     12  C   UNL d   1       1.297  -5.792   2.669  0.00  0.00     0.021 A 
ATOM     13  S   UNL d   1       0.831  -4.154   0.414  0.00  0.00    -0.052 SA
ENDBRANCH   2   4
ENDBRANCH   1   2
BRANCH   1  14
ATOM     14  C   UNL d   1       0.534   0.519   1.382  0.00  0.00     0.442 C 
ATOM     15  F   UNL d   1      -0.581  -0.079   1.865  0.00  0.00    -0.166 F 
ATOM     16  F   UNL d   1       1.464   0.540   2.359  0.00  0.00    -0.166 F 
ATOM     17  F   UNL d   1       0.183   1.825   1.169  0.00  0.00    -0.166 F 
ENDBRANCH   1  14
BRANCH   1  18
ATOM     18  N   UNL d   1       0.419   0.646  -1.107  0.00  0.00    -0.319 N 
ATOM     19  C   UNL d   1       0.376   0.148  -2.379  0.00  0.00     0.216 C 
ATOM     20  O   UNL d   1       0.707  -1.009  -2.618  0.00  0.00    -0.274 OA
ATOM     21  C   UNL d   1      -0.196   1.069  -3.420  0.00  0.00     0.117 C 
ATOM     22  H   UNL d   1       0.337   1.650  -0.975  0.00  0.00     0.165 HD
ENDBRANCH   1  18
BRANCH   1  23
ATOM     23  C   UNL d   1       2.550   0.067   0.063  0.00  0.00     0.318 C 
ATOM     24  O   UNL d   1       3.340  -0.816   0.384  0.00  0.00    -0.260 OA
BRANCH  23  25
ATOM     25  O   UNL d   1       2.920   1.356  -0.204  0.00  0.00    -0.318 OA
BRANCH  25  26
ATOM     26  C   UNL d   1       4.280   1.686   0.140  0.00  0.00     0.174 C 
ATOM     27  C   UNL d   1       5.207   1.532  -1.049  0.00  0.00     0.034 C 
ENDBRANCH  25  26
ENDBRANCH  23  25
ENDBRANCH   1  23
TORSDOF 7
