REMARK  6 active torsions:
REMARK  status: ('A' for Active; 'I' for Inactive)
REMARK    1  A    between atoms: C_2  and  C_1 
REMARK       I    between atoms: N_6  and  C_1 
REMARK    2  A    between atoms: C_3  and  C_4 
REMARK    3  A    between atoms: O_11  and  C_3 
REMARK    4  A    between atoms: C_5  and  C_7 
REMARK    5  A    between atoms: C_7  and  N_6 
REMARK    6  A    between atoms: O_12  and  C_8 
ROOT
ATOM      1  C   UNL d   1      -3.078   0.794   0.373  0.00  0.00     0.241 C 
ATOM      2  N   UNL d   1      -2.260  -0.208  -0.071  0.00  0.00    -0.353 N 
ATOM      3  O   UNL d   1      -2.993   1.344   1.462  0.00  0.00    -0.269 OA
ATOM      4  H   UNL d   1      -2.461  -0.663  -0.948  0.00  0.00     0.163 HD
ENDROOT
BRANCH   2   5
ATOM      5  C   UNL d   1      -1.197  -0.768   0.737  0.00  0.00     0.164 C 
BRANCH   5   6
ATOM      6  C   UNL d   1      -1.567  -2.132   1.253  0.00  0.00    -0.007 A 
ATOM      7  C   UNL d   1      -1.201  -3.318   0.599  0.00  0.00     0.076 A 
ATOM      8  C   UNL d   1      -1.524  -4.564   1.144  0.00  0.00     0.037 A 
ATOM      9  C   UNL d   1      -2.248  -4.642   2.333  0.00  0.00     0.003 A 
ATOM     10  C   UNL d   1      -2.642  -3.475   2.982  0.00  0.00     0.001 A 
ATOM     11  C   UNL d   1      -2.309  -2.230   2.444  0.00  0.00     0.011 A 
BRANCH   7  12
ATOM     12  O   UNL d   1      -0.422  -3.321  -0.527  0.00  0.00    -0.355 OA
ATOM     13  C   UNL d   1      -1.167  -2.995  -1.699  0.00  0.00     0.210 C 
ENDBRANCH   7  12
ENDBRANCH   5   6
ENDBRANCH   2   5
BRANCH   1  14
ATOM     14  C   UNL d   1      -4.117   1.157  -0.617  0.00  0.00     0.080 C 
ATOM     15  C   UNL d   1      -5.062   2.044  -0.280  0.00  0.00     0.086 C 
BRANCH  15  16
ATOM     16  C   UNL d   1      -6.084   2.394  -1.281  0.00  0.00     0.165 C 
ATOM     17  O   UNL d   1      -6.086   1.983  -2.429  0.00  0.00    -0.647 OA
BRANCH  16  18
ATOM     18  O   UNL d   1      -7.024   3.218  -0.785  0.00  0.00    -0.773 OA
ATOM     19  H   UNL d   1      -6.919   3.462   0.152  0.00  0.00     0.167 HD
ENDBRANCH  16  18
ENDBRANCH  15  16
ENDBRANCH   1  14
TORSDOF 6
