REMARK  6 active torsions:
REMARK  status: ('A' for Active; 'I' for Inactive)
REMARK       I    between atoms: N_6  and  C_1 
REMARK    1  A    between atoms: C_10  and  C_1 
REMARK    2  A    between atoms: C_2  and  C_11 
REMARK    3  A    between atoms: O_12  and  C_2 
REMARK    4  A    between atoms: C_3  and  S_7 
REMARK    5  A    between atoms: C_11  and  N_6 
REMARK    6  A    between atoms: S_7  and  C_10 
ROOT
ATOM      1  C   UNL d   1       1.045  -0.008   0.224  0.00  0.00     0.227 C 
ATOM      2  N   UNL d   1       0.386  -0.529   1.316  0.00  0.00    -0.351 N 
ATOM      3  O   UNL d   1       0.428   0.539  -0.691  0.00  0.00    -0.273 OA
ATOM      4  H   UNL d   1       0.896  -1.278   1.785  0.00  0.00     0.163 HD
ENDROOT
BRANCH   1   5
ATOM      5  C   UNL d   1       2.559  -0.168   0.132  0.00  0.00     0.183 C 
BRANCH   5   6
ATOM      6  S   UNL d   1       3.430  -0.734   1.621  0.00  0.00    -0.103 SA
BRANCH   6   7
ATOM      7  C   UNL d   1       2.901  -2.426   1.687  0.00  0.00     0.069 A 
ATOM      8  N   UNL d   1       1.775  -2.628   2.417  0.00  0.00    -0.361 N 
ATOM      9  C   UNL d   1       1.344  -3.904   2.548  0.00  0.00     0.089 A 
ATOM     10  HN  UNL d   1       1.275  -1.851   2.848  1.00  0.00     0.165 HD
ATOM     11  C   UNL d   1       1.964  -4.984   1.950  0.00  0.00     0.017 A 
ATOM     12  C   UNL d   1       3.100  -4.749   1.181  0.00  0.00     0.004 A 
ATOM     13  C   UNL d   1       3.584  -3.448   1.048  0.00  0.00     0.037 A 
ENDBRANCH   6   7
ENDBRANCH   5   6
ENDBRANCH   1   5
BRANCH   2  14
ATOM     14  C   UNL d   1      -1.062  -0.692   1.244  0.00  0.00     0.232 C 
BRANCH  14  15
ATOM     15  C   UNL d   1      -1.672  -1.257   2.520  0.00  0.00     0.158 C 
ATOM     16  O   UNL d   1      -2.800  -1.722   2.589  0.00  0.00    -0.649 OA
BRANCH  15  17
ATOM     17  O   UNL d   1      -0.873  -1.145   3.609  0.00  0.00    -0.775 OA
ATOM     18  H   UNL d   1      -0.033  -0.685   3.390  0.00  0.00     0.167 HD
ENDBRANCH  15  17
ENDBRANCH  14  15
ENDBRANCH   2  14
TORSDOF 6
