REMARK  2 active torsions:
REMARK  status: ('A' for Active; 'I' for Inactive)
REMARK    1  A    between atoms: C_6  and  N_1 
REMARK    2  A    between atoms: N_13  and  C_2 
ROOT
ATOM      1  N   UNL d   1       0.971  -0.573   0.005  0.00  0.00    -0.238 N 
ATOM      2  C   UNL d   1       0.901   0.742   0.502  0.00  0.00     0.143 A 
ATOM      3  N   UNL d   1      -0.220  -0.963  -0.518  0.00  0.00    -0.302 N 
ATOM      4  HN  UNL d   1      -0.437  -1.852  -0.969  1.00  0.00     0.186 HD
ATOM      5  C   UNL d   1      -0.407   1.141   0.310  0.00  0.00     0.106 A 
ATOM      6  C   UNL d   1      -1.042   0.064  -0.316  0.00  0.00     0.134 A 
ATOM      7  C   UNL d   1      -0.973   2.410   0.619  0.00  0.00     0.104 C 
ATOM      8  N   UNL d   1      -1.421   3.452   0.858  0.00  0.00    -0.191 NA
ENDROOT
BRANCH   2   9
ATOM      9  N   UNL d   1       1.961   1.449   0.987  0.00  0.00    -0.383 N 
ATOM     10  H   UNL d   1       2.916   1.200   0.730  0.00  0.00     0.157 HD
ATOM     11  H   UNL d   1       1.872   2.453   1.149  0.00  0.00     0.157 HD
ENDBRANCH   2   9
BRANCH   1  12
ATOM     12  C   UNL d   1       2.080  -1.470  -0.001  0.00  0.00     0.079 A 
ATOM     13  C   UNL d   1       2.240  -2.439  -1.012  0.00  0.00     0.073 A 
ATOM     14  C   UNL d   1       1.350  -2.602  -2.133  0.00  0.00     0.102 C 
ATOM     15  C   UNL d   1       3.385  -3.257  -0.997  0.00  0.00     0.025 A 
ATOM     16  N   UNL d   1       0.703  -2.775  -3.082  0.00  0.00    -0.191 NA
ATOM     17  C   UNL d   1       4.345  -3.134   0.007  0.00  0.00     0.002 A 
ATOM     18  C   UNL d   1       4.164  -2.206   1.026  0.00  0.00     0.002 A 
ATOM     19  C   UNL d   1       3.036  -1.385   1.028  0.00  0.00     0.033 A 
ENDBRANCH   1  12
TORSDOF 2
