REMARK  2 active torsions:
REMARK  status: ('A' for Active; 'I' for Inactive)
REMARK    1  A    between atoms: C_7  and  N_1 
REMARK    2  A    between atoms: N_6  and  C_4 
ROOT
ATOM      1  N   UNL d   1       0.085   0.820   0.060  0.00  0.00    -0.251 N 
ATOM      2  C   UNL d   1      -0.980   0.031   0.452  0.00  0.00     0.265 C 
ATOM      3  C   UNL d   1       1.190   0.037  -0.189  0.00  0.00     0.233 C 
ATOM      4  C   UNL d   1      -0.662  -1.435   0.139  0.00  0.00     0.323 C 
ATOM      5  C   UNL d   1       0.860  -1.392   0.102  0.00  0.00     0.149 C 
ATOM      6  O   UNL d   1      -2.042   0.371   0.957  0.00  0.00    -0.270 OA
ATOM      7  O   UNL d   1       2.332   0.379  -0.476  0.00  0.00    -0.273 OA
ENDROOT
BRANCH   1   8
ATOM      8  C   UNL d   1       0.088   2.250   0.007  0.00  0.00     0.045 A 
ATOM      9  C   UNL d   1      -0.886   3.019   0.668  0.00  0.00     0.032 A 
ATOM     10  C   UNL d   1      -0.876   4.422   0.613  0.00  0.00     0.026 A 
ATOM     11  C   UNL d   1       0.102   5.082  -0.118  0.00  0.00     0.034 A 
ATOM     12  C   UNL d   1       1.070   4.350  -0.793  0.00  0.00     0.026 A 
ATOM     13 CL   UNL d   1       0.111   6.799  -0.191  0.00  0.00    -0.084 Cl
ATOM     14  C   UNL d   1       1.062   2.951  -0.726  0.00  0.00     0.032 A 
ENDBRANCH   1   8
BRANCH   4  15
ATOM     15  N   UNL d   1      -1.232  -1.870  -1.163  0.00  0.00     0.106 N 
ATOM     16  C   UNL d   1      -0.975  -3.307  -1.454  0.00  0.00     0.299 C 
ATOM     17  C   UNL d   1      -1.906  -4.300  -0.734  0.00  0.00     0.198 C 
ATOM     18  O   UNL d   1      -3.282  -3.997  -0.968  0.00  0.00    -0.388 OA
ATOM     19  C   UNL d   1      -3.578  -2.658  -0.556  0.00  0.00     0.198 C 
ATOM     20  C   UNL d   1      -2.695  -1.647  -1.305  0.00  0.00     0.299 C 
ENDBRANCH   4  15
TORSDOF 2
