REMARK  5 active torsions:
REMARK  status: ('A' for Active; 'I' for Inactive)
REMARK    1  A    between atoms: C_13  and  N_1 
REMARK    2  A    between atoms: O_15  and  C_7 
REMARK    3  A    between atoms: O_17  and  C_8 
REMARK    4  A    between atoms: O_18  and  C_10 
REMARK    5  A    between atoms: C_14  and  C_13 
ROOT
ATOM      1  N   UNL d   1       2.496  -0.643  -0.049  0.00  0.00    -0.287 N 
ATOM      2  C   UNL d   1       0.030  -0.585  -0.035  0.00  0.00     0.065 A 
ATOM      3  C   UNL d   1       1.294  -1.362  -0.029  0.00  0.00     0.262 A 
ATOM      4  C   UNL d   1       2.530   0.738  -0.064  0.00  0.00     0.181 A 
ATOM      5  C   UNL d   1       0.067   0.810  -0.030  0.00  0.00     0.087 A 
ATOM      6  N   UNL d   1       1.337   1.397  -0.046  0.00  0.00    -0.330 N 
ATOM      7  C   UNL d   1      -1.144   1.548  -0.007  0.00  0.00     0.132 A 
ATOM      8  C   UNL d   1      -2.392   0.846   0.002  0.00  0.00     0.137 A 
ATOM      9  C   UNL d   1      -1.189  -1.264  -0.022  0.00  0.00     0.059 A 
ATOM     10  C   UNL d   1      -2.400  -0.567  -0.006  0.00  0.00     0.105 A 
ATOM     11  S   UNL d   1       3.885   1.730  -0.092  0.00  0.00    -0.040 SA
ATOM     12  O   UNL d   1       1.233  -2.587   0.015  0.00  0.00    -0.267 OA
ATOM     13  H   UNL d   1       1.453   2.393  -0.039  0.00  0.00     0.168 HD
ENDROOT
BRANCH   1  14
ATOM     14  C   UNL d   1       3.723  -1.440   0.043  0.00  0.00     0.161 C 
BRANCH  14  15
ATOM     15  C   UNL d   1       4.313  -1.813  -1.294  0.00  0.00    -0.017 C 
ATOM     16  C   UNL d   1       3.883  -1.511  -2.527  0.00  0.00     0.008 C 
ENDBRANCH  14  15
ENDBRANCH   1  14
BRANCH  10  17
ATOM     17  O   UNL d   1      -3.473  -1.423   0.005  0.00  0.00    -0.353 OA
ATOM     18  C   UNL d   1      -4.796  -0.909  -0.000  0.00  0.00     0.210 C 
ENDBRANCH  10  17
BRANCH   7  19
ATOM     19  O   UNL d   1      -1.280   2.907   0.012  0.00  0.00    -0.351 OA
ATOM     20  C   UNL d   1      -0.232   3.849   0.011  0.00  0.00     0.210 C 
ENDBRANCH   7  19
BRANCH   8  21
ATOM     21  O   UNL d   1      -3.637   1.425   0.026  0.00  0.00    -0.351 OA
ATOM     22  C   UNL d   1      -3.834   2.828   0.009  0.00  0.00     0.210 C 
ENDBRANCH   8  21
TORSDOF 5
