REMARK  2 active torsions:
REMARK  status: ('A' for Active; 'I' for Inactive)
REMARK    1  A    between atoms: C_8  and  C_6 
REMARK    2  A    between atoms: N_10  and  C_9 
ROOT
ATOM      1  N   UNL d   1       1.002  -0.607  -1.061  0.00  0.00    -0.305 N 
ATOM      2  HN  UNL d   1       0.224  -1.120  -0.647  1.00  0.00     0.186 HD
ATOM      3  C   UNL d   1       1.183  -0.309  -2.311  0.00  0.00     0.043 C 
ATOM      4  N   UNL d   1       2.086  -0.078  -0.426  0.00  0.00    -0.322 N 
ATOM      5  C   UNL d   1       2.418   0.506  -2.608  0.00  0.00     0.067 C 
ATOM      6  C   UNL d   1       3.220   0.125  -1.348  0.00  0.00     0.144 C 
ATOM      7  C   UNL d   1       0.319  -0.687  -3.426  0.00  0.00    -0.005 A 
ATOM      8  C   UNL d   1      -0.335   0.316  -4.153  0.00  0.00    -0.046 A 
ATOM      9  C   UNL d   1       2.415  -0.462   0.928  0.00  0.00     0.171 C 
ATOM     10  C   UNL d   1       2.043   1.997  -2.654  0.00  0.00     0.013 C 
ATOM     11  C   UNL d   1       0.305  -2.019  -3.844  0.00  0.00     0.014 A 
ATOM     12  C   UNL d   1       1.090   2.384  -3.794  0.00  0.00     0.005 C 
ATOM     13  C   UNL d   1      -0.305   1.754  -3.696  0.00  0.00     0.039 C 
ATOM     14  C   UNL d   1      -1.019  -0.048  -5.320  0.00  0.00     0.008 A 
ATOM     15  C   UNL d   1      -0.366  -2.360  -5.016  0.00  0.00     0.001 A 
ATOM     16  C   UNL d   1      -1.024  -1.377  -5.754  0.00  0.00     0.001 A 
ENDROOT
BRANCH   6  17
ATOM     17  C   UNL d   1       4.110  -1.102  -1.577  0.00  0.00    -0.033 A 
ATOM     18  C   UNL d   1       3.620  -2.411  -1.542  0.00  0.00     0.011 A 
ATOM     19  C   UNL d   1       4.457  -3.514  -1.751  0.00  0.00     0.030 A 
ATOM     20  C   UNL d   1       5.830  -3.379  -1.993  0.00  0.00     0.029 A 
ATOM     21  C   UNL d   1       6.306  -2.059  -2.066  0.00  0.00     0.030 A 
ATOM     22  C   UNL d   1       5.470  -0.942  -1.863  0.00  0.00     0.011 A 
BRANCH  20  23
ATOM     23  N   UNL d   1       6.630  -4.504  -2.216  0.00  0.00    -0.390 N 
ATOM     24  C   UNL d   1       6.426  -5.673  -1.353  0.00  0.00     0.149 C 
ATOM     25  C   UNL d   1       8.015  -4.327  -2.646  0.00  0.00     0.149 C 
ENDBRANCH  20  23
ENDBRANCH   6  17
TORSDOF 2
