REMARK  5 active torsions:
REMARK  status: ('A' for Active; 'I' for Inactive)
REMARK    1  A    between atoms: N_7  and  S_1 
REMARK    2  A    between atoms: C_8  and  S_1 
REMARK    3  A    between atoms: C_2  and  N_7 
REMARK    4  A    between atoms: C_9  and  C_3 
REMARK    5  A    between atoms: C_12  and  C_6 
ROOT
ATOM      1  C   UNL d   1       0.782   2.346   0.953  0.00  0.00     0.045 A 
ATOM      2  C   UNL d   1       2.041   2.598   1.472  0.00  0.00     0.073 A 
ATOM      3  S   UNL d   1       1.953   3.679   2.794  0.00  0.00    -0.084 SA
ATOM      4  C   UNL d   1      -0.237   3.068   1.658  0.00  0.00     0.045 A 
ATOM      5  C   UNL d   1       0.248   3.810   2.719  0.00  0.00     0.017 A 
ENDROOT
BRANCH   1   6
ATOM      6  N   UNL d   1       0.461   1.485  -0.133  0.00  0.00    -0.180 NA
ATOM      7  H   UNL d   1      -0.406   1.771  -0.596  0.00  0.00     0.146 HD
BRANCH   6   8
ATOM      8  S   UNL d   1       0.191  -0.159   0.278  0.00  0.00     0.245 S 
ATOM      9  O   UNL d   1      -1.250  -0.283   0.402  0.00  0.00    -0.206 OA
ATOM     10  O   UNL d   1       1.082  -0.559   1.344  0.00  0.00    -0.206 OA
BRANCH   8  11
ATOM     11  C   UNL d   1       0.683  -1.035  -1.189  0.00  0.00     0.074 A 
ATOM     12  C   UNL d   1       2.006  -0.947  -1.628  0.00  0.00     0.026 A 
ATOM     13  C   UNL d   1       2.418  -1.683  -2.742  0.00  0.00     0.025 A 
ATOM     14  C   UNL d   1       1.510  -2.509  -3.403  0.00  0.00     0.034 A 
ATOM     15  C   UNL d   1       0.189  -2.600  -2.965  0.00  0.00     0.025 A 
ATOM     16 CL   UNL d   1       2.029  -3.435  -4.757  0.00  0.00    -0.084 Cl
ATOM     17  C   UNL d   1      -0.231  -1.861  -1.854  0.00  0.00     0.026 A 
ENDBRANCH   8  11
ENDBRANCH   6   8
ENDBRANCH   1   6
BRANCH   2  18
ATOM     18  C   UNL d   1       3.333   2.109   1.001  0.00  0.00     0.164 C 
ATOM     19  O   UNL d   1       3.504   1.684  -0.145  0.00  0.00    -0.292 OA
ATOM     20  C   UNL d   1       4.539   2.158   1.918  0.00  0.00     0.097 C 
ENDBRANCH   2  18
BRANCH   5  21
ATOM     21  C   UNL d   1      -0.483   4.596   3.731  0.00  0.00    -0.019 A 
ATOM     22  C   UNL d   1      -1.772   4.207   4.133  0.00  0.00     0.013 A 
ATOM     23  C   UNL d   1      -2.459   4.910   5.129  0.00  0.00     0.001 A 
ATOM     24  C   UNL d   1      -1.870   6.014   5.739  0.00  0.00     0.000 A 
ATOM     25  C   UNL d   1      -0.602   6.426   5.346  0.00  0.00     0.001 A 
ATOM     26  C   UNL d   1       0.082   5.727   4.346  0.00  0.00     0.013 A 
ENDBRANCH   5  21
TORSDOF 5
