REMARK  1 active torsions:
REMARK  status: ('A' for Active; 'I' for Inactive)
REMARK       I    between atoms: C_2  and  N_1 
REMARK    1  A    between atoms: C_3  and  C_2 
ROOT
ATOM      1  N   UNL d   1       2.368   0.865  -0.259  0.00  0.00    -0.302 N 
ATOM      2  C   UNL d   1       3.559   1.537  -0.639  0.00  0.00     0.265 C 
ATOM      3  C   UNL d   1       1.097   1.535   0.118  0.00  0.00     0.233 C 
ATOM      4  C   UNL d   1       2.414  -0.531  -0.154  0.00  0.00     0.097 C 
ATOM      5  C   UNL d   1      -0.139   0.648   0.110  0.00  0.00    -0.011 A 
ATOM      6  C   UNL d   1       1.344  -1.306   0.060  0.00  0.00     0.029 C 
ATOM      7  C   UNL d   1       1.226   2.250   1.406  0.00  0.00     0.090 C 
ATOM      8  N   UNL d   1       1.347   2.858   2.385  0.00  0.00    -0.195 NA
ATOM      9  O   UNL d   1       4.535   0.918  -1.067  0.00  0.00    -0.267 OA
ATOM     10  C   UNL d   1      -0.001  -0.742   0.109  0.00  0.00    -0.026 A 
ATOM     11  C   UNL d   1      -1.424   1.220   0.082  0.00  0.00     0.011 A 
ATOM     12  C   UNL d   1      -1.141  -1.552   0.100  0.00  0.00     0.012 A 
ATOM     13  C   UNL d   1      -2.556   0.409   0.053  0.00  0.00     0.001 A 
ATOM     14  C   UNL d   1      -2.415  -0.976   0.067  0.00  0.00     0.001 A 
ENDROOT
BRANCH   2  15
ATOM     15  C   UNL d   1       3.756   3.011  -0.489  0.00  0.00     0.109 A 
ATOM     16  C   UNL d   1       2.863   3.990  -0.920  0.00  0.00     0.135 A 
ATOM     17  F   UNL d   1       1.777   3.684  -1.638  0.00  0.00    -0.205 F 
ATOM     18  C   UNL d   1       3.088   5.349  -0.679  0.00  0.00     0.043 A 
ATOM     19  C   UNL d   1       4.280   5.768  -0.102  0.00  0.00     0.006 A 
ATOM     20  C   UNL d   1       5.241   4.819   0.228  0.00  0.00     0.043 A 
ATOM     21  C   UNL d   1       4.970   3.457   0.050  0.00  0.00     0.135 A 
ATOM     22  F   UNL d   1       5.927   2.592   0.418  0.00  0.00    -0.205 F 
ENDBRANCH   2  15
TORSDOF 1
