REMARK  2 active torsions:
REMARK  status: ('A' for Active; 'I' for Inactive)
REMARK    1  A    between atoms: C_7  and  C_1 
REMARK    2  A    between atoms: C_8  and  C_5 
ROOT
ATOM      1  C   UNL d   1      -0.109   1.050   0.022  0.00  0.00     0.158 A 
ATOM      2  N   UNL d   1      -1.238   0.368  -0.030  0.00  0.00    -0.343 N 
ATOM      3  HN  UNL d   1      -2.190   0.731  -0.059  1.00  0.00     0.167 HD
ATOM      4  O   UNL d   1       1.019   0.267   0.030  0.00  0.00    -0.291 OA
ATOM      5  C   UNL d   1       0.542  -1.020   0.002  0.00  0.00     0.103 A 
ATOM      6  C   UNL d   1      -0.833  -0.939  -0.037  0.00  0.00     0.128 A 
ENDROOT
BRANCH   1   7
ATOM      7  C   UNL d   1       0.076   2.496   0.116  0.00  0.00     0.015 A 
ATOM      8  C   UNL d   1      -1.054   3.331   0.166  0.00  0.00     0.017 A 
ATOM      9  C   UNL d   1      -0.921   4.717   0.295  0.00  0.00     0.025 A 
ATOM     10  C   UNL d   1       0.349   5.281   0.374  0.00  0.00     0.034 A 
ATOM     11  C   UNL d   1       1.482   4.474   0.316  0.00  0.00     0.025 A 
ATOM     12 CL   UNL d   1       0.518   6.984   0.554  0.00  0.00    -0.084 Cl
ATOM     13  C   UNL d   1       1.347   3.087   0.186  0.00  0.00     0.017 A 
ENDBRANCH   1   7
BRANCH   5  14
ATOM     14  C   UNL d   1       1.511  -2.107   0.057  0.00  0.00    -0.001 A 
ATOM     15  C   UNL d   1       2.893  -1.867   0.026  0.00  0.00     0.016 A 
ATOM     16  C   UNL d   1       3.808  -2.923   0.122  0.00  0.00     0.024 A 
ATOM     17  C   UNL d   1       3.347  -4.231   0.246  0.00  0.00     0.034 A 
ATOM     18  C   UNL d   1       1.982  -4.494   0.262  0.00  0.00     0.024 A 
ATOM     19 CL   UNL d   1       4.468  -5.527   0.389  0.00  0.00    -0.084 Cl
ATOM     20  C   UNL d   1       1.071  -3.437   0.166  0.00  0.00     0.016 A 
ENDBRANCH   5  14
TORSDOF 2
