REMARK  5 active torsions:
REMARK  status: ('A' for Active; 'I' for Inactive)
REMARK    1  A    between atoms: C_11  and  C_5 
REMARK    2  A    between atoms: C_12  and  C_23 
REMARK    3  A    between atoms: O_22  and  C_14 
REMARK    4  A    between atoms: O_21  and  C_16 
REMARK    5  A    between atoms: C_23  and  O_21 
ROOT
ATOM      1  C   UNL d   1      -2.053   0.328   0.029  0.00  0.00    -0.006 C 
ATOM      2  C   UNL d   1      -1.079  -0.804   0.002  0.00  0.00     0.189 C 
ATOM      3  C   UNL d   1       0.363  -0.429   0.011  0.00  0.00     0.021 A 
ATOM      4  C   UNL d   1       0.757   0.920  -0.027  0.00  0.00    -0.041 A 
ATOM      5  C   UNL d   1      -3.256   0.124  -0.531  0.00  0.00     0.022 C 
ATOM      6  C   UNL d   1       1.330  -1.439   0.019  0.00  0.00     0.019 A 
ATOM      7  C   UNL d   1      -1.547   1.601   0.645  0.00  0.00     0.047 C 
ATOM      8  O   UNL d   1      -1.434  -1.978  -0.041  0.00  0.00    -0.287 OA
ATOM      9  C   UNL d   1       2.121   1.230  -0.090  0.00  0.00     0.044 A 
ATOM     10  C   UNL d   1      -0.262   2.029  -0.052  0.00  0.00     0.044 C 
ATOM     11  C   UNL d   1       3.090   0.222  -0.088  0.00  0.00     0.068 A 
ATOM     12  C   UNL d   1       2.690  -1.113  -0.025  0.00  0.00     0.038 A 
ENDROOT
BRANCH   5  13
ATOM     13  C   UNL d   1      -4.264   1.174  -0.649  0.00  0.00    -0.035 A 
ATOM     14  C   UNL d   1      -4.303   1.982  -1.790  0.00  0.00     0.014 A 
ATOM     15  C   UNL d   1      -5.247   3.006  -1.889  0.00  0.00     0.037 A 
ATOM     16  C   UNL d   1      -6.163   3.221  -0.858  0.00  0.00     0.069 A 
ATOM     17  C   UNL d   1      -6.094   2.442   0.299  0.00  0.00     0.037 A 
ATOM     18  C   UNL d   1      -5.154   1.413   0.399  0.00  0.00     0.014 A 
BRANCH  16  19
ATOM     19  O   UNL d   1      -7.076   4.217  -1.079  0.00  0.00    -0.348 OA
BRANCH  19  20
ATOM     20  C   UNL d   1      -8.283   4.107  -0.324  0.00  0.00     0.202 C 
BRANCH  20  21
ATOM     21  C   UNL d   1      -9.346   4.900  -1.021  0.00  0.00    -0.011 C 
ATOM     22  C   UNL d   1     -10.471   4.367  -1.518  0.00  0.00     0.009 C 
ENDBRANCH  20  21
ENDBRANCH  19  20
ENDBRANCH  16  19
ENDBRANCH   5  13
BRANCH  11  23
ATOM     23  O   UNL d   1       4.377   0.677  -0.153  0.00  0.00    -0.356 OA
ATOM     24  C   UNL d   1       5.406  -0.304  -0.160  0.00  0.00     0.210 C 
ENDBRANCH  11  23
TORSDOF 5
