REMARK  2 active torsions:
REMARK  status: ('A' for Active; 'I' for Inactive)
REMARK    1  A    between atoms: N_6  and  C_1 
REMARK       I    between atoms: C_8  and  N_6 
REMARK    2  A    between atoms: C_10  and  C_8 
ROOT
ATOM      1  C   UNL d   1       2.339  -0.504  -0.289  0.00  0.00     0.155 C 
ATOM      2  S   UNL d   1       2.253   1.193  -0.615  0.00  0.00    -0.011 SA
ATOM      3  C   UNL d   1       0.748   1.496   0.194  0.00  0.00     0.228 C 
ATOM      4  N   UNL d   1       1.331  -1.304  -0.177  0.00  0.00    -0.336 N 
ATOM      5  HN  UNL d   1       1.493  -2.301  -0.035  1.00  0.00     0.168 HD
ATOM      6  C   UNL d   1      -0.321   0.518  -0.015  0.00  0.00     0.048 A 
ATOM      7  C   UNL d   1       0.014  -0.816  -0.249  0.00  0.00     0.048 A 
ATOM      8  O   UNL d   1       0.555   2.521   0.832  0.00  0.00    -0.279 OA
ATOM      9  C   UNL d   1      -1.654   0.950   0.017  0.00  0.00     0.018 A 
ATOM     10  C   UNL d   1      -1.027  -1.719  -0.489  0.00  0.00     0.030 A 
ATOM     11  C   UNL d   1      -2.676   0.039  -0.229  0.00  0.00     0.001 A 
ATOM     12  C   UNL d   1      -2.361  -1.295  -0.490  0.00  0.00     0.002 A 
ENDROOT
BRANCH   1  13
ATOM     13  N   UNL d   1       3.581  -1.085  -0.134  0.00  0.00    -0.303 N 
ATOM     14  C   UNL d   1       4.857  -0.528  -0.162  0.00  0.00     0.257 C 
ATOM     15  O   UNL d   1       5.138   0.616  -0.495  0.00  0.00    -0.267 OA
ATOM     16  H   UNL d   1       3.501  -2.076   0.042  0.00  0.00     0.171 HD
BRANCH  14  17
ATOM     17  C   UNL d   1       5.977  -1.448   0.173  0.00  0.00     0.032 A 
ATOM     18  C   UNL d   1       7.210  -1.233  -0.461  0.00  0.00     0.018 A 
ATOM     19  C   UNL d   1       8.291  -2.079  -0.208  0.00  0.00     0.025 A 
ATOM     20  C   UNL d   1       8.144  -3.132   0.691  0.00  0.00     0.034 A 
ATOM     21  C   UNL d   1       6.934  -3.332   1.357  0.00  0.00     0.025 A 
ATOM     22 CL   UNL d   1       9.465  -4.194   0.983  0.00  0.00    -0.084 Cl
ATOM     23  C   UNL d   1       5.847  -2.487   1.105  0.00  0.00     0.018 A 
ENDBRANCH  14  17
ENDBRANCH   1  13
TORSDOF 2
