REMARK  2 active torsions:
REMARK  status: ('A' for Active; 'I' for Inactive)
REMARK    1  A    between atoms: C_3  and  N_1 
REMARK    2  A    between atoms: C_2  and  C_3 
ROOT
ATOM      1  C   UNL d   1       2.700   2.167  -1.386  0.00  0.00    -0.022 A 
ATOM      2  C   UNL d   1       2.989   1.879  -2.708  0.00  0.00     0.060 A 
ATOM      3  S   UNL d   1       4.653   1.742  -3.017  0.00  0.00    -0.101 SA
ATOM      4  C   UNL d   1       3.914   2.258  -0.594  0.00  0.00    -0.011 A 
ATOM      5  C   UNL d   1       5.057   2.073  -1.383  0.00  0.00     0.015 A 
ATOM      6  C   UNL d   1       4.110   2.515   0.787  0.00  0.00     0.013 A 
ATOM      7  C   UNL d   1       6.358   2.162  -0.843  0.00  0.00     0.019 A 
ATOM      8  C   UNL d   1       5.399   2.595   1.329  0.00  0.00     0.001 A 
ATOM      9  C   UNL d   1       6.511   2.430   0.517  0.00  0.00     0.001 A 
ENDROOT
BRANCH   1  10
ATOM     10  C   UNL d   1       1.296   2.392  -0.874  0.00  0.00     0.175 C 
BRANCH  10  11
ATOM     11  N   UNL d   1       0.706   1.120  -0.485  0.00  0.00    -0.280 N 
ATOM     12  C   UNL d   1       0.590   0.833   0.872  0.00  0.00     0.250 C 
ATOM     13  O   UNL d   1       0.893   1.621   1.768  0.00  0.00    -0.271 OA
ATOM     14  C   UNL d   1       0.080  -0.567   1.202  0.00  0.00     0.271 C 
ATOM     15  O   UNL d   1      -0.883  -1.060   0.288  0.00  0.00    -0.373 OA
ATOM     16  C   UNL d   1      -0.369  -1.036  -1.031  0.00  0.00     0.271 C 
ATOM     17  C   UNL d   1       0.124   0.337  -1.480  0.00  0.00     0.250 C 
ATOM     18  O   UNL d   1       0.025   0.688  -2.656  0.00  0.00    -0.271 OA
ENDBRANCH  10  11
ENDBRANCH   1  10
TORSDOF 2
