REMARK  4 active torsions:
REMARK  status: ('A' for Active; 'I' for Inactive)
REMARK    1  A    between atoms: C_2  and  C_1 
REMARK    2  A    between atoms: O_6  and  C_2 
REMARK    3  A    between atoms: C_4  and  C_8 
REMARK    4  A    between atoms: C_8  and  O_6 
ROOT
ATOM      1  O   UNL d   1       0.102   3.675  -0.195  0.00  0.00    -0.313 OA
ENDROOT
BRANCH   1   2
ATOM      2  C   UNL d   1      -0.398   2.437  -0.010  0.00  0.00     0.295 C 
ATOM      3  O   UNL d   1       0.274   1.426   0.140  0.00  0.00    -0.259 OA
BRANCH   2   4
ATOM      4  C   UNL d   1      -1.891   2.391  -0.009  0.00  0.00     0.061 A 
ATOM      5  C   UNL d   1      -2.768   3.487   0.018  0.00  0.00     0.050 A 
ATOM      6 CL   UNL d   1      -2.280   5.147   0.041  0.00  0.00    -0.083 Cl
ATOM      7  C   UNL d   1      -4.157   3.273   0.053  0.00  0.00     0.025 A 
ATOM      8  C   UNL d   1      -4.685   1.983   0.064  0.00  0.00     0.002 A 
ATOM      9  C   UNL d   1      -3.829   0.890   0.037  0.00  0.00     0.001 A 
ATOM     10  C   UNL d   1      -2.448   1.094  -0.001  0.00  0.00     0.019 A 
ENDBRANCH   2   4
ENDBRANCH   1   2
BRANCH   1  11
ATOM     11  C   UNL d   1       1.529   3.820  -0.086  0.00  0.00     0.219 C 
BRANCH  11  12
ATOM     12  C   UNL d   1       2.113   4.635  -1.222  0.00  0.00    -0.012 A 
ATOM     13  C   UNL d   1       3.499   4.872  -1.292  0.00  0.00     0.044 A 
ATOM     14  C   UNL d   1       4.054   5.606  -2.344  0.00  0.00     0.048 A 
ATOM     15 CL   UNL d   1       4.583   4.272  -0.084  0.00  0.00    -0.084 Cl
ATOM     16  C   UNL d   1       3.227   6.117  -3.337  0.00  0.00     0.035 A 
ATOM     17  C   UNL d   1       1.853   5.908  -3.286  0.00  0.00     0.024 A 
ATOM     18 CL   UNL d   1       3.907   7.015  -4.638  0.00  0.00    -0.084 Cl
ATOM     19  C   UNL d   1       1.298   5.172  -2.234  0.00  0.00     0.013 A 
ENDBRANCH  11  12
ENDBRANCH   1  11
TORSDOF 4
