REMARK  5 active torsions:
REMARK  status: ('A' for Active; 'I' for Inactive)
REMARK    1  A    between atoms: C_10  and  N_1 
REMARK    2  A    between atoms: S_12  and  C_2 
REMARK    3  A    between atoms: C_7  and  C_11 
REMARK    4  A    between atoms: C_11  and  C_16 
REMARK    5  A    between atoms: C_16  and  S_12 
ROOT
ATOM      1  N   UNL d   1       4.944  -0.013  -0.820  0.00  0.00    -0.219 N 
ATOM      2  C   UNL d   1       3.724  -0.682  -0.899  0.00  0.00     0.177 A 
ATOM      3  N   UNL d   1       3.364  -0.784  -2.160  0.00  0.00    -0.264 N 
ATOM      4  HN  UNL d   1       2.535  -1.254  -2.524  1.00  0.00     0.186 HD
ATOM      5  N   UNL d   1       4.322  -0.138  -2.882  0.00  0.00    -0.006 NA
ATOM      6  N   UNL d   1       5.261   0.359  -2.095  0.00  0.00     0.001 NA
ENDROOT
BRANCH   2   7
ATOM      7  S   UNL d   1       2.728  -1.217   0.411  0.00  0.00    -0.083 SA
BRANCH   7   8
ATOM      8  C   UNL d   1       2.707  -3.006   0.095  0.00  0.00     0.168 C 
BRANCH   8   9
ATOM      9  C   UNL d   1       4.066  -3.669   0.313  0.00  0.00     0.192 C 
ATOM     10  O   UNL d   1       5.125  -3.048   0.220  0.00  0.00    -0.289 OA
BRANCH   9  11
ATOM     11  C   UNL d   1       4.035  -5.100   0.529  0.00  0.00     0.123 A 
ATOM     12  O   UNL d   1       2.862  -5.695   0.902  0.00  0.00    -0.306 OA
ATOM     13  C   UNL d   1       3.085  -7.036   0.934  0.00  0.00     0.086 A 
ATOM     14  C   UNL d   1       2.130  -8.004   1.230  0.00  0.00     0.038 A 
ATOM     15  C   UNL d   1       4.402  -7.315   0.590  0.00  0.00     0.001 A 
ATOM     16  C   UNL d   1       2.538  -9.335   1.107  0.00  0.00     0.003 A 
ATOM     17  C   UNL d   1       3.846  -9.659   0.734  0.00  0.00     0.001 A 
ATOM     18  C   UNL d   1       4.799  -8.659   0.492  0.00  0.00     0.014 A 
ATOM     19  C   UNL d   1       5.023  -6.055   0.394  0.00  0.00     0.055 A 
ENDBRANCH   9  11
ENDBRANCH   8   9
ENDBRANCH   7   8
ENDBRANCH   2   7
BRANCH   1  20
ATOM     20  C   UNL d   1       5.829   0.306   0.253  0.00  0.00     0.058 A 
ATOM     21  C   UNL d   1       5.678  -0.215   1.543  0.00  0.00     0.055 A 
ATOM     22  C   UNL d   1       6.598   0.101   2.547  0.00  0.00     0.036 A 
ATOM     23 CL   UNL d   1       6.401  -0.576   4.119  0.00  0.00    -0.084 Cl
ATOM     24  C   UNL d   1       7.674   0.941   2.288  0.00  0.00     0.024 A 
ATOM     25  C   UNL d   1       7.840   1.466   1.009  0.00  0.00     0.004 A 
ATOM     26  C   UNL d   1       6.928   1.149  -0.003  0.00  0.00     0.031 A 
ENDBRANCH   1  20
TORSDOF 5
