REMARK  1 active torsions:
REMARK  status: ('A' for Active; 'I' for Inactive)
REMARK    1  A    between atoms: C_4  and  N_1 
ROOT
ATOM      1  N   UNL d   1       0.502   1.107  -0.652  0.00  0.00    -0.252 N 
ATOM      2  C   UNL d   1       1.315  -0.014  -0.452  0.00  0.00     0.232 C 
ATOM      3  C   UNL d   1      -0.842   1.145  -0.269  0.00  0.00     0.232 C 
ATOM      4  C   UNL d   1       0.610  -1.348  -0.299  0.00  0.00     0.113 C 
ATOM      5  C   UNL d   1      -1.565  -0.179  -0.267  0.00  0.00     0.113 C 
ATOM      6  C   UNL d   1      -0.751  -1.289   0.387  0.00  0.00    -0.031 C 
ATOM      7  O   UNL d   1      -1.456   2.166   0.048  0.00  0.00    -0.273 OA
ATOM      8  O   UNL d   1       2.549  -0.017  -0.489  0.00  0.00    -0.273 OA
ATOM      9  C   UNL d   1      -1.479  -2.630   0.174  0.00  0.00     0.016 C 
ATOM     10  C   UNL d   1      -0.598  -1.051   1.899  0.00  0.00     0.016 C 
ENDROOT
BRANCH   1  11
ATOM     11  C   UNL d   1       1.109   2.360  -1.037  0.00  0.00     0.052 A 
ATOM     12  C   UNL d   1       2.297   2.797  -0.426  0.00  0.00     0.054 A 
ATOM     13  C   UNL d   1       2.891   4.004  -0.798  0.00  0.00     0.036 A 
ATOM     14 CL   UNL d   1       4.344   4.518  -0.030  0.00  0.00    -0.084 Cl
ATOM     15  C   UNL d   1       2.317   4.801  -1.780  0.00  0.00     0.024 A 
ATOM     16  C   UNL d   1       1.145   4.383  -2.404  0.00  0.00     0.011 A 
ATOM     17  C   UNL d   1       0.540   3.159  -2.063  0.00  0.00    -0.035 A 
ATOM     18  C   UNL d   1      -0.685   2.759  -2.845  0.00  0.00     0.050 C 
ENDBRANCH   1  11
TORSDOF 1
