REMARK  5 active torsions:
REMARK  status: ('A' for Active; 'I' for Inactive)
REMARK    1  A    between atoms: S_11  and  C_3 
REMARK    2  A    between atoms: C_6  and  C_10 
REMARK    3  A    between atoms: C_14  and  C_7 
REMARK    4  A    between atoms: O_15  and  C_9 
REMARK    5  A    between atoms: C_10  and  S_11 
ROOT
ATOM      1  N   UNL d   1      -0.328  -1.151  -0.050  0.00  0.00    -0.318 N 
ATOM      2  HN  UNL d   1      -0.869  -2.015  -0.079  1.00  0.00     0.170 HD
ATOM      3  C   UNL d   1       1.008  -1.154   0.019  0.00  0.00     0.146 A 
ATOM      4  N   UNL d   1       1.772  -0.049   0.052  0.00  0.00    -0.336 N 
ATOM      5  HN  UNL d   1       2.790  -0.111   0.095  1.00  0.00     0.168 HD
ATOM      6  C   UNL d   1       1.144   1.148   0.027  0.00  0.00     0.048 A 
ATOM      7  C   UNL d   1      -0.233   1.239  -0.049  0.00  0.00     0.086 A 
ATOM      8  C   UNL d   1      -0.910   0.047  -0.080  0.00  0.00     0.143 A 
ENDROOT
BRANCH   3   9
ATOM      9  S   UNL d   1       1.846  -2.718   0.151  0.00  0.00    -0.089 SA
BRANCH   9  10
ATOM     10  C   UNL d   1       0.580  -3.812  -0.568  0.00  0.00     0.126 C 
BRANCH  10  11
ATOM     11  C   UNL d   1       0.946  -5.272  -0.441  0.00  0.00     0.012 A 
ATOM     12  C   UNL d   1       1.678  -5.887  -1.465  0.00  0.00     0.125 A 
ATOM     13  F   UNL d   1       2.050  -5.176  -2.539  0.00  0.00    -0.205 F 
ATOM     14  C   UNL d   1       2.027  -7.236  -1.415  0.00  0.00     0.043 A 
ATOM     15  C   UNL d   1       1.648  -8.008  -0.323  0.00  0.00     0.005 A 
ATOM     16  C   UNL d   1       0.929  -7.419   0.716  0.00  0.00     0.024 A 
ATOM     17  C   UNL d   1       0.585  -6.061   0.661  0.00  0.00     0.044 A 
ATOM     18 CL   UNL d   1      -0.306  -5.419   1.996  0.00  0.00    -0.084 Cl
ENDBRANCH  10  11
ENDBRANCH   9  10
ENDBRANCH   3   9
BRANCH   8  19
ATOM     19  O   UNL d   1      -2.273   0.014  -0.139  0.00  0.00    -0.346 OA
ATOM     20  H   UNL d   1      -2.612   0.919  -0.085  0.00  0.00     0.219 HD
ENDBRANCH   8  19
BRANCH   6  21
ATOM     21  C   UNL d   1       2.011   2.346   0.086  0.00  0.00    -0.009 A 
ATOM     22  C   UNL d   1       1.600   3.530   0.732  0.00  0.00     0.013 A 
ATOM     23  C   UNL d   1       2.418   4.663   0.774  0.00  0.00     0.001 A 
ATOM     24  C   UNL d   1       3.673   4.638   0.174  0.00  0.00     0.000 A 
ATOM     25  C   UNL d   1       4.110   3.480  -0.463  0.00  0.00     0.001 A 
ATOM     26  C   UNL d   1       3.289   2.348  -0.502  0.00  0.00     0.013 A 
ENDBRANCH   6  21
TORSDOF 5
