REMARK  3 active torsions:
REMARK  status: ('A' for Active; 'I' for Inactive)
REMARK    1  A    between atoms: N_7  and  C_1 
REMARK    2  A    between atoms: N_5  and  C_4 
REMARK    3  A    between atoms: N_8  and  C_6 
ROOT
ATOM      1  C   UNL d   1      -0.690   1.230  -0.073  0.00  0.00     0.138 A 
ATOM      2  N   UNL d   1      -1.372   0.055  -0.087  0.00  0.00    -0.327 N 
ATOM      3  HN  UNL d   1      -2.389   0.062  -0.157  1.00  0.00     0.169 HD
ATOM      4  C   UNL d   1       0.699   1.208   0.061  0.00  0.00     0.146 A 
ATOM      5  C   UNL d   1      -0.713  -1.126  -0.008  0.00  0.00     0.104 A 
ATOM      6  C   UNL d   1       1.403   0.007   0.106  0.00  0.00     0.043 A 
ATOM      7  C   UNL d   1       0.680  -1.175   0.060  0.00  0.00     0.051 A 
ENDROOT
BRANCH   1   8
ATOM      8  N   UNL d   1      -1.427   2.411  -0.146  0.00  0.00    -0.365 N 
ATOM      9  C   UNL d   1      -2.849   2.307   0.197  0.00  0.00     0.124 C 
ATOM     10  C   UNL d   1      -3.324   3.698   0.623  0.00  0.00     0.020 C 
ATOM     11  C   UNL d   1      -3.049   4.743  -0.461  0.00  0.00     0.003 C 
ATOM     12  C   UNL d   1      -1.600   4.688  -0.949  0.00  0.00     0.020 C 
ATOM     13  C   UNL d   1      -1.188   3.263  -1.318  0.00  0.00     0.124 C 
ENDBRANCH   1   8
BRANCH   4  14
ATOM     14  N   UNL d   1       1.451   2.425   0.239  0.00  0.00    -0.112 N 
ATOM     15  O   UNL d   1       1.221   3.118   1.239  0.00  0.00    -0.532 OA
ATOM     16  O   UNL d   1       2.335   2.659  -0.600  0.00  0.00    -0.532 OA
ENDBRANCH   4  14
BRANCH   5  17
ATOM     17  N   UNL d   1      -1.422  -2.317   0.131  0.00  0.00    -0.367 N 
ATOM     18  C   UNL d   1      -2.799  -2.176   0.610  0.00  0.00     0.124 C 
ATOM     19  C   UNL d   1      -3.205  -3.521   1.222  0.00  0.00     0.020 C 
ATOM     20  C   UNL d   1      -3.033  -4.667   0.227  0.00  0.00     0.003 C 
ATOM     21  C   UNL d   1      -1.651  -4.658  -0.434  0.00  0.00     0.020 C 
ATOM     22  C   UNL d   1      -1.282  -3.273  -0.969  0.00  0.00     0.124 C 
ENDBRANCH   5  17
TORSDOF 3
