REMARK  2 active torsions:
REMARK  status: ('A' for Active; 'I' for Inactive)
REMARK    1  A    between atoms: C_4  and  N_1 
REMARK    2  A    between atoms: C_8  and  C_7 
ROOT
ATOM      1  C   UNL d   1      -2.505   0.014  -0.578  0.00  0.00     0.053 A 
ATOM      2  C   UNL d   1      -2.878   0.650  -1.782  0.00  0.00    -0.023 A 
ATOM      3  C   UNL d   1      -3.448  -0.717   0.180  0.00  0.00     0.031 A 
ATOM      4  C   UNL d   1      -4.225   0.464  -2.188  0.00  0.00     0.010 A 
ATOM      5  C   UNL d   1      -4.764  -0.851  -0.242  0.00  0.00     0.002 A 
ATOM      6  C   UNL d   1      -5.151  -0.264  -1.433  0.00  0.00     0.001 A 
ENDROOT
BRANCH   1   7
ATOM      7  N   UNL d   1      -1.188   0.027  -0.076  0.00  0.00    -0.244 N 
ATOM      8  C   UNL d   1      -0.362  -1.055  -0.183  0.00  0.00     0.255 C 
ATOM      9  C   UNL d   1       0.706  -0.883   0.810  0.00  0.00     0.087 C 
ATOM     10  O   UNL d   1      -0.445  -2.047  -0.883  0.00  0.00    -0.268 OA
ATOM     11  C   UNL d   1       0.399   0.179   1.560  0.00  0.00     0.012 C 
ATOM     12  C   UNL d   1      -0.848   0.760   1.025  0.00  0.00     0.261 C 
ATOM     13  C   UNL d   1       1.095   0.724   2.746  0.00  0.00     0.054 C 
ATOM     14  O   UNL d   1      -1.419   1.702   1.542  0.00  0.00    -0.267 OA
ENDBRANCH   1   7
BRANCH   2  15
ATOM     15  C   UNL d   1      -1.932   1.452  -2.711  0.00  0.00    -0.022 C 
ATOM     16  C   UNL d   1      -1.348   0.472  -3.748  0.00  0.00     0.019 C 
ATOM     17  C   UNL d   1      -2.690   2.578  -3.469  0.00  0.00     0.019 C 
ATOM     18  C   UNL d   1      -0.755   2.176  -2.018  0.00  0.00     0.019 C 
ENDBRANCH   2  15
TORSDOF 2
