REMARK  5 active torsions:
REMARK  status: ('A' for Active; 'I' for Inactive)
REMARK    1  A    between atoms: C_2  and  S_1 
REMARK    2  A    between atoms: C_5  and  S_1 
REMARK    3  A    between atoms: C_7  and  C_2 
REMARK    4  A    between atoms: S_6  and  C_7 
REMARK    5  A    between atoms: C_8  and  S_6 
ROOT
ATOM      1  C   UNL d   1       0.503  -0.871  -1.451  0.00  0.00     0.156 C 
ENDROOT
BRANCH   1   2
ATOM      2  S   UNL d   1       1.054  -0.003   0.000  0.00  0.00     0.176 S 
ATOM      3  O   UNL d   1       0.475   1.326  -0.022  0.00  0.00    -0.223 OA
ATOM      4  O   UNL d   1       2.489  -0.184   0.115  0.00  0.00    -0.223 OA
BRANCH   2   5
ATOM      5  C   UNL d   1       0.297  -0.888   1.348  0.00  0.00     0.059 A 
ATOM      6  C   UNL d   1       0.972  -1.959   1.939  0.00  0.00     0.023 A 
ATOM      7  C   UNL d   1       0.408  -2.602   3.043  0.00  0.00     0.002 A 
ATOM      8  C   UNL d   1      -0.817  -2.171   3.555  0.00  0.00     0.000 A 
ATOM      9  C   UNL d   1      -1.485  -1.096   2.965  0.00  0.00     0.002 A 
ATOM     10  C   UNL d   1      -0.927  -0.447   1.862  0.00  0.00     0.023 A 
ENDBRANCH   2   5
ENDBRANCH   1   2
BRANCH   1  11
ATOM     11  C   UNL d   1       0.988  -0.154  -2.702  0.00  0.00     0.095 C 
BRANCH  11  12
ATOM     12  S   UNL d   1       0.431  -1.081  -4.178  0.00  0.00    -0.129 SA
BRANCH  12  13
ATOM     13  C   UNL d   1       1.024  -0.007  -5.473  0.00  0.00     0.000 A 
ATOM     14  C   UNL d   1       2.390   0.231  -5.655  0.00  0.00     0.020 A 
ATOM     15  C   UNL d   1       2.830   1.057  -6.695  0.00  0.00     0.025 A 
ATOM     16  C   UNL d   1       1.904   1.640  -7.558  0.00  0.00     0.034 A 
ATOM     17  C   UNL d   1       0.542   1.396  -7.396  0.00  0.00     0.025 A 
ATOM     18 CL   UNL d   1       2.445   2.661  -8.832  0.00  0.00    -0.084 Cl
ATOM     19  C   UNL d   1       0.104   0.568  -6.357  0.00  0.00     0.020 A 
ENDBRANCH  12  13
ENDBRANCH  11  12
ENDBRANCH   1  11
TORSDOF 5
