REMARK  5 active torsions:
REMARK  status: ('A' for Active; 'I' for Inactive)
REMARK    1  A    between atoms: C_10  and  C_2 
REMARK    2  A    between atoms: S_11  and  C_7 
REMARK    3  A    between atoms: C_15  and  S_11 
REMARK    4  A    between atoms: C_12  and  C_15 
REMARK    5  A    between atoms: C_14  and  C_12 
ROOT
ATOM      1  C   UNL d   1       0.527  -0.468  -0.007  0.00  0.00     0.140 A 
ATOM      2  C   UNL d   1      -0.317  -1.524   0.006  0.00  0.00     0.072 A 
ATOM      3  N   UNL d   1      -1.473   0.880   0.049  0.00  0.00    -0.302 N 
ATOM      4  C   UNL d   1      -0.113   0.872   0.014  0.00  0.00     0.270 A 
ATOM      5  N   UNL d   1      -1.704  -1.440   0.045  0.00  0.00    -0.335 N 
ATOM      6  HN  UNL d   1      -2.289  -2.275   0.064  1.00  0.00     0.168 HD
ATOM      7  C   UNL d   1      -2.215  -0.258   0.055  0.00  0.00     0.148 A 
ATOM      8  C   UNL d   1       1.949  -0.556  -0.043  0.00  0.00     0.107 C 
ATOM      9  N   UNL d   1       3.106  -0.661  -0.071  0.00  0.00    -0.191 NA
ATOM     10  O   UNL d   1       0.536   1.913  -0.008  0.00  0.00    -0.266 OA
ATOM     11  H   UNL d   1      -1.940   1.776   0.046  0.00  0.00     0.171 HD
ENDROOT
BRANCH   2  12
ATOM     12  C   UNL d   1       0.225  -2.895  -0.030  0.00  0.00     0.008 A 
ATOM     13  C   UNL d   1       0.513  -3.535  -1.235  0.00  0.00     0.101 A 
ATOM     14  N   UNL d   1       1.004  -4.794  -1.330  0.00  0.00    -0.374 N 
ATOM     15  C   UNL d   1       1.217  -5.450  -0.169  0.00  0.00     0.087 A 
ATOM     16  HN  UNL d   1       1.204  -5.225  -2.233  1.00  0.00     0.164 HD
ATOM     17  C   UNL d   1       0.965  -4.906   1.080  0.00  0.00     0.018 A 
ATOM     18  C   UNL d   1       0.462  -3.608   1.148  0.00  0.00     0.016 A 
ENDBRANCH   2  12
BRANCH   7  19
ATOM     19  S   UNL d   1      -3.918   0.079   0.011  0.00  0.00    -0.086 SA
BRANCH  19  20
ATOM     20  C   UNL d   1      -4.638  -1.327   0.901  0.00  0.00     0.161 C 
BRANCH  20  21
ATOM     21  C   UNL d   1      -6.101  -1.032   1.214  0.00  0.00     0.144 C 
ATOM     22  O   UNL d   1      -6.376  -0.438   2.267  0.00  0.00    -0.296 OA
BRANCH  21  23
ATOM     23  C   UNL d   1      -7.240  -1.524   0.281  0.00  0.00     0.010 C 
ATOM     24  C   UNL d   1      -7.641  -2.940   0.718  0.00  0.00     0.022 C 
ATOM     25  C   UNL d   1      -8.446  -0.577   0.461  0.00  0.00     0.022 C 
ATOM     26  C   UNL d   1      -6.896  -1.549  -1.213  0.00  0.00     0.022 C 
ENDBRANCH  21  23
ENDBRANCH  20  21
ENDBRANCH  19  20
ENDBRANCH   7  19
TORSDOF 5
