REMARK  1 active torsions:
REMARK  status: ('A' for Active; 'I' for Inactive)
REMARK    1  A    between atoms: N_3  and  C_2 
ROOT
ATOM      1  C   UNL d   1      -0.364   0.301   0.165  0.00  0.00     0.109 A 
ATOM      2  C   UNL d   1       0.331   1.528   0.018  0.00  0.00     0.054 A 
ATOM      3  C   UNL d   1      -1.794   0.247   0.257  0.00  0.00     0.105 C 
ATOM      4  N   UNL d   1      -2.952   0.216   0.356  0.00  0.00    -0.191 NA
ATOM      5  C   UNL d   1       0.329  -0.910   0.158  0.00  0.00     0.139 A 
ATOM      6  F   UNL d   1      -0.331  -2.071   0.296  0.00  0.00    -0.204 F 
ATOM      7  C   UNL d   1       1.726   1.457  -0.149  0.00  0.00     0.031 A 
ATOM      8  C   UNL d   1       2.410   0.234  -0.165  0.00  0.00     0.005 A 
ATOM      9  C   UNL d   1       1.708  -0.954  -0.006  0.00  0.00     0.044 A 
ENDROOT
BRANCH   2  10
ATOM     10  N   UNL d   1      -0.346   2.747  -0.021  0.00  0.00    -0.376 N 
ATOM     11  C   UNL d   1       0.212   3.895  -0.760  0.00  0.00     0.149 C 
ATOM     12  C   UNL d   1      -0.935   4.873  -1.087  0.00  0.00     0.187 C 
ATOM     13  O   UNL d   1      -1.627   5.298   0.101  0.00  0.00    -0.388 OA
ATOM     14  C   UNL d   1      -2.165   4.162   0.804  0.00  0.00     0.187 C 
ATOM     15  C   UNL d   1      -1.047   3.187   1.210  0.00  0.00     0.149 C 
ENDBRANCH   2  10
TORSDOF 1
