REMARK  4 active torsions:
REMARK  status: ('A' for Active; 'I' for Inactive)
REMARK    1  A    between atoms: C_13  and  N_1 
REMARK    2  A    between atoms: N_2  and  C_5 
REMARK    3  A    between atoms: C_16  and  C_6 
REMARK    4  A    between atoms: C_17  and  C_13 
ROOT
ATOM      1  N   UNL d   1       0.908   3.695   2.553  0.00  0.00    -0.197 NA
ATOM      2  C   UNL d   1       0.967   3.310   1.464  0.00  0.00     0.063 C 
ATOM      3  C   UNL d   1       1.025   2.843   0.071  0.00  0.00     0.165 C 
ENDROOT
BRANCH   3   4
ATOM      4  C   UNL d   1       0.976   1.336  -0.046  0.00  0.00     0.000 C 
ATOM      5  C   UNL d   1      -0.269   0.646  -0.080  0.00  0.00     0.002 A 
ATOM      6  C   UNL d   1      -0.303  -0.748  -0.215  0.00  0.00     0.045 A 
ATOM      7  C   UNL d   1      -1.624   1.079   0.018  0.00  0.00     0.031 A 
ATOM      8  N   UNL d   1      -1.628  -1.139  -0.105  0.00  0.00    -0.352 N 
ATOM      9  C   UNL d   1       0.860  -1.510  -0.392  0.00  0.00     0.033 C 
ATOM     10  C   UNL d   1      -2.432  -0.032   0.002  0.00  0.00     0.092 A 
ATOM     11  C   UNL d   1       2.084  -0.864  -0.283  0.00  0.00     0.039 C 
ATOM     12  C   UNL d   1       2.133   0.518  -0.071  0.00  0.00     0.111 C 
BRANCH   8  13
ATOM     13  C   UNL d   1      -2.110  -2.514   0.042  0.00  0.00     0.167 C 
BRANCH  13  14
ATOM     14  C   UNL d   1      -2.455  -3.115  -1.294  0.00  0.00    -0.040 A 
ATOM     15  C   UNL d   1      -1.513  -3.877  -2.000  0.00  0.00     0.009 A 
ATOM     16  C   UNL d   1      -1.774  -4.296  -3.303  0.00  0.00     0.001 A 
ATOM     17  C   UNL d   1      -2.992  -3.985  -3.903  0.00  0.00     0.000 A 
ATOM     18  C   UNL d   1      -3.964  -3.289  -3.187  0.00  0.00     0.001 A 
ATOM     19  C   UNL d   1      -3.699  -2.858  -1.888  0.00  0.00     0.009 A 
ENDBRANCH  13  14
ENDBRANCH   8  13
BRANCH  12  20
ATOM     20  N   UNL d   1       3.454   1.067   0.188  0.00  0.00    -0.115 N 
ATOM     21  O   UNL d   1       3.877   1.921  -0.602  0.00  0.00    -0.532 OA
ATOM     22  O   UNL d   1       4.067   0.629   1.169  0.00  0.00    -0.532 OA
ENDBRANCH  12  20
ENDBRANCH   3   4
TORSDOF 4
