REMARK  5 active torsions:
REMARK  status: ('A' for Active; 'I' for Inactive)
REMARK    1  A    between atoms: C_4  and  C_1 
REMARK    2  A    between atoms: C_2  and  C_4 
REMARK    3  A    between atoms: O_13  and  C_2 
REMARK    4  A    between atoms: O_15  and  C_12 
REMARK    5  A    between atoms: C_17  and  O_13 
ROOT
ATOM      1  C   UNL d   1       2.425  -0.698  -0.046  0.00  0.00    -0.044 A 
ATOM      2  C   UNL d   1       1.210  -1.399  -0.015  0.00  0.00     0.020 A 
ATOM      3  C   UNL d   1      -0.024  -0.724   0.011  0.00  0.00    -0.025 A 
ATOM      4  C   UNL d   1      -0.044   0.687   0.008  0.00  0.00    -0.023 A 
ATOM      5  C   UNL d   1       2.390   0.703  -0.039  0.00  0.00     0.009 A 
ATOM      6  C   UNL d   1      -1.280   1.357   0.016  0.00  0.00     0.049 A 
ATOM      7  C   UNL d   1       1.172   1.386  -0.011  0.00  0.00     0.013 A 
ATOM      8  C   UNL d   1      -1.242  -1.422   0.030  0.00  0.00     0.015 A 
ATOM      9  C   UNL d   1      -2.487   0.653   0.026  0.00  0.00     0.069 A 
ATOM     10  C   UNL d   1      -2.464  -0.739   0.037  0.00  0.00     0.037 A 
ENDROOT
BRANCH   1  11
ATOM     11  C   UNL d   1       3.740  -1.456  -0.145  0.00  0.00     0.114 C 
ATOM     12  C   UNL d   1       4.649  -1.213   1.059  0.00  0.00     0.025 C 
BRANCH  11  13
ATOM     13  C   UNL d   1       4.458  -1.101  -1.440  0.00  0.00     0.267 C 
ATOM     14  O   UNL d   1       5.233  -0.163  -1.581  0.00  0.00    -0.265 OA
BRANCH  13  15
ATOM     15  O   UNL d   1       4.026  -1.920  -2.442  0.00  0.00    -0.321 OA
BRANCH  15  16
ATOM     16  C   UNL d   1       4.287  -1.456  -3.774  0.00  0.00     0.174 C 
ATOM     17  C   UNL d   1       3.126  -0.580  -4.206  0.00  0.00     0.034 C 
ENDBRANCH  15  16
ENDBRANCH  13  15
ENDBRANCH  11  13
ENDBRANCH   1  11
BRANCH   9  18
ATOM     18  O   UNL d   1      -3.609   1.437   0.023  0.00  0.00    -0.356 OA
ATOM     19  C   UNL d   1      -4.863   0.766  -0.003  0.00  0.00     0.210 C 
ENDBRANCH   9  18
TORSDOF 5
