REMARK  6 active torsions:
REMARK  status: ('A' for Active; 'I' for Inactive)
REMARK    1  A    between atoms: C_5  and  C_1 
REMARK    2  A    between atoms: C_2  and  C_6 
REMARK    3  A    between atoms: O_10  and  C_3 
REMARK       I    between atoms: C_4  and  N_7 
REMARK    4  A    between atoms: C_8  and  C_4 
REMARK    5  A    between atoms: N_7  and  C_5 
REMARK    6  A    between atoms: C_16  and  O_10 
ROOT
ATOM      1  C   UNL d   1      -0.555   2.303  -0.074  0.00  0.00     0.166 C 
ENDROOT
BRANCH   1   2
ATOM      2  C   UNL d   1       0.208   1.001  -0.067  0.00  0.00     0.015 A 
ATOM      3  C   UNL d   1       1.617   0.989  -0.098  0.00  0.00     0.085 A 
ATOM      4  C   UNL d   1       2.325  -0.221  -0.204  0.00  0.00     0.038 A 
ATOM      5  C   UNL d   1       1.650  -1.436  -0.197  0.00  0.00     0.004 A 
ATOM      6  C   UNL d   1       0.263  -1.447  -0.120  0.00  0.00     0.024 A 
ATOM      7  C   UNL d   1      -0.454  -0.243  -0.072  0.00  0.00     0.044 A 
ATOM      8 CL   UNL d   1      -2.180  -0.385  -0.043  0.00  0.00    -0.084 Cl
BRANCH   3   9
ATOM      9  O   UNL d   1       2.285   2.201  -0.074  0.00  0.00    -0.310 OA
BRANCH   9  10
ATOM     10  C   UNL d   1       3.450   2.262   0.663  0.00  0.00     0.076 A 
ATOM     11  C   UNL d   1       4.547   2.882   0.065  0.00  0.00     0.037 A 
ATOM     12  C   UNL d   1       5.773   2.917   0.731  0.00  0.00     0.003 A 
ATOM     13  C   UNL d   1       5.896   2.346   1.999  0.00  0.00     0.000 A 
ATOM     14  C   UNL d   1       4.787   1.766   2.615  0.00  0.00     0.003 A 
ATOM     15  C   UNL d   1       3.557   1.740   1.957  0.00  0.00     0.037 A 
ENDBRANCH   9  10
ENDBRANCH   3   9
ENDBRANCH   1   2
BRANCH   1  16
ATOM     16  N   UNL d   1      -0.247   3.233   0.997  0.00  0.00    -0.352 N 
ATOM     17  C   UNL d   1      -0.400   2.902   2.324  0.00  0.00     0.251 C 
ATOM     18  O   UNL d   1      -0.607   1.755   2.711  0.00  0.00    -0.268 OA
ATOM     19  H   UNL d   1      -0.120   4.190   0.721  0.00  0.00     0.163 HD
BRANCH  17  20
ATOM     20  C   UNL d   1      -0.301   4.004   3.330  0.00  0.00     0.032 A 
ATOM     21  C   UNL d   1      -0.429   5.362   3.004  0.00  0.00     0.033 A 
ATOM     22  C   UNL d   1      -0.375   6.349   4.006  0.00  0.00     0.048 A 
ATOM     23  C   UNL d   1      -0.194   5.954   5.340  0.00  0.00     0.016 A 
ATOM     24  C   UNL d   1      -0.072   4.608   5.673  0.00  0.00     0.002 A 
ATOM     25  C   UNL d   1      -0.126   3.640   4.673  0.00  0.00     0.017 A 
BRANCH  22  26
ATOM     26  C   UNL d   1      -0.521   7.814   3.673  0.00  0.00     0.417 C 
ATOM     27  F   UNL d   1      -0.679   8.051   2.340  0.00  0.00    -0.166 F 
ATOM     28  F   UNL d   1      -1.595   8.384   4.284  0.00  0.00    -0.166 F 
ATOM     29  F   UNL d   1       0.561   8.546   4.055  0.00  0.00    -0.166 F 
ENDBRANCH  22  26
ENDBRANCH  17  20
ENDBRANCH   1  16
TORSDOF 6
