REMARK  4 active torsions:
REMARK  status: ('A' for Active; 'I' for Inactive)
REMARK    1  A    between atoms: C_11  and  C_1 
REMARK    2  A    between atoms: O_17  and  N_5 
REMARK    3  A    between atoms: O_19  and  C_11 
REMARK    4  A    between atoms: C_21  and  O_19 
ROOT
ATOM      1  C   UNL d   1       1.908   1.603   0.038  0.00  0.00     0.079 A 
ATOM      2  C   UNL d   1       0.925   0.591   0.031  0.00  0.00     0.042 A 
ATOM      3  C   UNL d   1       1.485  -0.676  -0.011  0.00  0.00     0.076 A 
ATOM      4  C   UNL d   1       3.123   0.905  -0.023  0.00  0.00     0.054 A 
ATOM      5  N   UNL d   1       2.845  -0.449  -0.073  0.00  0.00    -0.226 N 
ATOM      6  C   UNL d   1      -0.504   0.669   0.076  0.00  0.00     0.099 A 
ATOM      7  C   UNL d   1       0.731  -1.875  -0.021  0.00  0.00     0.035 A 
ATOM      8  C   UNL d   1      -1.241  -0.541   0.048  0.00  0.00     0.086 A 
ATOM      9  N   UNL d   1      -1.266   1.740   0.145  0.00  0.00    -0.239 N 
ATOM     10  HN  UNL d   1      -0.983   2.718   0.204  1.00  0.00     0.197 HD
ATOM     11  O   UNL d   1      -2.558   1.209   0.117  0.00  0.00    -0.156 OA
ATOM     12  N   UNL d   1      -2.538  -0.185   0.071  0.00  0.00    -0.240 N 
ATOM     13  HN  UNL d   1      -3.344  -0.809   0.059  1.00  0.00     0.197 HD
ATOM     14  C   UNL d   1      -0.675  -1.825   0.006  0.00  0.00     0.036 A 
ATOM     15  C   UNL d   1       4.521   1.418  -0.063  0.00  0.00     0.072 C 
ENDROOT
BRANCH   1  16
ATOM     16  C   UNL d   1       1.778   3.058   0.120  0.00  0.00     0.296 C 
ATOM     17  O   UNL d   1       2.597   3.765   0.686  0.00  0.00    -0.259 OA
BRANCH  16  18
ATOM     18  O   UNL d   1       0.653   3.524  -0.486  0.00  0.00    -0.318 OA
BRANCH  18  19
ATOM     19  C   UNL d   1       0.203   4.827  -0.089  0.00  0.00     0.174 C 
ATOM     20  C   UNL d   1       0.201   5.766  -1.276  0.00  0.00     0.034 C 
ENDBRANCH  18  19
ENDBRANCH  16  18
ENDBRANCH   1  16
BRANCH   5  21
ATOM     21  O   UNL d   1       3.756  -1.463  -0.415  0.00  0.00    -0.278 OA
ATOM     22  C   UNL d   1       4.735  -1.645   0.600  0.00  0.00     0.238 C 
ENDBRANCH   5  21
TORSDOF 4
