REMARK  4 active torsions:
REMARK  status: ('A' for Active; 'I' for Inactive)
REMARK    1  A    between atoms: C_9  and  N_3 
REMARK    2  A    between atoms: C_7  and  C_4 
REMARK    3  A    between atoms: N_6  and  C_11 
REMARK    4  A    between atoms: N_13  and  C_10 
REMARK       I    between atoms: C_15  and  N_13 
ROOT
ATOM      1  C   UNL d   1      -0.678  -2.397   0.049  0.00  0.00     0.082 A 
ATOM      2  C   UNL d   1      -1.573  -2.831  -0.956  0.00  0.00     0.066 A 
ATOM      3  C   UNL d   1      -1.375  -5.100  -0.071  0.00  0.00     0.105 A 
ATOM      4  C   UNL d   1      -1.895  -4.203  -1.010  0.00  0.00     0.068 A 
ATOM      5  C   UNL d   1      -0.181  -3.308   1.000  0.00  0.00     0.036 A 
ATOM      6  C   UNL d   1      -0.525  -4.661   0.951  0.00  0.00     0.038 A 
ENDROOT
BRANCH   1   7
ATOM      7  N   UNL d   1      -0.337  -1.030   0.240  0.00  0.00    -0.265 N 
ATOM      8  N   UNL d   1      -1.180  -0.021  -0.079  0.00  0.00    -0.289 N 
ATOM      9  C   UNL d   1      -0.730   1.034   0.638  0.00  0.00     0.140 C 
ATOM     10  HN  UNL d   1      -1.976  -0.050  -0.716  1.00  0.00     0.187 HD
ATOM     11  C   UNL d   1       0.564   0.767   1.179  0.00  0.00    -0.011 C 
ATOM     12  C   UNL d   1       1.450   1.672   1.952  0.00  0.00     0.052 C 
ATOM     13  C   UNL d   1       0.795  -0.552   0.863  0.00  0.00     0.125 C 
BRANCH   9  14
ATOM     14  C   UNL d   1      -1.523   2.305   0.828  0.00  0.00     0.434 C 
ATOM     15  F   UNL d   1      -2.728   2.294   0.203  0.00  0.00    -0.165 F 
ATOM     16  F   UNL d   1      -1.767   2.539   2.147  0.00  0.00    -0.165 F 
ATOM     17  F   UNL d   1      -0.849   3.393   0.366  0.00  0.00    -0.165 F 
ENDBRANCH   9  14
ENDBRANCH   1   7
BRANCH   2  18
ATOM     18  N   UNL d   1      -2.066  -1.979  -1.979  0.00  0.00    -0.325 N 
ATOM     19  C   UNL d   1      -3.431  -1.866  -2.227  0.00  0.00     0.218 C 
ATOM     20  O   UNL d   1      -4.305  -2.479  -1.623  0.00  0.00    -0.274 OA
ATOM     21  C   UNL d   1      -3.778  -0.908  -3.346  0.00  0.00     0.117 C 
ATOM     22  H   UNL d   1      -1.537  -1.131  -2.160  0.00  0.00     0.169 HD
ENDBRANCH   2  18
BRANCH   3  23
ATOM     23  N   UNL d   1      -1.698  -6.533  -0.146  0.00  0.00    -0.116 N 
ATOM     24  O   UNL d   1      -2.438  -6.910  -1.064  0.00  0.00    -0.532 OA
ATOM     25  O   UNL d   1      -1.194  -7.280   0.704  0.00  0.00    -0.532 OA
ENDBRANCH   3  23
TORSDOF 4
