REMARK  7 active torsions:
REMARK  status: ('A' for Active; 'I' for Inactive)
REMARK    1  A    between atoms: C_5  and  C_1 
REMARK    2  A    between atoms: C_2  and  N_4 
REMARK    3  A    between atoms: N_12  and  C_2 
REMARK    4  A    between atoms: N_4  and  C_3 
REMARK    5  A    between atoms: N_7  and  N_12 
REMARK    6  A    between atoms: C_9  and  C_15 
REMARK    7  A    between atoms: O_21  and  C_13 
ROOT
ATOM      1  C   UNL d   1      -0.957  -1.116  -6.169  0.00  0.00     0.191 C 
ATOM      2  S   UNL d   1      -0.774   0.086  -7.311  0.00  0.00    -0.039 SA
ENDROOT
BRANCH   1   3
ATOM      3  N   UNL d   1      -0.709  -1.040  -4.815  0.00  0.00    -0.331 N 
ATOM      4  H   UNL d   1      -0.365  -1.916  -4.428  0.00  0.00     0.168 HD
BRANCH   3   5
ATOM      5  C   UNL d   1      -0.832   0.028  -3.904  0.00  0.00     0.057 A 
ATOM      6  C   UNL d   1      -1.702   1.099  -4.139  0.00  0.00     0.047 A 
ATOM      7  C   UNL d   1      -1.904   2.094  -3.167  0.00  0.00     0.050 A 
ATOM      8  C   UNL d   1      -1.206   2.015  -1.953  0.00  0.00     0.018 A 
ATOM      9  C   UNL d   1      -0.340   0.950  -1.704  0.00  0.00     0.027 A 
ATOM     10  C   UNL d   1      -0.169  -0.047  -2.667  0.00  0.00     0.060 A 
ATOM     11 CL   UNL d   1       0.895  -1.362  -2.300  0.00  0.00    -0.082 Cl
BRANCH   7  12
ATOM     12  C   UNL d   1      -2.880   3.223  -3.402  0.00  0.00     0.417 C 
ATOM     13  F   UNL d   1      -3.530   3.148  -4.595  0.00  0.00    -0.166 F 
ATOM     14  F   UNL d   1      -2.277   4.440  -3.378  0.00  0.00    -0.166 F 
ATOM     15  F   UNL d   1      -3.854   3.270  -2.450  0.00  0.00    -0.166 F 
ENDBRANCH   7  12
ENDBRANCH   3   5
ENDBRANCH   1   3
BRANCH   1  16
ATOM     16  N   UNL d   1      -1.386  -2.375  -6.565  0.00  0.00    -0.276 N 
ATOM     17  H   UNL d   1      -1.625  -2.509  -7.544  0.00  0.00     0.189 HD
BRANCH  16  18
ATOM     18  N   UNL d   1      -1.890  -3.204  -5.614  0.00  0.00    -0.309 N 
ATOM     19  C   UNL d   1      -2.536  -4.254  -6.005  0.00  0.00     0.121 C 
ATOM     20  HN  UNL d   1      -1.762  -3.004  -4.622  1.00  0.00     0.186 HD
BRANCH  19  21
ATOM     21  C   UNL d   1      -3.199  -5.095  -4.984  0.00  0.00     0.014 A 
ATOM     22  C   UNL d   1      -3.340  -4.653  -3.659  0.00  0.00     0.077 A 
ATOM     23  C   UNL d   1      -3.957  -5.457  -2.708  0.00  0.00     0.037 A 
ATOM     24  C   UNL d   1      -4.447  -6.708  -3.075  0.00  0.00     0.003 A 
ATOM     25  C   UNL d   1      -4.329  -7.147  -4.397  0.00  0.00     0.001 A 
ATOM     26  C   UNL d   1      -3.710  -6.341  -5.357  0.00  0.00     0.015 A 
BRANCH  22  27
ATOM     27  O   UNL d   1      -2.911  -3.427  -3.222  0.00  0.00    -0.360 OA
ATOM     28  H   UNL d   1      -2.496  -2.972  -3.988  0.00  0.00     0.217 HD
ENDBRANCH  22  27
ENDBRANCH  19  21
ENDBRANCH  16  18
ENDBRANCH   1  16
TORSDOF 7
