REMARK  2 active torsions:
REMARK  status: ('A' for Active; 'I' for Inactive)
REMARK       I    between atoms: N_2  and  C_1 
REMARK    1  A    between atoms: C_4  and  C_1 
REMARK       I    between atoms: C_3  and  N_2 
REMARK       I    between atoms: N_8  and  C_3 
REMARK    2  A    between atoms: C_5  and  N_8 
ROOT
ATOM      1  C   UNL d   1       1.239   0.214  -0.250  0.00  0.00     0.265 C 
ATOM      2  N   UNL d   1       0.594   0.662   0.890  0.00  0.00    -0.275 N 
ATOM      3  C   UNL d   1       1.135   1.178   2.051  0.00  0.00     0.328 C 
ATOM      4  N   UNL d   1       2.496   1.292   2.056  0.00  0.00    -0.293 N 
ATOM      5  O   UNL d   1       2.457   0.287  -0.394  0.00  0.00    -0.267 OA
ATOM      6  O   UNL d   1       0.347   1.476   2.945  0.00  0.00    -0.247 OA
ATOM      7  H   UNL d   1      -0.408   0.554   0.976  0.00  0.00     0.173 HD
ATOM      8  H   UNL d   1       2.981   1.141   1.174  0.00  0.00     0.172 HD
ENDROOT
BRANCH   1   9
ATOM      9  C   UNL d   1       0.376  -0.331  -1.327  0.00  0.00     0.109 A 
ATOM     10  C   UNL d   1       0.837  -0.349  -2.644  0.00  0.00     0.135 A 
ATOM     11  F   UNL d   1       2.049   0.125  -2.965  0.00  0.00    -0.205 F 
ATOM     12  C   UNL d   1       0.035  -0.829  -3.682  0.00  0.00     0.043 A 
ATOM     13  C   UNL d   1      -1.246  -1.309  -3.412  0.00  0.00     0.006 A 
ATOM     14  C   UNL d   1      -1.716  -1.309  -2.101  0.00  0.00     0.043 A 
ATOM     15  C   UNL d   1      -0.905  -0.823  -1.073  0.00  0.00     0.135 A 
ATOM     16  F   UNL d   1      -1.402  -0.835   0.173  0.00  0.00    -0.205 F 
ENDBRANCH   1   9
BRANCH   4  17
ATOM     17  C   UNL d   1       3.265   1.514   3.174  0.00  0.00     0.125 A 
ATOM     18  N   UNL d   1       2.804   1.515   4.424  0.00  0.00    -0.284 N 
ATOM     19  N   UNL d   1       3.893   1.637   5.190  0.00  0.00    -0.306 N 
ATOM     20  HN  UNL d   1       1.833   1.440   4.729  1.00  0.00     0.188 HD
ATOM     21  C   UNL d   1       3.771   1.500   6.621  0.00  0.00     0.177 C 
ATOM     22  C   UNL d   1       5.043   1.785   4.476  0.00  0.00     0.113 A 
ATOM     23  C   UNL d   1       4.669   1.699   3.155  0.00  0.00     0.069 A 
ENDBRANCH   4  17
TORSDOF 2
