REMARK  3 active torsions:
REMARK  status: ('A' for Active; 'I' for Inactive)
REMARK    1  A    between atoms: C_3  and  N_8 
REMARK    2  A    between atoms: N_7  and  C_4 
REMARK    3  A    between atoms: N_8  and  N_7 
ROOT
ATOM      1  N   UNL d   1       3.869   2.480  -3.717  0.00  0.00    -0.195 NA
ATOM      2  C   UNL d   1       2.628   0.151  -4.007  0.00  0.00     0.113 C 
ATOM      3  C   UNL d   1       3.338   1.454  -3.861  0.00  0.00     0.086 C 
ATOM      4  C   UNL d   1       1.556   0.251  -5.120  0.00  0.00     0.042 C 
ATOM      5  C   UNL d   1       3.654  -0.947  -4.379  0.00  0.00     0.042 C 
ATOM      6  C   UNL d   1       2.175   0.463  -6.508  0.00  0.00     0.003 C 
ATOM      7  C   UNL d   1       4.253  -0.771  -5.775  0.00  0.00     0.003 C 
ATOM      8  C   UNL d   1       3.176  -0.637  -6.845  0.00  0.00     0.000 C 
ENDROOT
BRANCH   2   9
ATOM      9  N   UNL d   1       2.030  -0.281  -2.701  0.00  0.00    -0.236 NA
ATOM     10  H   UNL d   1       2.808  -0.439  -2.047  0.00  0.00     0.142 HD
BRANCH   9  11
ATOM     11  N   UNL d   1       1.070   0.704  -2.178  0.00  0.00    -0.236 NA
ATOM     12  H   UNL d   1       1.496   1.635  -2.072  0.00  0.00     0.142 HD
BRANCH  11  13
ATOM     13  C   UNL d   1       0.527   0.311  -0.837  0.00  0.00     0.113 C 
ATOM     14  C   UNL d   1       1.621   0.202   0.174  0.00  0.00     0.086 C 
ATOM     15  N   UNL d   1       2.491   0.114   0.938  0.00  0.00    -0.195 NA
ATOM     16  C   UNL d   1      -0.265  -1.015  -0.917  0.00  0.00     0.042 C 
ATOM     17  C   UNL d   1      -1.025  -1.321   0.380  0.00  0.00     0.003 C 
ATOM     18  C   UNL d   1      -1.954  -0.176   0.771  0.00  0.00     0.000 C 
ATOM     19  C   UNL d   1      -1.218   1.157   0.851  0.00  0.00     0.003 C 
ATOM     20  C   UNL d   1      -0.434   1.454  -0.428  0.00  0.00     0.042 C 
ENDBRANCH  11  13
ENDBRANCH   9  11
ENDBRANCH   2   9
TORSDOF 3
