REMARK  5 active torsions:
REMARK  status: ('A' for Active; 'I' for Inactive)
REMARK    1  A    between atoms: C_3  and  C_1 
REMARK    2  A    between atoms: C_7  and  C_1 
REMARK    3  A    between atoms: C_4  and  C_2 
REMARK    4  A    between atoms: C_11  and  C_3 
REMARK    5  A    between atoms: C_5  and  C_4 
ROOT
ATOM      1  C   UNL d   1       1.043   0.174  -0.109  0.00  0.00     0.029 C 
ATOM      2  C   UNL d   1       0.445  -1.029  -0.190  0.00  0.00     0.072 C 
ENDROOT
BRANCH   1   3
ATOM      3  C   UNL d   1       0.191   1.426  -0.140  0.00  0.00     0.193 C 
ATOM      4  O   UNL d   1       0.647   2.465  -0.611  0.00  0.00    -0.287 OA
BRANCH   3   5
ATOM      5  C   UNL d   1      -1.214   1.452   0.365  0.00  0.00     0.015 A 
ATOM      6  C   UNL d   1      -1.700   0.615   1.377  0.00  0.00     0.015 A 
ATOM      7  C   UNL d   1      -3.044   0.683   1.759  0.00  0.00     0.001 A 
ATOM      8  C   UNL d   1      -3.895   1.618   1.171  0.00  0.00     0.000 A 
ATOM      9  C   UNL d   1      -3.407   2.492   0.203  0.00  0.00     0.001 A 
ATOM     10  C   UNL d   1      -2.074   2.407  -0.200  0.00  0.00     0.015 A 
ENDBRANCH   3   5
ENDBRANCH   1   3
BRANCH   1  11
ATOM     11  C   UNL d   1       2.506   0.381  -0.179  0.00  0.00    -0.022 A 
ATOM     12  C   UNL d   1       3.123   0.519  -1.434  0.00  0.00     0.012 A 
ATOM     13  C   UNL d   1       4.462   0.904  -1.530  0.00  0.00     0.001 A 
ATOM     14  C   UNL d   1       5.202   1.146  -0.374  0.00  0.00     0.000 A 
ATOM     15  C   UNL d   1       4.607   0.988   0.877  0.00  0.00     0.001 A 
ATOM     16  C   UNL d   1       3.263   0.607   0.978  0.00  0.00     0.012 A 
ENDBRANCH   1  11
BRANCH   2  17
ATOM     17  C   UNL d   1       1.073  -2.386  -0.111  0.00  0.00     0.189 C 
ATOM     18  O   UNL d   1       2.156  -2.530   0.452  0.00  0.00    -0.287 OA
BRANCH  17  19
ATOM     19  C   UNL d   1       0.278  -3.524  -0.574  0.00  0.00     0.054 A 
ATOM     20  S   UNL d   1      -0.838  -3.386  -1.872  0.00  0.00    -0.098 SA
ATOM     21  C   UNL d   1      -1.279  -5.032  -1.770  0.00  0.00     0.050 A 
ATOM     22  C   UNL d   1      -0.589  -5.689  -0.777  0.00  0.00     0.009 A 
ATOM     23  C   UNL d   1       0.317  -4.823  -0.095  0.00  0.00     0.023 A 
ENDBRANCH  17  19
ENDBRANCH   2  17
TORSDOF 5
