REMARK  5 active torsions:
REMARK  status: ('A' for Active; 'I' for Inactive)
REMARK    1  A    between atoms: C_2  and  S_1 
REMARK    2  A    between atoms: N_9  and  S_1 
REMARK    3  A    between atoms: C_3  and  C_7 
REMARK       I    between atoms: C_8  and  N_10 
REMARK    4  A    between atoms: O_16  and  C_8 
REMARK    5  A    between atoms: C_22  and  O_16 
ROOT
ATOM      1  S   UNL d   1       1.074   0.140   0.199  0.00  0.00     0.250 S 
ATOM      2  O   UNL d   1       0.806  -1.029   1.016  0.00  0.00    -0.205 OA
ATOM      3  O   UNL d   1       2.391   0.728   0.136  0.00  0.00    -0.205 OA
ENDROOT
BRANCH   1   4
ATOM      4  C   UNL d   1       0.036   1.417   0.872  0.00  0.00     0.116 A 
ATOM      5  S   UNL d   1      -1.630   1.053   0.988  0.00  0.00    -0.075 SA
ATOM      6  C   UNL d   1      -1.984   2.566   1.694  0.00  0.00     0.033 A 
ATOM      7  C   UNL d   1      -0.854   3.346   1.826  0.00  0.00     0.023 A 
ATOM      8  C   UNL d   1       0.315   2.682   1.354  0.00  0.00     0.034 A 
BRANCH   6   9
ATOM      9  C   UNL d   1      -3.348   3.024   2.114  0.00  0.00     0.056 A 
ATOM     10  N   UNL d   1      -3.548   4.309   2.594  0.00  0.00    -0.353 N 
ATOM     11  C   UNL d   1      -4.824   4.499   2.853  0.00  0.00     0.047 A 
ATOM     12  HN  UNL d   1      -2.814   5.005   2.727  1.00  0.00     0.166 HD
ATOM     13  C   UNL d   1      -5.403   5.782   3.332  0.00  0.00     0.076 C 
ATOM     14  S   UNL d   1      -5.844   3.142   2.584  0.00  0.00    -0.087 SA
ATOM     15  C   UNL d   1      -4.486   2.245   2.047  0.00  0.00     0.082 A 
ENDBRANCH   6   9
ENDBRANCH   1   4
BRANCH   1  16
ATOM     16  N   UNL d   1       0.578  -0.192  -1.418  0.00  0.00    -0.204 NA
ATOM     17  C   UNL d   1       0.826   0.961  -2.352  0.00  0.00     0.127 C 
ATOM     18  C   UNL d   1       0.084   0.807  -3.686  0.00  0.00     0.143 C 
ATOM     19  N   UNL d   1       0.488  -0.372  -4.455  0.00  0.00    -0.327 N 
ATOM     20  C   UNL d   1       1.526  -0.368  -5.377  0.00  0.00     0.363 C 
ATOM     21  C   UNL d   1      -0.196  -1.618  -4.139  0.00  0.00     0.129 C 
ATOM     22  O   UNL d   1       1.855  -1.349  -6.030  0.00  0.00    -0.238 OA
ATOM     23  C   UNL d   1       0.154  -2.224  -2.778  0.00  0.00     0.035 C 
ATOM     24  C   UNL d   1       1.171  -1.466  -1.936  0.00  0.00     0.109 C 
BRANCH  20  25
ATOM     25  O   UNL d   1       2.128   0.847  -5.474  0.00  0.00    -0.294 OA
BRANCH  25  26
ATOM     26  C   UNL d   1       3.125   1.117  -6.499  0.00  0.00     0.061 C 
ATOM     27  C   UNL d   1       2.529   0.954  -7.905  0.00  0.00     0.046 C 
ATOM     28  C   UNL d   1       3.514   2.590  -6.284  0.00  0.00     0.046 C 
ATOM     29  C   UNL d   1       4.386   0.259  -6.331  0.00  0.00     0.046 C 
ENDBRANCH  25  26
ENDBRANCH  20  25
ENDBRANCH   1  16
TORSDOF 5
