REMARK  7 active torsions:
REMARK  status: ('A' for Active; 'I' for Inactive)
REMARK    1  A    between atoms: C_13  and  C_1 
REMARK    2  A    between atoms: C_4  and  C_7 
REMARK    3  A    between atoms: C_7  and  O_10 
REMARK    4  A    between atoms: O_10  and  C_15 
REMARK    5  A    between atoms: O_26  and  C_12 
REMARK    6  A    between atoms: C_20  and  C_13 
REMARK    7  A    between atoms: O_31  and  C_21 
ROOT
ATOM      1  C   UNL d   1      -1.795  -1.065   0.043  0.00  0.00     0.029 C 
ATOM      2  C   UNL d   1      -1.975   0.414   0.046  0.00  0.00     0.295 C 
ATOM      3  C   UNL d   1      -0.551  -1.588  -0.049  0.00  0.00    -0.036 C 
ATOM      4  O   UNL d   1      -0.991   1.156  -0.579  0.00  0.00    -0.274 OA
ATOM      5  C   UNL d   1       0.320   0.660  -0.590  0.00  0.00     0.093 A 
ATOM      6  C   UNL d   1       0.591  -0.663  -0.240  0.00  0.00     0.005 A 
ATOM      7  C   UNL d   1       1.321   1.585  -0.910  0.00  0.00     0.075 A 
ATOM      8  C   UNL d   1       1.940  -1.030  -0.160  0.00  0.00     0.017 A 
ATOM      9  C   UNL d   1       2.655   1.202  -0.815  0.00  0.00     0.082 A 
ATOM     10  O   UNL d   1      -2.983   0.952   0.489  0.00  0.00    -0.259 OA
ATOM     11  C   UNL d   1       2.966  -0.100  -0.422  0.00  0.00     0.038 A 
ATOM     12  C   UNL d   1      -0.261  -3.067  -0.038  0.00  0.00     0.050 C 
ENDROOT
BRANCH   9  13
ATOM     13  O   UNL d   1       3.613   2.230  -1.046  0.00  0.00    -0.275 OA
BRANCH  13  14
ATOM     14  C   UNL d   1       4.973   1.992  -1.256  0.00  0.00     0.301 C 
ATOM     15  O   UNL d   1       5.507   0.908  -1.381  0.00  0.00    -0.259 OA
BRANCH  14  16
ATOM     16  C   UNL d   1       5.728   3.272  -1.274  0.00  0.00     0.075 A 
ATOM     17  C   UNL d   1       6.799   3.517  -2.151  0.00  0.00     0.084 A 
ATOM     18  C   UNL d   1       7.629   4.625  -1.917  0.00  0.00     0.040 A 
ATOM     19  C   UNL d   1       7.397   5.501  -0.854  0.00  0.00     0.039 A 
ATOM     20  C   UNL d   1       6.307   5.290  -0.015  0.00  0.00     0.069 A 
ATOM     21  C   UNL d   1       5.488   4.173  -0.217  0.00  0.00     0.057 A 
BRANCH  17  22
ATOM     22  O   UNL d   1       7.244   2.756  -3.198  0.00  0.00    -0.355 OA
ATOM     23  C   UNL d   1       6.284   2.132  -4.039  0.00  0.00     0.210 C 
ENDBRANCH  17  22
BRANCH  20  24
ATOM     24  O   UNL d   1       5.994   6.063   1.070  0.00  0.00    -0.356 OA
ATOM     25  C   UNL d   1       6.403   7.427   0.995  0.00  0.00     0.210 C 
ENDBRANCH  20  24
ENDBRANCH  14  16
ENDBRANCH  13  14
ENDBRANCH   9  13
BRANCH   1  26
ATOM     26  C   UNL d   1      -3.098  -1.839   0.009  0.00  0.00     0.084 C 
BRANCH  26  27
ATOM     27  C   UNL d   1      -3.615  -2.366   1.332  0.00  0.00    -0.054 A 
ATOM     28  C   UNL d   1      -4.051  -1.492   2.340  0.00  0.00     0.010 A 
ATOM     29  C   UNL d   1      -4.553  -1.985   3.546  0.00  0.00     0.043 A 
ATOM     30  C   UNL d   1      -4.639  -3.356   3.743  0.00  0.00     0.116 A 
ATOM     31  C   UNL d   1      -4.244  -4.244   2.751  0.00  0.00     0.043 A 
ATOM     32  F   UNL d   1      -5.115  -3.830   4.902  0.00  0.00    -0.206 F 
ATOM     33  C   UNL d   1      -3.736  -3.750   1.546  0.00  0.00     0.010 A 
ENDBRANCH  26  27
ENDBRANCH   1  26
TORSDOF 7
