REMARK  3 active torsions:
REMARK  status: ('A' for Active; 'I' for Inactive)
REMARK    1  A    between atoms: C_11  and  C_4 
REMARK    2  A    between atoms: C_8  and  C_12 
REMARK    3  A    between atoms: C_9  and  C_13 
ROOT
ATOM      1  C   UNL d   1       0.506   2.524  -0.011  0.00  0.00     0.011 A 
ATOM      2  C   UNL d   1       0.154   4.785   0.860  0.00  0.00     0.049 A 
ATOM      3  C   UNL d   1       1.506   4.448  -1.146  0.00  0.00     0.049 A 
ATOM      4  C   UNL d   1       0.936   5.299  -0.186  0.00  0.00     0.032 A 
ATOM      5  C   UNL d   1       1.288   3.062  -1.044  0.00  0.00     0.031 A 
ATOM      6  C   UNL d   1      -0.046   3.396   0.939  0.00  0.00     0.031 A 
ENDROOT
BRANCH   1   7
ATOM      7  C   UNL d   1       0.242   1.089   0.049  0.00  0.00     0.138 A 
ATOM      8  N   UNL d   1       0.720   0.207  -0.898  0.00  0.00    -0.317 N 
ATOM      9  C   UNL d   1       0.208  -0.946  -0.514  0.00  0.00     0.208 A 
ATOM     10  HN  UNL d   1       1.321   0.400  -1.698  1.00  0.00     0.169 HD
ATOM     11  C   UNL d   1       0.394  -2.183  -1.200  0.00  0.00     0.153 A 
ATOM     12  O   UNL d   1      -0.543  -0.829   0.623  0.00  0.00    -0.215 OA
ATOM     13  O   UNL d   1      -0.215  -3.344  -0.808  0.00  0.00    -0.234 OA
ATOM     14  C   UNL d   1       1.155  -2.459  -2.317  0.00  0.00     0.063 A 
ATOM     15  N   UNL d   1       0.139  -4.377  -1.659  0.00  0.00    -0.272 N 
ATOM     16  C   UNL d   1       0.961  -3.830  -2.554  0.00  0.00     0.117 A 
ATOM     17  HN  UNL d   1      -0.164  -5.350  -1.611  1.00  0.00     0.194 HD
ATOM     18  N   UNL d   1      -0.516   0.511   0.994  0.00  0.00    -0.242 N 
ATOM     19  HN  UNL d   1      -0.966   0.952   1.796  1.00  0.00     0.196 HD
ENDBRANCH   1   7
BRANCH   3  20
ATOM     20  C   UNL d   1       2.327   4.998  -2.290  0.00  0.00     0.417 C 
ATOM     21  F   UNL d   1       2.409   6.357  -2.294  0.00  0.00    -0.166 F 
ATOM     22  F   UNL d   1       3.610   4.544  -2.275  0.00  0.00    -0.166 F 
ATOM     23  F   UNL d   1       1.819   4.651  -3.504  0.00  0.00    -0.166 F 
ENDBRANCH   3  20
BRANCH   2  24
ATOM     24  C   UNL d   1      -0.488   5.693   1.884  0.00  0.00     0.417 C 
ATOM     25  F   UNL d   1      -0.253   7.014   1.658  0.00  0.00    -0.166 F 
ATOM     26  F   UNL d   1      -1.842   5.555   1.918  0.00  0.00    -0.166 F 
ATOM     27  F   UNL d   1      -0.051   5.443   3.147  0.00  0.00    -0.166 F 
ENDBRANCH   2  24
TORSDOF 3
