REMARK  9 active torsions:
REMARK  status: ('A' for Active; 'I' for Inactive)
REMARK    1  A    between atoms: C_21  and  C_2 
REMARK    2  A    between atoms: C_8  and  C_14 
REMARK    3  A    between atoms: C_11  and  C_8 
REMARK    4  A    between atoms: C_10  and  C_19 
REMARK    5  A    between atoms: O_13  and  C_10 
REMARK    6  A    between atoms: C_14  and  O_13 
REMARK    7  A    between atoms: O_18  and  C_17 
REMARK    8  A    between atoms: C_19  and  O_18 
REMARK    9  A    between atoms: C_25  and  C_21 
ROOT
ATOM      1  C   UNL d   1       0.249   0.551  -0.026  0.00  0.00     0.092 A 
ATOM      2  C   UNL d   1      -0.589  -1.773  -0.029  0.00  0.00    -0.039 A 
ATOM      3  O   UNL d   1      -1.077   1.028  -0.071  0.00  0.00    -0.275 OA
ATOM      4  C   UNL d   1      -2.148   0.153  -0.051  0.00  0.00     0.288 A 
ATOM      5  C   UNL d   1       0.531  -0.817   0.013  0.00  0.00     0.004 A 
ATOM      6  C   UNL d   1      -1.834  -1.282  -0.065  0.00  0.00     0.090 A 
ATOM      7  C   UNL d   1       1.250   1.530  -0.020  0.00  0.00     0.075 A 
ATOM      8  C   UNL d   1       1.875  -1.194   0.074  0.00  0.00     0.017 A 
ATOM      9  O   UNL d   1      -3.313   0.543  -0.035  0.00  0.00    -0.260 OA
ATOM     10  C   UNL d   1       2.580   1.133   0.039  0.00  0.00     0.072 A 
ATOM     11  C   UNL d   1       2.888  -0.228   0.077  0.00  0.00     0.038 A 
ENDROOT
BRANCH  10  12
ATOM     12  O   UNL d   1       3.664   1.961   0.011  0.00  0.00    -0.341 OA
BRANCH  12  13
ATOM     13  C   UNL d   1       3.499   3.269   0.551  0.00  0.00     0.286 C 
BRANCH  13  14
ATOM     14  C   UNL d   1       4.768   4.109   0.400  0.00  0.00     0.283 C 
ATOM     15  O   UNL d   1       4.847   5.276   0.767  0.00  0.00    -0.263 OA
BRANCH  14  16
ATOM     16  O   UNL d   1       5.737   3.445  -0.285  0.00  0.00    -0.312 OA
BRANCH  16  17
ATOM     17  C   UNL d   1       6.802   4.221  -0.836  0.00  0.00     0.258 C 
BRANCH  17  18
ATOM     18  C   UNL d   1       8.169   3.983  -0.191  0.00  0.00     0.158 C 
ATOM     19  O   UNL d   1       8.277   3.317   0.843  0.00  0.00    -0.295 OA
BRANCH  18  20
ATOM     20  C   UNL d   1       9.408   4.665  -0.830  0.00  0.00     0.012 C 
ATOM     21  C   UNL d   1       9.562   6.063  -0.219  0.00  0.00     0.022 C 
ATOM     22  C   UNL d   1      10.654   3.819  -0.511  0.00  0.00     0.022 C 
ATOM     23  C   UNL d   1       9.316   4.798  -2.359  0.00  0.00     0.022 C 
ENDBRANCH  18  20
ENDBRANCH  17  18
ENDBRANCH  16  17
ENDBRANCH  14  16
ENDBRANCH  13  14
ENDBRANCH  12  13
ENDBRANCH  10  12
BRANCH   2  24
ATOM     24  C   UNL d   1      -0.341  -3.262  -0.073  0.00  0.00     0.039 C 
BRANCH  24  25
ATOM     25  C   UNL d   1      -0.225  -3.865   1.328  0.00  0.00     0.000 C 
ATOM     26  C   UNL d   1       0.056  -5.359   1.268  0.00  0.00     0.005 C 
ENDBRANCH  24  25
ENDBRANCH   2  24
TORSDOF 9
