REMARK  2 active torsions:
REMARK  status: ('A' for Active; 'I' for Inactive)
REMARK    1  A    between atoms: C_4  and  C_5 
REMARK    2  A    between atoms: C_14  and  C_10 
ROOT
ATOM      1  N   UNL d   1      -1.265   1.389  -0.037  0.00  0.00    -0.352 N 
ATOM      2  HN  UNL d   1      -1.298   2.408  -0.065  1.00  0.00     0.166 HD
ATOM      3  C   UNL d   1      -0.078   0.735  -0.028  0.00  0.00     0.077 A 
ATOM      4  C   UNL d   1       2.392  -0.664  -0.006  0.00  0.00     0.051 A 
ATOM      5  C   UNL d   1      -0.049  -0.680  -0.010  0.00  0.00     0.061 A 
ATOM      6  C   UNL d   1       1.148   1.410  -0.030  0.00  0.00     0.040 A 
ATOM      7  N   UNL d   1      -1.174  -1.411   0.001  0.00  0.00    -0.362 N 
ATOM      8  HN  UNL d   1      -1.152  -2.431   0.008  1.00  0.00     0.165 HD
ATOM      9  C   UNL d   1      -2.408   0.661  -0.009  0.00  0.00     0.058 A 
ATOM     10  C   UNL d   1       2.370   0.731  -0.018  0.00  0.00     0.037 A 
ATOM     11  C   UNL d   1       1.169  -1.348  -0.002  0.00  0.00     0.048 A 
ATOM     12  C   UNL d   1      -2.341  -0.724   0.003  0.00  0.00     0.118 A 
ATOM     13 BR   UNL d   1       1.205   3.313  -0.037  0.00  0.00    -0.049 Br
ENDROOT
BRANCH   9  14
ATOM     14  C   UNL d   1      -3.666   1.426   0.031  0.00  0.00    -0.008 A 
ATOM     15  C   UNL d   1      -3.759   2.689  -0.586  0.00  0.00     0.015 A 
ATOM     16  C   UNL d   1      -4.936   3.442  -0.534  0.00  0.00     0.020 A 
ATOM     17  C   UNL d   1      -6.041   2.946   0.149  0.00  0.00     0.011 A 
ATOM     18  C   UNL d   1      -5.981   1.703   0.771  0.00  0.00     0.020 A 
ATOM     19 BR   UNL d   1      -7.626   3.969   0.249  0.00  0.00    -0.051 Br
ATOM     20  C   UNL d   1      -4.805   0.949   0.707  0.00  0.00     0.015 A 
ENDBRANCH   9  14
BRANCH   4  21
ATOM     21  C   UNL d   1       3.689  -1.434   0.003  0.00  0.00     0.417 C 
ATOM     22  F   UNL d   1       4.790  -0.634  -0.001  0.00  0.00    -0.166 F 
ATOM     23  F   UNL d   1       3.808  -2.232   1.098  0.00  0.00    -0.166 F 
ATOM     24  F   UNL d   1       3.813  -2.251  -1.077  0.00  0.00    -0.166 F 
ENDBRANCH   4  21
TORSDOF 2
