REMARK  6 active torsions:
REMARK  status: ('A' for Active; 'I' for Inactive)
REMARK    1  A    between atoms: C_6  and  C_1 
REMARK    2  A    between atoms: C_7  and  C_2 
REMARK    3  A    between atoms: C_10  and  C_5 
REMARK       I    between atoms: N_9  and  C_6 
REMARK    4  A    between atoms: C_8  and  O_12 
REMARK    5  A    between atoms: C_18  and  N_9 
REMARK    6  A    between atoms: O_12  and  C_22 
ROOT
ATOM      1  C   UNL d   1       1.113   0.668   0.111  0.00  0.00     0.073 A 
ATOM      2  C   UNL d   1      -0.182   1.136  -0.051  0.00  0.00     0.175 A 
ATOM      3  O   UNL d   1      -1.061   0.081  -0.029  0.00  0.00    -0.304 OA
ATOM      4  C   UNL d   1       0.977  -0.737   0.344  0.00  0.00     0.058 A 
ATOM      5  C   UNL d   1      -0.351  -1.060   0.202  0.00  0.00     0.087 A 
ENDROOT
BRANCH   1   6
ATOM      6  C   UNL d   1       2.402   1.356   0.122  0.00  0.00     0.259 C 
ATOM      7  N   UNL d   1       2.474   2.539  -0.591  0.00  0.00    -0.323 N 
ATOM      8  H   UNL d   1       1.619   2.945  -0.940  0.00  0.00     0.169 HD
ATOM      9  O   UNL d   1       3.333   0.842   0.721  0.00  0.00    -0.267 OA
BRANCH   7  10
ATOM     10  C   UNL d   1       3.626   3.344  -0.735  0.00  0.00     0.035 A 
ATOM     11  C   UNL d   1       4.919   2.914  -0.436  0.00  0.00     0.032 A 
ATOM     12  C   UNL d   1       6.010   3.792  -0.515  0.00  0.00     0.039 A 
ATOM     13  C   UNL d   1       5.820   5.103  -0.942  0.00  0.00     0.078 A 
ATOM     14  C   UNL d   1       4.531   5.525  -1.270  0.00  0.00     0.039 A 
ATOM     15  C   UNL d   1       3.441   4.652  -1.187  0.00  0.00     0.032 A 
BRANCH  13  16
ATOM     16  O   UNL d   1       6.772   6.066  -1.079  0.00  0.00    -0.255 OA
BRANCH  16  17
ATOM     17  C   UNL d   1       8.145   5.713  -1.079  0.00  0.00     0.530 C 
ATOM     18  F   UNL d   1       8.381   4.486  -1.587  0.00  0.00    -0.144 F 
ATOM     19  F   UNL d   1       8.806   6.607  -1.849  0.00  0.00    -0.144 F 
ATOM     20  F   UNL d   1       8.645   5.785   0.172  0.00  0.00    -0.144 F 
ENDBRANCH  16  17
ENDBRANCH  13  16
ENDBRANCH   7  10
ENDBRANCH   1   6
BRANCH   2  21
ATOM     21  C   UNL d   1      -0.804   2.473  -0.210  0.00  0.00     0.440 C 
ATOM     22  F   UNL d   1       0.110   3.474  -0.106  0.00  0.00    -0.164 F 
ATOM     23  F   UNL d   1      -1.379   2.622  -1.430  0.00  0.00    -0.164 F 
ATOM     24  F   UNL d   1      -1.759   2.720   0.719  0.00  0.00    -0.164 F 
ENDBRANCH   2  21
BRANCH   5  25
ATOM     25  C   UNL d   1      -1.099  -2.312   0.253  0.00  0.00    -0.002 A 
ATOM     26  C   UNL d   1      -0.440  -3.514   0.561  0.00  0.00     0.016 A 
ATOM     27  C   UNL d   1      -1.140  -4.724   0.616  0.00  0.00     0.024 A 
ATOM     28  C   UNL d   1      -2.507  -4.743   0.359  0.00  0.00     0.034 A 
ATOM     29  C   UNL d   1      -3.177  -3.565   0.041  0.00  0.00     0.024 A 
ATOM     30 CL   UNL d   1      -3.371  -6.228   0.438  0.00  0.00    -0.084 Cl
ATOM     31  C   UNL d   1      -2.475  -2.356  -0.012  0.00  0.00     0.016 A 
ENDBRANCH   5  25
TORSDOF 6
