REMARK  5 active torsions:
REMARK  status: ('A' for Active; 'I' for Inactive)
REMARK    1  A    between atoms: N_3  and  C_1 
REMARK    2  A    between atoms: C_8  and  C_2 
REMARK       I    between atoms: C_4  and  N_3 
REMARK       I    between atoms: N_9  and  C_4 
REMARK    3  A    between atoms: C_6  and  N_9 
REMARK    4  A    between atoms: O_15  and  C_8 
REMARK    5  A    between atoms: C_22  and  O_15 
ROOT
ATOM      1  N   UNL d   1       0.691  -2.103  -0.516  0.00  0.00    -0.208 NA
ATOM      2  C   UNL d   1       0.625  -3.012   0.512  0.00  0.00     0.282 C 
ATOM      3  N   UNL d   1       1.451  -2.793   1.588  0.00  0.00    -0.212 NA
ATOM      4  O   UNL d   1      -0.092  -4.000   0.364  0.00  0.00    -0.260 OA
ATOM      5  H   UNL d   1       0.004  -2.440  -1.182  0.00  0.00     0.138 HD
ATOM      6  H   UNL d   1       2.348  -2.430   1.258  0.00  0.00     0.138 HD
ENDROOT
BRANCH   1   7
ATOM      7  C   UNL d   1       0.497  -0.753  -0.264  0.00  0.00     0.074 A 
ATOM      8  C   UNL d   1       1.327   0.287   0.129  0.00  0.00     0.074 A 
ATOM      9  C   UNL d   1       0.573   1.546   0.098  0.00  0.00    -0.037 A 
ATOM     10  C   UNL d   1       1.070   2.924   0.409  0.00  0.00     0.050 C 
ATOM     11  C   UNL d   1      -0.733   1.347  -0.318  0.00  0.00     0.059 A 
ATOM     12  S   UNL d   1      -1.063  -0.264  -0.725  0.00  0.00    -0.088 SA
BRANCH   8  13
ATOM     13  C   UNL d   1       2.756   0.088   0.423  0.00  0.00     0.296 C 
ATOM     14  O   UNL d   1       3.268  -1.016   0.558  0.00  0.00    -0.259 OA
BRANCH  13  15
ATOM     15  O   UNL d   1       3.468   1.252   0.484  0.00  0.00    -0.318 OA
BRANCH  15  16
ATOM     16  C   UNL d   1       4.899   1.121   0.535  0.00  0.00     0.174 C 
ATOM     17  C   UNL d   1       5.399   0.857   1.943  0.00  0.00     0.034 C 
ENDBRANCH  15  16
ENDBRANCH  13  15
ENDBRANCH   8  13
ENDBRANCH   1   7
BRANCH   3  18
ATOM     18  C   UNL d   1       1.545  -3.826   2.568  0.00  0.00     0.059 A 
ATOM     19  C   UNL d   1       2.736  -4.563   2.678  0.00  0.00     0.057 A 
ATOM     20 CL   UNL d   1       4.106  -4.210   1.683  0.00  0.00    -0.082 Cl
ATOM     21  C   UNL d   1       2.825  -5.651   3.553  0.00  0.00     0.026 A 
ATOM     22  C   UNL d   1       1.739  -5.997   4.354  0.00  0.00     0.003 A 
ATOM     23  C   UNL d   1       0.564  -5.248   4.287  0.00  0.00     0.026 A 
ATOM     24  C   UNL d   1       0.463  -4.169   3.400  0.00  0.00     0.057 A 
ATOM     25 CL   UNL d   1      -0.999  -3.241   3.442  0.00  0.00    -0.082 Cl
ENDBRANCH   3  18
TORSDOF 5
