REMARK  4 active torsions:
REMARK  status: ('A' for Active; 'I' for Inactive)
REMARK    1  A    between atoms: C_8  and  C_1 
REMARK       I    between atoms: C_4  and  N_6 
REMARK    2  A    between atoms: C_9  and  C_4 
REMARK    3  A    between atoms: N_6  and  C_8 
REMARK    4  A    between atoms: C_10  and  C_11 
ROOT
ATOM      1  C   UNL d   1      -0.567  -5.096   0.007  0.00  0.00     0.251 C 
ATOM      2  N   UNL d   1      -1.164  -4.924  -1.224  0.00  0.00    -0.353 N 
ATOM      3  O   UNL d   1      -0.855  -4.437   0.998  0.00  0.00    -0.268 OA
ATOM      4  H   UNL d   1      -0.812  -5.418  -2.031  0.00  0.00     0.163 HD
ENDROOT
BRANCH   1   5
ATOM      5  C   UNL d   1       0.511  -6.124   0.077  0.00  0.00     0.032 A 
ATOM      6  C   UNL d   1       1.541  -5.961   1.006  0.00  0.00     0.017 A 
ATOM      7  C   UNL d   1       2.598  -6.879   1.059  0.00  0.00     0.009 A 
ATOM      8  C   UNL d   1       2.652  -7.991   0.195  0.00  0.00    -0.051 A 
ATOM      9  C   UNL d   1       1.577  -8.163  -0.694  0.00  0.00     0.009 A 
ATOM     10  C   UNL d   1       0.518  -7.247  -0.752  0.00  0.00     0.017 A 
BRANCH   8  11
ATOM     11  C   UNL d   1       3.860  -8.947   0.229  0.00  0.00    -0.024 C 
ATOM     12  C   UNL d   1       3.756 -10.113  -0.781  0.00  0.00     0.019 C 
ATOM     13  C   UNL d   1       5.145  -8.162  -0.115  0.00  0.00     0.019 C 
ATOM     14  C   UNL d   1       4.016  -9.573   1.631  0.00  0.00     0.019 C 
ENDBRANCH   8  11
ENDBRANCH   1   5
BRANCH   2  15
ATOM     15  C   UNL d   1      -2.223  -3.963  -1.450  0.00  0.00     0.162 C 
BRANCH  15  16
ATOM     16  C   UNL d   1      -3.429  -4.704  -1.947  0.00  0.00    -0.022 A 
ATOM     17  C   UNL d   1      -4.107  -5.634  -1.179  0.00  0.00     0.060 A 
ATOM     18  S   UNL d   1      -5.424  -6.339  -1.986  0.00  0.00    -0.101 SA
ATOM     19  C   UNL d   1      -5.158  -5.393  -3.397  0.00  0.00     0.015 A 
ATOM     20  C   UNL d   1      -4.058  -4.540  -3.247  0.00  0.00    -0.011 A 
ATOM     21  C   UNL d   1      -5.921  -5.426  -4.582  0.00  0.00     0.019 A 
ATOM     22  C   UNL d   1      -3.743  -3.688  -4.340  0.00  0.00     0.013 A 
ATOM     23  C   UNL d   1      -4.503  -3.713  -5.515  0.00  0.00     0.001 A 
ATOM     24  C   UNL d   1      -5.580  -4.579  -5.635  0.00  0.00     0.001 A 
ENDBRANCH  15  16
ENDBRANCH   2  15
TORSDOF 4
