REMARK  3 active torsions:
REMARK  status: ('A' for Active; 'I' for Inactive)
REMARK    1  A    between atoms: C_6  and  C_1 
REMARK    2  A    between atoms: O_8  and  C_3 
REMARK    3  A    between atoms: O_9  and  C_6 
ROOT
ATOM      1  C   UNL d   1       2.132   0.045   0.000  0.00  0.00     0.115 A 
ATOM      2  S   UNL d   1       1.244   1.511  -0.008  0.00  0.00    -0.081 SA
ATOM      3  C   UNL d   1       1.275  -1.038   0.004  0.00  0.00     0.100 A 
ATOM      4  C   UNL d   1      -0.112  -0.682   0.004  0.00  0.00     0.016 A 
ATOM      5  C   UNL d   1      -0.276   0.704  -0.004  0.00  0.00     0.018 A 
ATOM      6  C   UNL d   1      -1.274  -1.492   0.009  0.00  0.00     0.015 A 
ATOM      7  C   UNL d   1      -1.555   1.294  -0.009  0.00  0.00     0.020 A 
ATOM      8  C   UNL d   1      -2.546  -0.912   0.006  0.00  0.00     0.001 A 
ATOM      9  C   UNL d   1      -2.682   0.468  -0.003  0.00  0.00     0.001 A 
ENDROOT
BRANCH   1  10
ATOM     10  C   UNL d   1       3.580   0.107   0.002  0.00  0.00     0.302 C 
ATOM     11  O   UNL d   1       4.274   1.117   0.000  0.00  0.00    -0.259 OA
BRANCH  10  12
ATOM     12  O   UNL d   1       4.093  -1.165   0.006  0.00  0.00    -0.322 OA
ATOM     13  C   UNL d   1       5.522  -1.218   0.011  0.00  0.00     0.213 C 
ENDBRANCH  10  12
ENDBRANCH   1  10
BRANCH   3  14
ATOM     14  O   UNL d   1       1.690  -2.325   0.009  0.00  0.00    -0.358 OA
ATOM     15  H   UNL d   1       2.666  -2.373   0.006  0.00  0.00     0.217 HD
ENDBRANCH   3  14
TORSDOF 3
