REMARK  4 active torsions:
REMARK  status: ('A' for Active; 'I' for Inactive)
REMARK    1  A    between atoms: C_4  and  C_1 
REMARK    2  A    between atoms: O_12  and  C_1 
REMARK    3  A    between atoms: O_13  and  C_7 
REMARK    4  A    between atoms: C_9  and  C_8 
ROOT
ATOM      1  C   UNL d   1      -1.781  -0.019  -0.108  0.00  0.00     0.218 A 
ATOM      2  C   UNL d   1      -1.301  -1.419   0.323  0.00  0.00     0.207 A 
ATOM      3  C   UNL d   1      -0.466   0.667  -0.521  0.00  0.00     0.207 A 
ATOM      4  C   UNL d   1       0.159  -1.451   0.250  0.00  0.00     0.028 A 
ATOM      5  C   UNL d   1       0.643  -0.246  -0.237  0.00  0.00     0.028 A 
ATOM      6  O   UNL d   1      -1.959  -2.355   0.745  0.00  0.00    -0.288 OA
ATOM      7  O   UNL d   1      -0.289   1.802  -0.928  0.00  0.00    -0.288 OA
ATOM      8  C   UNL d   1       2.000   0.006  -0.335  0.00  0.00     0.016 A 
ATOM      9  C   UNL d   1       1.014  -2.462   0.658  0.00  0.00     0.016 A 
ATOM     10  C   UNL d   1       2.879  -0.998   0.082  0.00  0.00     0.001 A 
ATOM     11  C   UNL d   1       2.389  -2.224   0.574  0.00  0.00     0.001 A 
ENDROOT
BRANCH   1  12
ATOM     12  C   UNL d   1      -2.826  -0.009  -1.223  0.00  0.00     0.025 A 
ATOM     13  C   UNL d   1      -3.769   1.043  -1.368  0.00  0.00     0.083 A 
ATOM     14  C   UNL d   1      -4.717   1.096  -2.420  0.00  0.00    -0.017 A 
ATOM     15  C   UNL d   1      -4.699   0.023  -3.329  0.00  0.00     0.011 A 
ATOM     16  C   UNL d   1      -3.782  -1.023  -3.214  0.00  0.00     0.001 A 
ATOM     17  C   UNL d   1      -2.848  -1.034  -2.182  0.00  0.00     0.014 A 
BRANCH  13  18
ATOM     18  O   UNL d   1      -3.785   2.067  -0.455  0.00  0.00    -0.359 OA
ATOM     19  H   UNL d   1      -3.275   1.781   0.330  0.00  0.00     0.217 HD
ENDBRANCH  13  18
BRANCH  14  20
ATOM     20  C   UNL d   1      -5.713   2.270  -2.591  0.00  0.00    -0.021 C 
ATOM     21  C   UNL d   1      -4.947   3.596  -2.805  0.00  0.00     0.019 C 
ATOM     22  C   UNL d   1      -6.646   2.110  -3.821  0.00  0.00     0.019 C 
ATOM     23  C   UNL d   1      -6.647   2.408  -1.368  0.00  0.00     0.019 C 
ENDBRANCH  14  20
ENDBRANCH   1  12
BRANCH   1  24
ATOM     24  O   UNL d   1      -2.312   0.650   1.050  0.00  0.00    -0.370 OA
ATOM     25  H   UNL d   1      -1.725   0.464   1.804  0.00  0.00     0.212 HD
ENDBRANCH   1  24
TORSDOF 4
