REMARK  4 active torsions:
REMARK  status: ('A' for Active; 'I' for Inactive)
REMARK    1  A    between atoms: C_6  and  C_1 
REMARK    2  A    between atoms: C_5  and  C_2 
REMARK    3  A    between atoms: O_11  and  C_5 
REMARK    4  A    between atoms: C_9  and  O_11 
ROOT
ATOM      1  C   UNL d   1       0.763  -0.538  -0.840  0.00  0.00     0.087 A 
ATOM      2  C   UNL d   1      -0.017  -1.613  -0.294  0.00  0.00     0.100 A 
ATOM      3  N   UNL d   1       0.026   0.578  -0.900  0.00  0.00    -0.259 N 
ATOM      4  HN  UNL d   1       0.302   1.468  -1.314  1.00  0.00     0.195 HD
ATOM      5  O   UNL d   1      -1.174   0.291  -0.298  0.00  0.00    -0.241 OA
ATOM      6  C   UNL d   1      -1.200  -1.009   0.081  0.00  0.00     0.091 A 
ATOM      7  C   UNL d   1      -2.413  -1.420   0.814  0.00  0.00     0.080 C 
ENDROOT
BRANCH   2   8
ATOM      8  C   UNL d   1       0.337  -3.012  -0.132  0.00  0.00     0.303 C 
ATOM      9  O   UNL d   1       1.483  -3.394   0.053  0.00  0.00    -0.259 OA
BRANCH   8  10
ATOM     10  O   UNL d   1      -0.760  -3.838  -0.270  0.00  0.00    -0.279 OA
BRANCH  10  11
ATOM     11  C   UNL d   1      -0.672  -5.234  -0.549  0.00  0.00     0.061 C 
ATOM     12  C   UNL d   1       0.336  -5.784  -1.237  0.00  0.00     0.083 C 
ATOM     13  C   UNL d   1       0.348  -7.224  -1.553  0.00  0.00     0.152 C 
ATOM     14  O   UNL d   1       1.374  -7.717  -2.023  0.00  0.00    -0.293 OA
ATOM     15  C   UNL d   1      -0.871  -8.077  -1.284  0.00  0.00     0.092 C 
ATOM     16  C   UNL d   1      -2.151  -7.336  -0.841  0.00  0.00    -0.035 C 
ATOM     17  C   UNL d   1      -1.856  -6.026  -0.066  0.00  0.00     0.074 C 
ATOM     18  C   UNL d   1      -2.957  -8.281   0.077  0.00  0.00     0.015 C 
ATOM     19  C   UNL d   1      -3.030  -7.032  -2.074  0.00  0.00     0.015 C 
ENDBRANCH  10  11
ENDBRANCH   8  10
ENDBRANCH   2   8
BRANCH   1  20
ATOM     20  C   UNL d   1       2.153  -0.524  -1.323  0.00  0.00     0.037 A 
ATOM     21  C   UNL d   1       2.607  -1.424  -2.305  0.00  0.00     0.048 A 
ATOM     22 CL   UNL d   1       1.550  -2.507  -3.151  0.00  0.00    -0.083 Cl
ATOM     23  C   UNL d   1       3.954  -1.444  -2.700  0.00  0.00     0.025 A 
ATOM     24  C   UNL d   1       4.860  -0.530  -2.171  0.00  0.00     0.003 A 
ATOM     25  C   UNL d   1       4.419   0.409  -1.247  0.00  0.00     0.025 A 
ATOM     26  C   UNL d   1       3.084   0.408  -0.816  0.00  0.00     0.048 A 
ATOM     27 CL   UNL d   1       2.683   1.604   0.379  0.00  0.00    -0.083 Cl
ENDBRANCH   1  20
TORSDOF 4
