REMARK  6 active torsions:
REMARK  status: ('A' for Active; 'I' for Inactive)
REMARK    1  A    between atoms: C_3  and  C_1 
REMARK    2  A    between atoms: C_4  and  C_1 
REMARK    3  A    between atoms: C_8  and  C_2 
REMARK    4  A    between atoms: O_11  and  C_3 
REMARK    5  A    between atoms: N_5  and  C_4 
REMARK    6  A    between atoms: C_17  and  O_11 
ROOT
ATOM      1  C   UNL d   1       0.945   0.043   0.071  0.00  0.00     0.102 C 
ATOM      2  C   UNL d   1       0.278   0.761  -0.856  0.00  0.00     0.039 C 
ENDROOT
BRANCH   1   3
ATOM      3  C   UNL d   1       0.214  -0.670   1.134  0.00  0.00     0.302 C 
ATOM      4  O   UNL d   1      -1.000  -0.654   1.265  0.00  0.00    -0.259 OA
BRANCH   3   5
ATOM      5  O   UNL d   1       1.102  -1.243   1.982  0.00  0.00    -0.317 OA
BRANCH   5   6
ATOM      6  C   UNL d   1       0.599  -1.583   3.279  0.00  0.00     0.174 C 
ATOM      7  C   UNL d   1       0.716  -0.354   4.161  0.00  0.00     0.034 C 
ENDBRANCH   5   6
ENDBRANCH   3   5
ENDBRANCH   1   3
BRANCH   1   8
ATOM      8  C   UNL d   1       2.465   0.043   0.071  0.00  0.00    -0.031 C 
BRANCH   8   9
ATOM      9  N   UNL d   1       3.726   0.043   0.071  0.00  0.00    -0.365 N 
ATOM     10  HN2 UNL d   1       2.706   0.043   0.071  1.00  0.00     0.165 HD
ATOM     11  HN1 UNL d   1       4.746   0.043   0.071  1.00  0.00     0.165 HD
ENDBRANCH   8   9
ENDBRANCH   1   8
BRANCH   2  12
ATOM     12  C   UNL d   1       0.985   1.561  -1.866  0.00  0.00    -0.033 A 
ATOM     13  C   UNL d   1       1.381   0.982  -3.078  0.00  0.00     0.030 A 
ATOM     14  C   UNL d   1       2.181   1.706  -3.963  0.00  0.00     0.011 A 
ATOM     15 BR   UNL d   1       2.753   0.903  -5.578  0.00  0.00    -0.051 Br
ATOM     16  C   UNL d   1       2.588   3.004  -3.659  0.00  0.00     0.019 A 
ATOM     17  C   UNL d   1       2.181   3.590  -2.461  0.00  0.00     0.002 A 
ATOM     18  C   UNL d   1       1.382   2.871  -1.566  0.00  0.00     0.011 A 
ENDBRANCH   2  12
TORSDOF 6
