REMARK  1 active torsions:
REMARK  status: ('A' for Active; 'I' for Inactive)
REMARK    1  A    between atoms: C_2  and  N_1 
ROOT
ATOM      1  C   UNL d   1       1.304   2.258  -0.843  0.00  0.00     0.124 A 
ATOM      2  C   UNL d   1       1.118   3.653  -0.722  0.00  0.00     0.075 A 
ATOM      3  N   UNL d   1       2.117   1.838  -1.846  0.00  0.00    -0.338 N 
ATOM      4  HN  UNL d   1       2.318   0.845  -1.965  1.00  0.00     0.168 HD
ATOM      5  S   UNL d   1       0.263   4.571   0.471  0.00  0.00    -0.096 SA
ATOM      6  C   UNL d   1       1.726   4.510  -1.636  0.00  0.00     0.054 A 
ATOM      7  C   UNL d   1       0.656   6.057  -0.264  0.00  0.00     0.053 A 
ATOM      8  C   UNL d   1       1.449   5.884  -1.373  0.00  0.00     0.038 A 
ATOM      9  N   UNL d   1       2.505   4.068  -2.653  0.00  0.00    -0.351 N 
ATOM     10  HN  UNL d   1       2.937   4.690  -3.336  1.00  0.00     0.166 HD
ATOM     11  C   UNL d   1       2.655   2.742  -2.678  0.00  0.00     0.182 A 
ENDROOT
BRANCH   1  12
ATOM     12  N   UNL d   1       0.780   1.330   0.036  0.00  0.00    -0.361 N 
ATOM     13  C   UNL d   1       1.492   0.068   0.267  0.00  0.00     0.156 C 
ATOM     14  C   UNL d   1       0.721  -1.143  -0.294  0.00  0.00     0.136 C 
ATOM     15  C   UNL d   1       1.355  -2.447   0.173  0.00  0.00     0.041 C 
ATOM     16  O   UNL d   1      -0.643  -1.150   0.172  0.00  0.00    -0.378 OA
ATOM     17  C   UNL d   1      -1.325   0.037  -0.266  0.00  0.00     0.136 C 
ATOM     18  C   UNL d   1      -0.662   1.307   0.309  0.00  0.00     0.156 C 
ATOM     19  C   UNL d   1      -2.772  -0.068   0.202  0.00  0.00     0.041 C 
ENDBRANCH   1  12
TORSDOF 1
