REMARK  9 active torsions:
REMARK  status: ('A' for Active; 'I' for Inactive)
REMARK    1  A    between atoms: C_4  and  C_1 
REMARK    2  A    between atoms: S_5  and  C_11 
REMARK    3  A    between atoms: C_20  and  S_5 
REMARK    4  A    between atoms: C_11  and  C_6 
REMARK    5  A    between atoms: N_7  and  C_14 
REMARK    6  A    between atoms: O_16  and  C_13 
REMARK    7  A    between atoms: C_23  and  O_16 
REMARK    8  A    between atoms: C_24  and  C_20 
REMARK    9  A    between atoms: O_36  and  C_26 
ROOT
ATOM      1  C   UNL d   1       0.475  -0.985   0.231  0.00  0.00     0.184 A 
ATOM      2  N   UNL d   1       0.362  -0.272   1.334  0.00  0.00    -0.322 N 
ATOM      3  HN  UNL d   1       0.512  -0.568   2.298  1.00  0.00     0.169 HD
ATOM      4  C   UNL d   1      -0.004   0.959   0.872  0.00  0.00     0.118 A 
ATOM      5  N   UNL d   1      -0.198   1.021  -0.453  0.00  0.00    -0.246 N 
ATOM      6  HN  UNL d   1      -0.509   1.816  -1.011  1.00  0.00     0.196 HD
ATOM      7  O   UNL d   1       0.135  -0.280  -0.887  0.00  0.00    -0.217 OA
ENDROOT
BRANCH   1   8
ATOM      8  C   UNL d   1       0.998  -2.340   0.122  0.00  0.00     0.053 C 
ATOM      9  C   UNL d   1       1.805  -2.769   1.201  0.00  0.00     0.054 C 
ATOM     10  C   UNL d   1       2.323  -4.064   1.256  0.00  0.00     0.104 C 
ATOM     11  C   UNL d   1       1.983  -4.994   0.275  0.00  0.00     0.039 C 
ATOM     12  C   UNL d   1       1.173  -4.590  -0.784  0.00  0.00     0.041 C 
ATOM     13  C   UNL d   1       0.755  -3.249  -0.926  0.00  0.00     0.090 C 
BRANCH  10  14
ATOM     14  N   UNL d   1       3.230  -4.452   2.344  0.00  0.00    -0.116 N 
ATOM     15  O   UNL d   1       3.482  -3.604   3.212  0.00  0.00    -0.532 OA
ATOM     16  O   UNL d   1       3.701  -5.596   2.318  0.00  0.00    -0.532 OA
ENDBRANCH  10  14
BRANCH  13  17
ATOM     17  O   UNL d   1       0.114  -2.832  -2.086  0.00  0.00    -0.310 OA
BRANCH  17  18
ATOM     18  C   UNL d   1       0.509  -3.435  -3.273  0.00  0.00     0.076 A 
ATOM     19  C   UNL d   1      -0.479  -3.802  -4.190  0.00  0.00     0.040 A 
ATOM     20  C   UNL d   1      -0.140  -4.555  -5.327  0.00  0.00     0.039 A 
ATOM     21  C   UNL d   1       1.185  -4.942  -5.544  0.00  0.00     0.068 A 
ATOM     22  C   UNL d   1       2.178  -4.495  -4.674  0.00  0.00     0.039 A 
ATOM     23  C   UNL d   1       1.849  -3.719  -3.562  0.00  0.00     0.040 A 
BRANCH  21  24
ATOM     24  O   UNL d   1       1.635  -5.705  -6.585  0.00  0.00    -0.356 OA
ATOM     25  C   UNL d   1       0.720  -6.665  -7.099  0.00  0.00     0.210 C 
ENDBRANCH  21  24
ENDBRANCH  17  18
ENDBRANCH  13  17
ENDBRANCH   1   8
BRANCH   4  26
ATOM     26  C   UNL d   1      -0.169   2.108   1.783  0.00  0.00     0.218 C 
BRANCH  26  27
ATOM     27  S   UNL d   1       1.373   2.964   2.056  0.00  0.00     0.155 S 
ATOM     28  O   UNL d   1       1.079   4.064   2.964  0.00  0.00    -0.227 OA
ATOM     29  O   UNL d   1       2.395   1.987   2.403  0.00  0.00    -0.227 OA
BRANCH  27  30
ATOM     30  C   UNL d   1       1.749   3.664   0.453  0.00  0.00     0.179 C 
BRANCH  30  31
ATOM     31  C   UNL d   1       3.090   4.354   0.486  0.00  0.00    -0.044 A 
ATOM     32  C   UNL d   1       4.259   3.634   0.188  0.00  0.00     0.011 A 
ATOM     33  C   UNL d   1       5.500   4.272   0.169  0.00  0.00     0.043 A 
ATOM     34  C   UNL d   1       5.576   5.629   0.455  0.00  0.00     0.116 A 
ATOM     35  C   UNL d   1       4.435   6.356   0.773  0.00  0.00     0.043 A 
ATOM     36  F   UNL d   1       6.764   6.245   0.422  0.00  0.00    -0.206 F 
ATOM     37  C   UNL d   1       3.192   5.720   0.794  0.00  0.00     0.011 A 
ENDBRANCH  30  31
ENDBRANCH  27  30
ENDBRANCH  26  27
ENDBRANCH   4  26
TORSDOF 9
