REMARK  5 active torsions:
REMARK  status: ('A' for Active; 'I' for Inactive)
REMARK    1  A    between atoms: C_6  and  C_1 
REMARK    2  A    between atoms: C_7  and  N_2 
REMARK    3  A    between atoms: C_8  and  C_4 
REMARK    4  A    between atoms: O_11  and  C_6 
REMARK    5  A    between atoms: C_16  and  O_11 
ROOT
ATOM      1  C   UNL d   1      -0.350   1.183  -0.026  0.00  0.00     0.064 A 
ATOM      2  N   UNL d   1       0.986  -0.653  -0.006  0.00  0.00    -0.314 N 
ATOM      3  C   UNL d   1       0.971   0.748  -0.002  0.00  0.00     0.030 A 
ATOM      4  C   UNL d   1      -0.347  -1.110  -0.029  0.00  0.00     0.051 A 
ATOM      5  C   UNL d   1      -1.156   0.018  -0.049  0.00  0.00     0.050 A 
ATOM      6  C   UNL d   1       2.179   1.625   0.131  0.00  0.00     0.070 C 
ENDROOT
BRANCH   2   7
ATOM      7  C   UNL d   1       2.166  -1.467   0.005  0.00  0.00     0.039 A 
ATOM      8  C   UNL d   1       2.231  -2.629   0.787  0.00  0.00     0.030 A 
ATOM      9  C   UNL d   1       3.317  -3.499   0.666  0.00  0.00     0.002 A 
ATOM     10  C   UNL d   1       4.374  -3.183  -0.185  0.00  0.00     0.000 A 
ATOM     11  C   UNL d   1       4.346  -1.999  -0.918  0.00  0.00     0.002 A 
ATOM     12  C   UNL d   1       3.239  -1.151  -0.840  0.00  0.00     0.030 A 
ENDBRANCH   2   7
BRANCH   4  13
ATOM     13  C   UNL d   1      -0.808  -2.518  -0.052  0.00  0.00    -0.009 A 
ATOM     14  C   UNL d   1      -0.159  -3.506  -0.804  0.00  0.00     0.014 A 
ATOM     15  C   UNL d   1      -0.490  -4.857  -0.659  0.00  0.00     0.001 A 
ATOM     16  C   UNL d   1      -1.546  -5.231   0.166  0.00  0.00     0.000 A 
ATOM     17  C   UNL d   1      -2.282  -4.253   0.829  0.00  0.00     0.001 A 
ATOM     18  C   UNL d   1      -1.910  -2.907   0.727  0.00  0.00     0.014 A 
ENDBRANCH   4  13
BRANCH   1  19
ATOM     19  C   UNL d   1      -0.783   2.583   0.040  0.00  0.00     0.295 C 
ATOM     20  O   UNL d   1      -0.017   3.532   0.072  0.00  0.00    -0.259 OA
BRANCH  19  21
ATOM     21  O   UNL d   1      -2.142   2.690   0.158  0.00  0.00    -0.318 OA
BRANCH  21  22
ATOM     22  C   UNL d   1      -2.600   3.949   0.663  0.00  0.00     0.174 C 
ATOM     23  C   UNL d   1      -2.644   3.853   2.178  0.00  0.00     0.034 C 
ENDBRANCH  21  22
ENDBRANCH  19  21
ENDBRANCH   1  19
TORSDOF 5
