REMARK  6 active torsions:
REMARK  status: ('A' for Active; 'I' for Inactive)
REMARK    1  A    between atoms: S_10  and  C_3 
REMARK    2  A    between atoms: O_14  and  C_4 
REMARK    3  A    between atoms: C_8  and  C_13 
REMARK    4  A    between atoms: C_16  and  C_9 
REMARK    5  A    between atoms: C_13  and  S_10 
REMARK    6  A    between atoms: O_15  and  C_16 
ROOT
ATOM      1  N   UNL d   1      -0.253  -1.227  -0.011  0.00  0.00    -0.318 N 
ATOM      2  HN  UNL d   1      -0.801  -2.087  -0.034  1.00  0.00     0.170 HD
ATOM      3  C   UNL d   1       1.091  -1.227  -0.002  0.00  0.00     0.146 A 
ATOM      4  C   UNL d   1      -0.817  -0.019   0.010  0.00  0.00     0.143 A 
ATOM      5  N   UNL d   1       1.860  -0.121   0.013  0.00  0.00    -0.338 N 
ATOM      6  HN  UNL d   1       2.878  -0.182   0.006  1.00  0.00     0.168 HD
ATOM      7  C   UNL d   1      -0.151   1.174   0.034  0.00  0.00     0.083 A 
ATOM      8  C   UNL d   1       1.222   1.077   0.035  0.00  0.00     0.039 A 
ENDROOT
BRANCH   3   9
ATOM      9  S   UNL d   1       1.888  -2.816  -0.073  0.00  0.00    -0.093 SA
BRANCH   9  10
ATOM     10  C   UNL d   1       3.370  -2.451   0.902  0.00  0.00     0.087 C 
BRANCH  10  11
ATOM     11  C   UNL d   1       4.165  -3.706   1.138  0.00  0.00    -0.005 A 
ATOM     12  C   UNL d   1       5.504  -3.578   1.826  0.00  0.00     0.006 A 
ATOM     13  C   UNL d   1       5.443  -4.002   0.387  0.00  0.00     0.006 A 
ENDBRANCH  10  11
ENDBRANCH   9  10
ENDBRANCH   3   9
BRANCH   4  14
ATOM     14  O   UNL d   1      -2.175  -0.033  -0.004  0.00  0.00    -0.346 OA
ATOM     15  H   UNL d   1      -2.344  -0.991  -0.020  0.00  0.00     0.219 HD
ENDBRANCH   4  14
BRANCH   8  16
ATOM     16  C   UNL d   1       2.066   2.328   0.035  0.00  0.00     0.224 C 
BRANCH  16  17
ATOM     17  O   UNL d   1       1.756   3.120   1.184  0.00  0.00    -0.390 OA
ATOM     18  C   UNL d   1       2.542   4.303   1.229  0.00  0.00     0.201 C 
ENDBRANCH  16  17
ENDBRANCH   8  16
TORSDOF 6
