REMARK  4 active torsions:
REMARK  status: ('A' for Active; 'I' for Inactive)
REMARK    1  A    between atoms: C_2  and  C_1 
REMARK    2  A    between atoms: O_8  and  C_2 
REMARK       I    between atoms: C_3  and  N_5 
REMARK    3  A    between atoms: C_4  and  C_3 
REMARK    4  A    between atoms: N_5  and  O_8 
ROOT
ATOM      1  C   UNL d   1       3.669   2.716   0.047  0.00  0.00     0.275 C 
ATOM      2  N   UNL d   1       2.440   2.226   0.416  0.00  0.00    -0.221 N 
ATOM      3  O   UNL d   1       3.844   3.644  -0.736  0.00  0.00    -0.265 OA
ATOM      4  H   UNL d   1       2.291   1.264   0.716  0.00  0.00     0.198 HD
ENDROOT
BRANCH   2   5
ATOM      5  O   UNL d   1       1.354   2.823  -0.279  0.00  0.00    -0.192 OA
BRANCH   5   6
ATOM      6  C   UNL d   1       0.290   1.981  -0.405  0.00  0.00     0.320 C 
ATOM      7  O   UNL d   1       0.314   0.833   0.017  0.00  0.00    -0.257 OA
BRANCH   6   8
ATOM      8  C   UNL d   1      -0.865   2.648  -1.081  0.00  0.00     0.101 A 
ATOM      9  C   UNL d   1      -0.814   4.011  -1.416  0.00  0.00     0.134 A 
ATOM     10  F   UNL d   1       0.260   4.766  -1.146  0.00  0.00    -0.205 F 
ATOM     11  C   UNL d   1      -1.883   4.662  -2.036  0.00  0.00     0.043 A 
ATOM     12  C   UNL d   1      -3.045   3.965  -2.333  0.00  0.00     0.005 A 
ATOM     13  C   UNL d   1      -3.125   2.612  -2.010  0.00  0.00     0.025 A 
ATOM     14  C   UNL d   1      -2.047   1.952  -1.392  0.00  0.00     0.053 A 
ATOM     15 CL   UNL d   1      -2.303   0.273  -1.065  0.00  0.00    -0.083 Cl
ENDBRANCH   6   8
ENDBRANCH   5   6
ENDBRANCH   2   5
BRANCH   1  16
ATOM     16  C   UNL d   1       4.855   2.049   0.646  0.00  0.00     0.035 A 
ATOM     17  C   UNL d   1       6.055   2.057  -0.079  0.00  0.00     0.042 A 
ATOM     18  C   UNL d   1       7.218   1.510   0.470  0.00  0.00     0.056 A 
ATOM     19 CL   UNL d   1       8.656   1.553  -0.487  0.00  0.00    -0.083 Cl
ATOM     20  C   UNL d   1       7.190   0.961   1.757  0.00  0.00     0.055 A 
ATOM     21  C   UNL d   1       5.995   0.957   2.485  0.00  0.00     0.026 A 
ATOM     22 CL   UNL d   1       8.594   0.292   2.510  0.00  0.00    -0.083 Cl
ATOM     23  C   UNL d   1       4.827   1.497   1.933  0.00  0.00     0.019 A 
ENDBRANCH   1  16
TORSDOF 4
