REMARK  6 active torsions:
REMARK  status: ('A' for Active; 'I' for Inactive)
REMARK    1  A    between atoms: C_8  and  C_1 
REMARK    2  A    between atoms: C_6  and  C_11 
REMARK    3  A    between atoms: O_20  and  C_8 
REMARK    4  A    between atoms: N_9  and  N_12 
REMARK    5  A    between atoms: C_21  and  C_19 
REMARK    6  A    between atoms: C_25  and  O_20 
ROOT
ATOM      1  C   UNL d   1      -0.093   1.379   0.018  0.00  0.00     0.109 A 
ATOM      2  C   UNL d   1      -1.396   0.920   0.007  0.00  0.00     0.153 A 
ATOM      3  N   UNL d   1      -0.059  -0.920  -0.007  0.00  0.00    -0.302 N 
ATOM      4  HN  UNL d   1       0.246  -1.893  -0.013  1.00  0.00     0.186 HD
ATOM      5  N   UNL d   1      -1.310  -0.442  -0.013  0.00  0.00    -0.283 N 
ATOM      6  C   UNL d   1       0.697   0.187   0.007  0.00  0.00     0.042 A 
ATOM      7  N   UNL d   1      -2.618   1.507   0.022  0.00  0.00    -0.284 N 
ATOM      8  C   UNL d   1       2.176   0.051   0.002  0.00  0.00     0.071 C 
ATOM      9  H   UNL d   1      -2.099  -1.078  -0.024  0.00  0.00     0.188 HD
ATOM     10  H   UNL d   1      -2.688   2.530  -0.027  0.00  0.00     0.188 HD
ENDROOT
BRANCH   7  11
ATOM     11  N   UNL d   1      -3.729   0.743  -0.132  0.00  0.00    -0.309 N 
ATOM     12  C   UNL d   1      -4.835   1.196   0.362  0.00  0.00     0.118 C 
ATOM     13  HN  UNL d   1      -3.694  -0.152  -0.619  1.00  0.00     0.186 HD
BRANCH  12  14
ATOM     14  C   UNL d   1      -6.072   0.389   0.238  0.00  0.00    -0.019 A 
ATOM     15  C   UNL d   1      -6.040  -0.803  -0.495  0.00  0.00     0.013 A 
ATOM     16  C   UNL d   1      -7.180  -1.598  -0.601  0.00  0.00     0.017 A 
ATOM     17  C   UNL d   1      -8.372  -1.216   0.028  0.00  0.00     0.048 A 
ATOM     18  C   UNL d   1      -8.400  -0.011   0.756  0.00  0.00     0.017 A 
ATOM     19  C   UNL d   1      -7.253   0.789   0.865  0.00  0.00     0.013 A 
BRANCH  17  20
ATOM     20  C   UNL d   1      -9.596  -2.097  -0.059  0.00  0.00     0.417 C 
ATOM     21  F   UNL d   1      -9.396  -3.234  -0.784  0.00  0.00    -0.166 F 
ATOM     22  F   UNL d   1     -10.025  -2.509   1.166  0.00  0.00    -0.166 F 
ATOM     23  F   UNL d   1     -10.656  -1.469  -0.637  0.00  0.00    -0.166 F 
ENDBRANCH  17  20
ENDBRANCH  12  14
ENDBRANCH   7  11
BRANCH   1  24
ATOM     24  C   UNL d   1       0.320   2.763  -0.005  0.00  0.00     0.299 C 
ATOM     25  O   UNL d   1      -0.476   3.697  -0.059  0.00  0.00    -0.259 OA
BRANCH  24  26
ATOM     26  O   UNL d   1       1.674   2.908  -0.063  0.00  0.00    -0.318 OA
BRANCH  26  27
ATOM     27  C   UNL d   1       2.136   4.146  -0.616  0.00  0.00     0.174 C 
ATOM     28  C   UNL d   1       2.185   3.980  -2.125  0.00  0.00     0.034 C 
ENDBRANCH  26  27
ENDBRANCH  24  26
ENDBRANCH   1  24
TORSDOF 6
