REMARK  4 active torsions:
REMARK  status: ('A' for Active; 'I' for Inactive)
REMARK       I    between atoms: N_2  and  C_1 
REMARK       I    between atoms: N_3  and  C_1 
REMARK    1  A    between atoms: C_6  and  N_3 
REMARK    2  A    between atoms: C_4  and  O_7 
REMARK    3  A    between atoms: O_7  and  C_5 
REMARK    4  A    between atoms: O_22  and  C_19 
ROOT
ATOM      1  C   UNL d   1       0.090  -2.935   1.755  0.00  0.00     0.108 A 
ATOM      2  C   UNL d   1       0.723  -1.698   1.515  0.00  0.00     0.070 A 
ATOM      3  C   UNL d   1       0.723  -3.887   2.567  0.00  0.00     0.081 A 
ATOM      4  C   UNL d   1       1.930  -1.421   2.182  0.00  0.00     0.035 A 
ATOM      5  C   UNL d   1       1.933  -3.600   3.183  0.00  0.00     0.119 A 
ATOM      6  C   UNL d   1       2.538  -2.368   3.013  0.00  0.00     0.044 A 
ATOM      7  F   UNL d   1       2.526  -4.530   3.942  0.00  0.00    -0.206 F 
ENDROOT
BRANCH   2   8
ATOM      8  N   UNL d   1       0.186  -0.750   0.606  0.00  0.00    -0.306 N 
ATOM      9  C   UNL d   1       0.956   0.019  -0.235  0.00  0.00     0.323 C 
ATOM     10  N   UNL d   1       0.243   0.876  -1.067  0.00  0.00    -0.334 N 
ATOM     11  O   UNL d   1       2.179  -0.077  -0.314  0.00  0.00    -0.247 OA
ATOM     12  C   UNL d   1      -1.164   1.262  -0.955  0.00  0.00     0.130 C 
ATOM     13  C   UNL d   1       0.957   1.514  -2.170  0.00  0.00     0.130 C 
ATOM     14  C   UNL d   1      -1.917   0.934  -2.244  0.00  0.00     0.051 C 
ATOM     15  C   UNL d   1      -1.200   1.466  -3.491  0.00  0.00     0.121 C 
ATOM     16  C   UNL d   1       0.295   1.143  -3.495  0.00  0.00     0.051 C 
ATOM     17  H   UNL d   1      -0.742  -0.910   0.260  0.00  0.00     0.171 HD
BRANCH  15  18
ATOM     18  O   UNL d   1      -1.408   2.871  -3.619  0.00  0.00    -0.395 OA
ATOM     19  H   UNL d   1      -0.984   3.330  -2.876  0.00  0.00     0.210 HD
ENDBRANCH  15  18
ENDBRANCH   2   8
BRANCH   1  20
ATOM     20  O   UNL d   1      -1.019  -3.435   1.138  0.00  0.00    -0.253 OA
BRANCH  20  21
ATOM     21  C   UNL d   1      -2.182  -2.621   1.049  0.00  0.00     0.530 C 
ATOM     22  F   UNL d   1      -2.109  -1.491   1.778  0.00  0.00    -0.144 F 
ATOM     23  F   UNL d   1      -2.356  -2.267  -0.245  0.00  0.00    -0.144 F 
ATOM     24  F   UNL d   1      -3.254  -3.330   1.448  0.00  0.00    -0.144 F 
ENDBRANCH  20  21
ENDBRANCH   1  20
TORSDOF 4
