REMARK  1 active torsions:
REMARK  status: ('A' for Active; 'I' for Inactive)
REMARK    1  A    between atoms: C_4  and  N_1 
ROOT
ATOM      1  N   UNL d   1       0.600   1.179  -0.504  0.00  0.00    -0.252 N 
ATOM      2  C   UNL d   1       1.367   0.042  -0.254  0.00  0.00     0.232 C 
ATOM      3  C   UNL d   1      -0.683   1.256   0.034  0.00  0.00     0.232 C 
ATOM      4  C   UNL d   1       0.629  -1.282  -0.284  0.00  0.00     0.113 C 
ATOM      5  C   UNL d   1      -1.498  -0.007  -0.154  0.00  0.00     0.113 C 
ATOM      6  C   UNL d   1      -0.767  -1.252   0.334  0.00  0.00    -0.031 C 
ATOM      7  O   UNL d   1      -1.200   2.224   0.585  0.00  0.00    -0.273 OA
ATOM      8  O   UNL d   1       2.583   0.040  -0.057  0.00  0.00    -0.273 OA
ATOM      9  C   UNL d   1      -1.541  -2.500  -0.132  0.00  0.00     0.016 C 
ATOM     10  C   UNL d   1      -0.690  -1.268   1.870  0.00  0.00     0.016 C 
ENDROOT
BRANCH   1  11
ATOM     11  C   UNL d   1       1.245   2.340  -1.079  0.00  0.00     0.045 A 
ATOM     12  C   UNL d   1       0.783   3.653  -0.898  0.00  0.00     0.032 A 
ATOM     13  C   UNL d   1       1.344   4.729  -1.602  0.00  0.00     0.026 A 
ATOM     14  C   UNL d   1       2.366   4.506  -2.517  0.00  0.00     0.034 A 
ATOM     15  C   UNL d   1       2.854   3.222  -2.712  0.00  0.00     0.026 A 
ATOM     16 CL   UNL d   1       3.010   5.815  -3.425  0.00  0.00    -0.084 Cl
ATOM     17  C   UNL d   1       2.302   2.154  -1.993  0.00  0.00     0.032 A 
ENDBRANCH   1  11
TORSDOF 1
