REMARK  3 active torsions:
REMARK  status: ('A' for Active; 'I' for Inactive)
REMARK    1  A    between atoms: C_2  and  C_1 
REMARK       I    between atoms: N_3  and  C_1 
REMARK    2  A    between atoms: C_4  and  N_3 
REMARK    3  A    between atoms: N_9  and  C_8 
ROOT
ATOM      1  C   UNL d   1       0.879   0.119   0.156  0.00  0.00     0.262 C 
ATOM      2  N   UNL d   1       0.248   0.509  -1.010  0.00  0.00    -0.321 N 
ATOM      3  O   UNL d   1       2.078  -0.117   0.277  0.00  0.00    -0.267 OA
ATOM      4  H   UNL d   1      -0.682   0.899  -0.912  0.00  0.00     0.169 HD
ENDROOT
BRANCH   2   5
ATOM      5  C   UNL d   1       0.778   0.555  -2.327  0.00  0.00     0.056 A 
ATOM      6  C   UNL d   1       1.915  -0.145  -2.790  0.00  0.00     0.033 A 
ATOM      7  C   UNL d   1       2.248  -0.061  -4.153  0.00  0.00     0.025 A 
ATOM      8  C   UNL d   1       1.536   0.754  -5.032  0.00  0.00     0.002 A 
ATOM      9  C   UNL d   1       0.440   1.470  -4.569  0.00  0.00     0.002 A 
ATOM     10  C   UNL d   1       0.056   1.358  -3.232  0.00  0.00     0.031 A 
BRANCH   6  11
ATOM     11  N   UNL d   1       2.568  -1.146  -2.041  0.00  0.00    -0.301 NA
ATOM     12  H   UNL d   1       2.551  -0.916  -1.040  0.00  0.00     0.124 HD
ATOM     13  H   UNL d   1       3.525  -1.303  -2.333  0.00  0.00     0.124 HD
ENDBRANCH   6  11
ENDBRANCH   2   5
BRANCH   1  14
ATOM     14  C   UNL d   1       0.023   0.013   1.359  0.00  0.00     0.109 A 
ATOM     15  C   UNL d   1       0.345  -0.912   2.355  0.00  0.00     0.135 A 
ATOM     16  F   UNL d   1       1.397  -1.733   2.231  0.00  0.00    -0.205 F 
ATOM     17  C   UNL d   1      -0.440  -1.036   3.502  0.00  0.00     0.043 A 
ATOM     18  C   UNL d   1      -1.562  -0.227   3.670  0.00  0.00     0.006 A 
ATOM     19  C   UNL d   1      -1.892   0.704   2.687  0.00  0.00     0.043 A 
ATOM     20  C   UNL d   1      -1.102   0.816   1.542  0.00  0.00     0.135 A 
ATOM     21  F   UNL d   1      -1.456   1.722   0.617  0.00  0.00    -0.205 F 
ENDBRANCH   1  14
TORSDOF 3
