REMARK  3 active torsions:
REMARK  status: ('A' for Active; 'I' for Inactive)
REMARK    1  A    between atoms: N_10  and  C_3 
REMARK    2  A    between atoms: C_18  and  C_4 
REMARK    3  A    between atoms: C_5  and  C_6 
REMARK       I    between atoms: C_6  and  N_11 
ROOT
ATOM      1  C   UNL d   1       1.312  -6.449   1.104  0.00  0.00     0.256 C 
ATOM      2  N   UNL d   1       0.432  -2.647   0.245  0.00  0.00    -0.359 N 
ATOM      3  N   UNL d   1       0.259  -5.521   1.014  0.00  0.00    -0.346 N 
ATOM      4  O   UNL d   1       1.902  -6.849   0.100  0.00  0.00    -0.267 OA
ATOM      5  C   UNL d   1       0.550  -3.712  -0.764  0.00  0.00     0.145 C 
ATOM      6  C   UNL d   1      -0.124  -5.034  -0.326  0.00  0.00     0.146 C 
ATOM      7  C   UNL d   1       0.098  -3.493   2.510  0.00  0.00     0.040 C 
ATOM      8  C   UNL d   1       1.101  -2.906   1.521  0.00  0.00     0.126 C 
ATOM      9  C   UNL d   1      -0.455  -4.872   2.119  0.00  0.00     0.127 C 
ENDROOT
BRANCH   2  10
ATOM     10  C   UNL d   1       0.221  -1.332  -0.085  0.00  0.00     0.164 A 
ATOM     11  N   UNL d   1       0.521  -0.322   0.702  0.00  0.00    -0.321 N 
ATOM     12  C   UNL d   1       0.181   0.892   0.108  0.00  0.00     0.123 A 
ATOM     13  HN  UNL d   1       0.946  -0.415   1.624  1.00  0.00     0.169 HD
ATOM     14  N   UNL d   1      -0.408   0.857  -1.093  0.00  0.00    -0.309 N 
ATOM     15  S   UNL d   1      -0.529  -0.744  -1.532  0.00  0.00     0.024 SA
ATOM     16  HN  UNL d   1      -0.724   1.660  -1.638  1.00  0.00     0.176 HD
BRANCH  12  17
ATOM     17  C   UNL d   1       0.473   2.151   0.802  0.00  0.00     0.009 A 
ATOM     18  C   UNL d   1       1.239   2.151   1.981  0.00  0.00     0.015 A 
ATOM     19  C   UNL d   1       1.525   3.348   2.647  0.00  0.00     0.001 A 
ATOM     20  C   UNL d   1       1.047   4.556   2.145  0.00  0.00     0.000 A 
ATOM     21  C   UNL d   1       0.286   4.572   0.978  0.00  0.00     0.001 A 
ATOM     22  C   UNL d   1       0.002   3.376   0.311  0.00  0.00     0.015 A 
ENDBRANCH  12  17
ENDBRANCH   2  10
BRANCH   1  23
ATOM     23  C   UNL d   1       1.759  -6.989   2.417  0.00  0.00     0.070 A 
ATOM     24  C   UNL d   1       2.054  -8.350   2.560  0.00  0.00     0.135 A 
ATOM     25  C   UNL d   1       2.437  -8.882   3.795  0.00  0.00     0.085 A 
ATOM     26  F   UNL d   1       1.967  -9.191   1.520  0.00  0.00    -0.205 F 
ATOM     27  C   UNL d   1       2.510  -8.049   4.902  0.00  0.00     0.119 A 
ATOM     28  C   UNL d   1       2.281  -6.687   4.779  0.00  0.00     0.043 A 
ATOM     29  F   UNL d   1       2.824  -8.555   6.100  0.00  0.00    -0.206 F 
ATOM     30  C   UNL d   1       1.963  -6.158   3.527  0.00  0.00     0.023 A 
ENDBRANCH   1  23
TORSDOF 3
