REMARK  8 active torsions:
REMARK  status: ('A' for Active; 'I' for Inactive)
REMARK    1  A    between atoms: C_4  and  C_1 
REMARK    2  A    between atoms: N_5  and  C_2 
REMARK       I    between atoms: C_3  and  N_5 
REMARK    3  A    between atoms: C_6  and  C_3 
REMARK    4  A    between atoms: C_8  and  C_7 
REMARK    5  A    between atoms: O_22  and  C_8 
REMARK    6  A    between atoms: O_16  and  C_14 
REMARK    7  A    between atoms: C_21  and  O_16 
REMARK    8  A    between atoms: O_28  and  C_23 
ROOT
ATOM      1  C   UNL d   1       0.963  -0.191   0.276  0.00  0.00     0.074 A 
ATOM      2  C   UNL d   1       0.525  -1.292  -0.491  0.00  0.00     0.052 A 
ATOM      3  C   UNL d   1      -0.763  -1.273  -1.047  0.00  0.00     0.067 A 
ATOM      4  C   UNL d   1       0.145   0.951   0.385  0.00  0.00     0.021 A 
ATOM      5  C   UNL d   1      -1.602  -0.177  -0.802  0.00  0.00     0.078 A 
ATOM      6  C   UNL d   1      -1.138   0.958  -0.150  0.00  0.00     0.038 A 
ENDROOT
BRANCH   2   7
ATOM      7  N   UNL d   1       1.328  -2.441  -0.533  0.00  0.00    -0.326 N 
ATOM      8  C   UNL d   1       1.604  -3.359  -1.514  0.00  0.00     0.227 C 
ATOM      9  O   UNL d   1       2.292  -4.332  -1.164  0.00  0.00    -0.273 OA
ATOM     10  H   UNL d   1       1.955  -2.599   0.258  0.00  0.00     0.169 HD
BRANCH   8  11
ATOM     11  C   UNL d   1       1.231  -3.128  -2.997  0.00  0.00     0.092 C 
ATOM     12  C   UNL d   1       0.912  -4.444  -3.787  0.00  0.00     0.096 C 
ATOM     13  C   UNL d   1       1.774  -3.908  -4.947  0.00  0.00     0.017 C 
ATOM     14  C   UNL d   1       2.424  -2.919  -3.971  0.00  0.00     0.016 C 
BRANCH  12  15
ATOM     15  C   UNL d   1      -0.574  -4.745  -4.062  0.00  0.00     0.144 C 
ATOM     16  O   UNL d   1      -1.521  -4.024  -3.746  0.00  0.00    -0.650 OA
BRANCH  15  17
ATOM     17  O   UNL d   1      -0.783  -5.924  -4.700  0.00  0.00    -0.776 OA
ATOM     18  H   UNL d   1       0.045  -6.410  -4.881  0.00  0.00     0.167 HD
ENDBRANCH  15  17
ENDBRANCH  12  15
ENDBRANCH   8  11
ENDBRANCH   2   7
BRANCH   1  19
ATOM     19  C   UNL d   1       2.311  -0.151   0.961  0.00  0.00     0.419 C 
ATOM     20  F   UNL d   1       2.889  -1.374   1.123  0.00  0.00    -0.166 F 
ATOM     21  F   UNL d   1       3.217   0.604   0.283  0.00  0.00    -0.166 F 
ATOM     22  F   UNL d   1       2.243   0.381   2.215  0.00  0.00    -0.166 F 
ENDBRANCH   1  19
BRANCH   5  23
ATOM     23  O   UNL d   1      -2.925  -0.193  -1.182  0.00  0.00    -0.311 OA
BRANCH  23  24
ATOM     24  C   UNL d   1      -3.811  -0.918  -0.403  0.00  0.00     0.076 A 
ATOM     25  C   UNL d   1      -3.471  -1.684   0.718  0.00  0.00     0.040 A 
ATOM     26  C   UNL d   1      -4.435  -2.468   1.361  0.00  0.00     0.039 A 
ATOM     27  C   UNL d   1      -5.748  -2.478   0.894  0.00  0.00     0.068 A 
ATOM     28  C   UNL d   1      -6.115  -1.640  -0.157  0.00  0.00     0.039 A 
ATOM     29  C   UNL d   1      -5.147  -0.871  -0.812  0.00  0.00     0.040 A 
BRANCH  27  30
ATOM     30  O   UNL d   1      -6.734  -3.257   1.434  0.00  0.00    -0.356 OA
ATOM     31  C   UNL d   1      -6.321  -4.605   1.660  0.00  0.00     0.210 C 
ENDBRANCH  27  30
ENDBRANCH  23  24
ENDBRANCH   5  23
TORSDOF 8
