REMARK  6 active torsions:
REMARK  status: ('A' for Active; 'I' for Inactive)
REMARK    1  A    between atoms: C_3  and  C_1 
REMARK    2  A    between atoms: C_2  and  N_4 
REMARK    3  A    between atoms: N_5  and  C_2 
REMARK    4  A    between atoms: N_4  and  C_9 
REMARK    5  A    between atoms: N_7  and  N_5 
REMARK    6  A    between atoms: C_10  and  N_7 
ROOT
ATOM      1  N   UNL d   1      -0.866  -1.873  -4.005  0.00  0.00    -0.332 N 
ATOM      2  H   UNL d   1      -0.274  -1.379  -3.341  0.00  0.00     0.168 HD
ENDROOT
BRANCH   1   3
ATOM      3  C   UNL d   1      -1.256  -3.078  -3.473  0.00  0.00     0.186 C 
ATOM      4  S   UNL d   1      -2.059  -4.369  -4.161  0.00  0.00    -0.040 SA
BRANCH   3   5
ATOM      5  N   UNL d   1      -0.888  -3.240  -2.149  0.00  0.00    -0.297 N 
ATOM      6  H   UNL d   1      -1.180  -4.115  -1.718  0.00  0.00     0.183 HD
BRANCH   5   7
ATOM      7  N   UNL d   1      -0.101  -2.314  -1.433  0.00  0.00    -0.230 NA
ATOM      8  H   UNL d   1      -0.646  -2.025  -0.613  0.00  0.00     0.147 HD
BRANCH   7   9
ATOM      9  C   UNL d   1       1.190  -2.892  -0.979  0.00  0.00     0.019 C 
ATOM     10  C   UNL d   1       2.188  -2.883  -2.145  0.00  0.00     0.033 C 
ATOM     11  C   UNL d   1       1.730  -1.989   0.147  0.00  0.00     0.033 C 
ATOM     12  C   UNL d   1       1.054  -4.321  -0.415  0.00  0.00     0.033 C 
ENDBRANCH   7   9
ENDBRANCH   5   7
ENDBRANCH   3   5
ENDBRANCH   1   3
BRANCH   1  13
ATOM     13  C   UNL d   1      -1.055  -1.272  -5.267  0.00  0.00     0.035 A 
ATOM     14  C   UNL d   1      -1.938  -1.737  -6.243  0.00  0.00     0.045 A 
ATOM     15  C   UNL d   1      -2.047  -1.111  -7.499  0.00  0.00     0.050 A 
ATOM     16  C   UNL d   1      -1.261   0.017  -7.766  0.00  0.00     0.016 A 
ATOM     17  C   UNL d   1      -0.402   0.516  -6.788  0.00  0.00     0.003 A 
ATOM     18  C   UNL d   1      -0.305  -0.123  -5.548  0.00  0.00     0.029 A 
BRANCH  15  19
ATOM     19  C   UNL d   1      -2.971  -1.665  -8.555  0.00  0.00     0.417 C 
ATOM     20  F   UNL d   1      -3.853  -2.590  -8.086  0.00  0.00    -0.166 F 
ATOM     21  F   UNL d   1      -2.293  -2.274  -9.567  0.00  0.00    -0.166 F 
ATOM     22  F   UNL d   1      -3.730  -0.698  -9.146  0.00  0.00    -0.166 F 
ENDBRANCH  15  19
ENDBRANCH   1  13
TORSDOF 6
