REMARK  4 active torsions:
REMARK  status: ('A' for Active; 'I' for Inactive)
REMARK    1  A    between atoms: N_10  and  C_2 
REMARK    2  A    between atoms: S_15  and  C_3 
REMARK    3  A    between atoms: C_8  and  C_9 
REMARK    4  A    between atoms: O_18  and  C_13 
ROOT
ATOM      1  C   UNL d   1       1.675   4.501  -0.100  0.00  0.00     0.024 A 
ATOM      2  C   UNL d   1       2.682   5.029  -0.963  0.00  0.00    -0.012 A 
ATOM      3  C   UNL d   1       0.948   5.348   0.751  0.00  0.00     0.078 A 
ATOM      4  C   UNL d   1       2.932   6.425  -0.916  0.00  0.00    -0.025 A 
ATOM      5  C   UNL d   1       1.220   6.710   0.790  0.00  0.00     0.038 A 
ATOM      6  C   UNL d   1       2.204   7.242  -0.038  0.00  0.00     0.015 A 
ATOM      7  C   UNL d   1       3.441   4.269  -1.892  0.00  0.00     0.013 A 
ATOM      8  C   UNL d   1       3.902   6.998  -1.754  0.00  0.00     0.012 A 
ATOM      9  C   UNL d   1       4.402   4.854  -2.719  0.00  0.00     0.001 A 
ATOM     10  C   UNL d   1       4.633   6.219  -2.649  0.00  0.00     0.001 A 
ENDROOT
BRANCH   1  11
ATOM     11  C   UNL d   1       1.393   3.044  -0.101  0.00  0.00     0.105 C 
ATOM     12  N   UNL d   1       0.244   2.567   0.272  0.00  0.00    -0.344 N 
ATOM     13  HN  UNL d   1      -0.506   3.154   0.638  1.00  0.00     0.167 HD
BRANCH  12  14
ATOM     14  C   UNL d   1       0.122   1.214   0.134  0.00  0.00     0.165 A 
ATOM     15  S   UNL d   1      -1.408   0.484   0.480  0.00  0.00    -0.026 SA
ATOM     16  C   UNL d   1      -0.718  -1.019   0.040  0.00  0.00     0.129 A 
ATOM     17  N   UNL d   1       0.543  -0.953  -0.321  0.00  0.00    -0.286 N 
ATOM     18  N   UNL d   1       1.026   0.337  -0.264  0.00  0.00    -0.278 N 
ATOM     19  HN  UNL d   1       1.098  -1.758  -0.609  1.00  0.00     0.188 HD
ATOM     20  HN  UNL d   1       1.985   0.588  -0.505  1.00  0.00     0.189 HD
BRANCH  16  21
ATOM     21  S   UNL d   1      -1.614  -2.521   0.067  0.00  0.00    -0.108 SA
ATOM     22  C   UNL d   1      -0.344  -3.680  -0.490  0.00  0.00     0.097 C 
ENDBRANCH  16  21
ENDBRANCH  12  14
ENDBRANCH   1  11
BRANCH   3  23
ATOM     23  O   UNL d   1      -0.041   4.912   1.590  0.00  0.00    -0.360 OA
ATOM     24  H   UNL d   1      -0.245   3.983   1.353  0.00  0.00     0.217 HD
ENDBRANCH   3  23
TORSDOF 4
