REMARK  6 active torsions:
REMARK  status: ('A' for Active; 'I' for Inactive)
REMARK    1  A    between atoms: N_5  and  C_1 
REMARK    2  A    between atoms: C_2  and  C_7 
REMARK    3  A    between atoms: C_3  and  N_5 
REMARK    4  A    between atoms: N_9  and  C_3 
REMARK    5  A    between atoms: N_6  and  C_4 
REMARK    6  A    between atoms: C_14  and  N_9 
ROOT
ATOM      1  C   UNL d   1       2.123  -0.028   0.107  0.00  0.00     0.056 A 
ATOM      2  C   UNL d   1       1.389  -1.169  -0.307  0.00  0.00     0.037 A 
ATOM      3  C   UNL d   1       0.154   1.395  -0.070  0.00  0.00     0.050 A 
ATOM      4  C   UNL d   1       1.520   1.234   0.186  0.00  0.00     0.047 A 
ATOM      5  C   UNL d   1       0.005  -0.997  -0.490  0.00  0.00     0.027 A 
ATOM      6  C   UNL d   1      -0.603   0.260  -0.372  0.00  0.00     0.018 A 
ENDROOT
BRANCH   1   7
ATOM      7  N   UNL d   1       3.420  -0.234   0.632  0.00  0.00    -0.332 N 
ATOM      8  H   UNL d   1       3.634  -1.208   0.809  0.00  0.00     0.168 HD
BRANCH   7   9
ATOM      9  C   UNL d   1       4.445   0.647   0.780  0.00  0.00     0.176 C 
ATOM     10  S   UNL d   1       4.857   1.847  -0.319  0.00  0.00    -0.041 SA
BRANCH   9  11
ATOM     11  N   UNL d   1       5.274   0.503   1.856  0.00  0.00    -0.333 N 
ATOM     12  H   UNL d   1       6.061   1.142   1.789  0.00  0.00     0.168 HD
BRANCH  11  13
ATOM     13  C   UNL d   1       5.197  -0.238   3.053  0.00  0.00     0.036 A 
ATOM     14  C   UNL d   1       6.294  -0.114   3.921  0.00  0.00     0.056 A 
ATOM     15  C   UNL d   1       6.329  -0.803   5.136  0.00  0.00     0.074 A 
ATOM     16 CL   UNL d   1       7.692  -0.621   6.172  0.00  0.00    -0.081 Cl
ATOM     17  C   UNL d   1       5.267  -1.623   5.494  0.00  0.00     0.138 A 
ATOM     18  C   UNL d   1       4.164  -1.741   4.659  0.00  0.00     0.046 A 
ATOM     19  F   UNL d   1       5.282  -2.304   6.649  0.00  0.00    -0.204 F 
ATOM     20  C   UNL d   1       4.122  -1.039   3.446  0.00  0.00     0.032 A 
ENDBRANCH  11  13
ENDBRANCH   9  11
ENDBRANCH   7   9
ENDBRANCH   1   7
BRANCH   2  21
ATOM     21  N   UNL d   1       2.024  -2.411  -0.494  0.00  0.00    -0.281 NA
ATOM     22  C   UNL d   1       1.227  -3.616  -0.745  0.00  0.00     0.096 C 
ATOM     23  C   UNL d   1       2.298  -4.653  -1.044  0.00  0.00     0.016 C 
ATOM     24  C   UNL d   1       3.290  -3.881  -1.901  0.00  0.00     0.016 C 
ATOM     25  C   UNL d   1       3.144  -2.417  -1.466  0.00  0.00     0.096 C 
ENDBRANCH   2  21
BRANCH   3  26
ATOM     26  C   UNL d   1      -0.501   2.746   0.057  0.00  0.00     0.417 C 
ATOM     27  F   UNL d   1       0.381   3.785   0.045  0.00  0.00    -0.166 F 
ATOM     28  F   UNL d   1      -1.385   2.999  -0.948  0.00  0.00    -0.166 F 
ATOM     29  F   UNL d   1      -1.207   2.870   1.215  0.00  0.00    -0.166 F 
ENDBRANCH   3  26
TORSDOF 6
