REMARK  4 active torsions:
REMARK  status: ('A' for Active; 'I' for Inactive)
REMARK    1  A    between atoms: C_2  and  S_1 
REMARK    2  A    between atoms: N_8  and  S_1 
REMARK    3  A    between atoms: C_6  and  C_3 
REMARK       I    between atoms: N_9  and  C_6 
REMARK    4  A    between atoms: C_13  and  N_9 
ROOT
ATOM      1  C   UNL d   1       0.308  -0.515  -1.593  0.00  0.00     0.186 A 
ATOM      2  C   UNL d   1      -0.552  -0.581  -3.704  0.00  0.00     0.065 A 
ATOM      3  C   UNL d   1      -0.431   0.209  -2.520  0.00  0.00     0.070 A 
ATOM      4  O   UNL d   1       0.521  -1.768  -2.117  0.00  0.00    -0.301 OA
ATOM      5  C   UNL d   1      -0.015  -1.811  -3.360  0.00  0.00     0.066 A 
ATOM      6  C   UNL d   1       0.098  -3.111  -4.062  0.00  0.00     0.078 C 
ENDROOT
BRANCH   2   7
ATOM      7  C   UNL d   1      -1.086  -0.268  -5.028  0.00  0.00     0.258 C 
ATOM      8  N   UNL d   1      -1.602   1.011  -5.152  0.00  0.00    -0.323 N 
ATOM      9  H   UNL d   1      -1.576   1.603  -4.341  0.00  0.00     0.169 HD
ATOM     10  O   UNL d   1      -1.024  -1.103  -5.927  0.00  0.00    -0.267 OA
BRANCH   8  11
ATOM     11  C   UNL d   1      -2.107   1.608  -6.331  0.00  0.00     0.035 A 
ATOM     12  C   UNL d   1      -2.165   0.965  -7.570  0.00  0.00     0.029 A 
ATOM     13  C   UNL d   1      -2.613   1.645  -8.706  0.00  0.00     0.002 A 
ATOM     14  C   UNL d   1      -3.024   2.970  -8.612  0.00  0.00     0.000 A 
ATOM     15  C   UNL d   1      -3.005   3.612  -7.377  0.00  0.00     0.002 A 
ATOM     16  C   UNL d   1      -2.549   2.934  -6.242  0.00  0.00     0.029 A 
ENDBRANCH   8  11
ENDBRANCH   2   7
BRANCH   1  17
ATOM     17  S   UNL d   1       0.968  -0.051   0.013  0.00  0.00     0.266 S 
ATOM     18  O   UNL d   1      -0.196   0.026   0.867  0.00  0.00    -0.204 OA
ATOM     19  O   UNL d   1       1.782   1.116  -0.265  0.00  0.00    -0.204 OA
BRANCH  17  20
ATOM     20  N   UNL d   1       1.982  -1.319   0.559  0.00  0.00    -0.205 NA
ATOM     21  C   UNL d   1       3.226  -1.496  -0.235  0.00  0.00     0.107 C 
ATOM     22  C   UNL d   1       4.168  -2.458   0.482  0.00  0.00     0.015 C 
ATOM     23  C   UNL d   1       3.486  -3.795   0.747  0.00  0.00     0.002 C 
ATOM     24  C   UNL d   1       2.196  -3.584   1.532  0.00  0.00     0.015 C 
ATOM     25  C   UNL d   1       1.270  -2.599   0.826  0.00  0.00     0.107 C 
ENDBRANCH  17  20
ENDBRANCH   1  17
TORSDOF 4
