REMARK  2 active torsions:
REMARK  status: ('A' for Active; 'I' for Inactive)
REMARK    1  A    between atoms: C_3  and  C_1 
REMARK    2  A    between atoms: N_2  and  C_4 
ROOT
ATOM      1  C   UNL d   1      -1.520   0.253   0.116  0.00  0.00    -0.012 C 
ATOM      2  C   UNL d   1      -0.727   0.995   1.238  0.00  0.00     0.019 C 
ATOM      3  C   UNL d   1      -0.968   0.731  -1.256  0.00  0.00     0.019 C 
ATOM      4  C   UNL d   1      -1.185  -1.266   0.258  0.00  0.00     0.019 C 
ATOM      5  C   UNL d   1       0.548   0.476  -1.363  0.00  0.00    -0.013 C 
ATOM      6  C   UNL d   1       0.329  -1.523   0.153  0.00  0.00    -0.013 C 
ATOM      7  C   UNL d   1       0.784   0.739   1.131  0.00  0.00    -0.013 C 
ATOM      8  C   UNL d   1       1.276   1.232  -0.239  0.00  0.00     0.009 C 
ATOM      9  C   UNL d   1       1.054  -0.762   1.269  0.00  0.00     0.009 C 
ATOM     10  C   UNL d   1       0.827  -1.028  -1.215  0.00  0.00     0.009 C 
ENDROOT
BRANCH   1  11
ATOM     11  C   UNL d   1      -3.034   0.545   0.180  0.00  0.00    -0.049 A 
ATOM     12  C   UNL d   1      -3.518   1.780   0.658  0.00  0.00     0.010 A 
ATOM     13  C   UNL d   1      -4.884   2.075   0.692  0.00  0.00     0.036 A 
ATOM     14  C   UNL d   1      -5.802   1.133   0.228  0.00  0.00     0.102 A 
ATOM     15  C   UNL d   1      -5.359  -0.098  -0.263  0.00  0.00     0.036 A 
ATOM     16  C   UNL d   1      -3.987  -0.381  -0.287  0.00  0.00     0.010 A 
BRANCH  14  17
ATOM     17  N   UNL d   1      -7.235   1.446   0.242  0.00  0.00    -0.116 N 
ATOM     18  O   UNL d   1      -8.018   0.589  -0.193  0.00  0.00    -0.532 OA
ATOM     19  O   UNL d   1      -7.580   2.551   0.685  0.00  0.00    -0.532 OA
ENDBRANCH  14  17
ENDBRANCH   1  11
TORSDOF 2
