REMARK  4 active torsions:
REMARK  status: ('A' for Active; 'I' for Inactive)
REMARK    1  A    between atoms: C_9  and  C_2 
REMARK    2  A    between atoms: S_11  and  C_5 
REMARK    3  A    between atoms: C_8  and  C_10 
REMARK    4  A    between atoms: C_10  and  S_11 
ROOT
ATOM      1  N   UNL d   1      -1.209  -0.024   0.169  0.00  0.00    -0.320 N 
ATOM      2  C   UNL d   1      -0.422   1.089  -0.013  0.00  0.00     0.132 A 
ATOM      3  N   UNL d   1       0.836   0.688  -0.093  0.00  0.00    -0.283 N 
ATOM      4  HN  UNL d   1       1.643   1.290  -0.254  1.00  0.00     0.188 HD
ATOM      5  C   UNL d   1      -0.357  -1.081   0.263  0.00  0.00     0.161 A 
ATOM      6  N   UNL d   1       0.875  -0.679   0.078  0.00  0.00    -0.278 N 
ATOM      7  HN  UNL d   1       1.707  -1.268   0.063  1.00  0.00     0.189 HD
ATOM      8  H   UNL d   1      -2.205  -0.054   0.310  0.00  0.00     0.169 HD
ENDROOT
BRANCH   5   9
ATOM      9  S   UNL d   1      -0.927  -2.659   0.648  0.00  0.00    -0.088 SA
BRANCH   9  10
ATOM     10  C   UNL d   1       0.608  -3.396   1.300  0.00  0.00     0.126 C 
BRANCH  10  11
ATOM     11  C   UNL d   1       0.388  -4.764   1.896  0.00  0.00     0.012 A 
ATOM     12  C   UNL d   1       0.586  -5.959   1.189  0.00  0.00     0.044 A 
ATOM     13 CL   UNL d   1       1.058  -5.973  -0.473  0.00  0.00    -0.084 Cl
ATOM     14  C   UNL d   1       0.413  -7.202   1.815  0.00  0.00     0.024 A 
ATOM     15  C   UNL d   1       0.022  -7.273   3.153  0.00  0.00     0.005 A 
ATOM     16  C   UNL d   1      -0.203  -6.097   3.861  0.00  0.00     0.043 A 
ATOM     17  C   UNL d   1      -0.021  -4.866   3.232  0.00  0.00     0.125 A 
ATOM     18  F   UNL d   1      -0.236  -3.752   3.948  0.00  0.00    -0.205 F 
ENDBRANCH  10  11
ENDBRANCH   9  10
ENDBRANCH   5   9
BRANCH   2  19
ATOM     19  C   UNL d   1      -0.896   2.472  -0.025  0.00  0.00     0.013 A 
ATOM     20  C   UNL d   1      -0.024   3.496   0.380  0.00  0.00     0.039 A 
ATOM     21  C   UNL d   1      -0.452   4.824   0.417  0.00  0.00     0.036 A 
ATOM     22 CL   UNL d   1       0.628   6.055   0.948  0.00  0.00    -0.084 Cl
ATOM     23  C   UNL d   1      -1.746   5.161   0.039  0.00  0.00     0.047 A 
ATOM     24  C   UNL d   1      -2.610   4.154  -0.380  0.00  0.00     0.036 A 
ATOM     25  C   UNL d   1      -2.197   2.818  -0.413  0.00  0.00     0.039 A 
ATOM     26 CL   UNL d   1      -4.214   4.558  -0.859  0.00  0.00    -0.084 Cl
ENDBRANCH   2  19
TORSDOF 4
