REMARK  6 active torsions:
REMARK  status: ('A' for Active; 'I' for Inactive)
REMARK    1  A    between atoms: N_2  and  C_1 
REMARK    2  A    between atoms: N_8  and  C_1 
REMARK       I    between atoms: C_7  and  N_2 
REMARK    3  A    between atoms: C_9  and  C_7 
REMARK    4  A    between atoms: C_21  and  N_8 
REMARK    5  A    between atoms: C_19  and  C_28 
REMARK    6  A    between atoms: C_28  and  C_21 
ROOT
ATOM      1  C   UNL d   1       1.943   0.126  -0.119  0.00  0.00     0.362 A 
ATOM      2  C   UNL d   1       1.057  -1.134  -0.080  0.00  0.00     0.228 A 
ATOM      3  C   UNL d   1       0.941   1.290   0.020  0.00  0.00     0.228 A 
ATOM      4  C   UNL d   1      -0.403   0.706   0.085  0.00  0.00     0.029 A 
ATOM      5  C   UNL d   1      -0.338  -0.684   0.010  0.00  0.00     0.029 A 
ATOM      6  O   UNL d   1       1.183   2.483   0.106  0.00  0.00    -0.287 OA
ATOM      7  O   UNL d   1       1.392  -2.306  -0.139  0.00  0.00    -0.287 OA
ATOM      8  C   UNL d   1      -1.611   1.371   0.196  0.00  0.00     0.016 A 
ATOM      9  C   UNL d   1      -1.482  -1.463   0.007  0.00  0.00     0.016 A 
ATOM     10  C   UNL d   1      -2.713  -0.805   0.098  0.00  0.00     0.001 A 
ATOM     11  C   UNL d   1      -2.776   0.598   0.200  0.00  0.00     0.001 A 
ENDROOT
BRANCH   1  12
ATOM     12  N   UNL d   1       2.778   0.173  -1.291  0.00  0.00    -0.309 N 
ATOM     13  C   UNL d   1       2.210   0.175  -2.549  0.00  0.00     0.254 C 
ATOM     14  O   UNL d   1       1.002   0.273  -2.739  0.00  0.00    -0.268 OA
ATOM     15  H   UNL d   1       3.666  -0.295  -1.188  0.00  0.00     0.166 HD
BRANCH  13  16
ATOM     16  C   UNL d   1       3.142  -0.017  -3.689  0.00  0.00     0.032 A 
ATOM     17  C   UNL d   1       2.721  -0.767  -4.793  0.00  0.00     0.017 A 
ATOM     18  C   UNL d   1       3.589  -0.979  -5.868  0.00  0.00     0.007 A 
ATOM     19  C   UNL d   1       4.875  -0.422  -5.862  0.00  0.00    -0.062 A 
ATOM     20  C   UNL d   1       5.281   0.346  -4.763  0.00  0.00     0.007 A 
ATOM     21  C   UNL d   1       5.820  -0.693  -6.997  0.00  0.00     0.048 C 
ATOM     22  C   UNL d   1       4.419   0.551  -3.681  0.00  0.00     0.017 A 
ENDBRANCH  13  16
ENDBRANCH   1  12
BRANCH   1  23
ATOM     23  N   UNL d   1       2.949   0.156   0.966  0.00  0.00     0.129 N 
ATOM     24  H   UNL d   1       3.458   1.033   0.840  0.00  0.00     0.320 HD
BRANCH  23  25
ATOM     25  C   UNL d   1       2.382   0.154   2.324  0.00  0.00     0.278 C 
BRANCH  25  26
ATOM     26  C   UNL d   1       3.491   0.174   3.391  0.00  0.00     0.068 C 
BRANCH  26  27
ATOM     27  C   UNL d   1       2.906   0.263   4.784  0.00  0.00    -0.056 A 
ATOM     28  C   UNL d   1       2.568  -0.900   5.490  0.00  0.00     0.009 A 
ATOM     29  C   UNL d   1       1.974  -0.816   6.753  0.00  0.00     0.024 A 
ATOM     30  C   UNL d   1       1.716   0.432   7.315  0.00  0.00     0.034 A 
ATOM     31  C   UNL d   1       2.054   1.597   6.630  0.00  0.00     0.024 A 
ATOM     32 CL   UNL d   1       0.963   0.535   8.859  0.00  0.00    -0.084 Cl
ATOM     33  C   UNL d   1       2.646   1.513   5.367  0.00  0.00     0.009 A 
ENDBRANCH  26  27
ENDBRANCH  25  26
ENDBRANCH  23  25
ENDBRANCH   1  23
TORSDOF 6
