REMARK  6 active torsions:
REMARK  status: ('A' for Active; 'I' for Inactive)
REMARK    1  A    between atoms: C_13  and  C_5 
REMARK    2  A    between atoms: N_7  and  C_9 
REMARK    3  A    between atoms: N_8  and  C_14 
REMARK       I    between atoms: N_23  and  C_13 
REMARK    4  A    between atoms: C_24  and  N_23 
REMARK    5  A    between atoms: C_25  and  C_24 
REMARK    6  A    between atoms: C_26  and  C_25 
ROOT
ATOM      1  C   UNL d   1      -0.679   0.844   0.041  0.00  0.00     0.005 A 
ATOM      2  C   UNL d   1      -1.152  -0.491  -0.001  0.00  0.00     0.029 A 
ATOM      3  C   UNL d   1       1.206  -0.553  -0.034  0.00  0.00     0.028 A 
ATOM      4  C   UNL d   1       0.787   0.790   0.040  0.00  0.00    -0.010 A 
ATOM      5  C   UNL d   1      -1.634   1.865   0.057  0.00  0.00     0.046 A 
ATOM      6  C   UNL d   1       0.006  -1.400  -0.045  0.00  0.00     0.194 A 
ATOM      7  C   UNL d   1      -3.416   0.167  -0.024  0.00  0.00     0.104 A 
ATOM      8  C   UNL d   1      -2.483  -0.866  -0.029  0.00  0.00     0.052 A 
ATOM      9  C   UNL d   1      -3.005   1.518   0.017  0.00  0.00     0.054 A 
ATOM     10  C   UNL d   1       2.527  -0.971  -0.095  0.00  0.00     0.052 A 
ATOM     11  C   UNL d   1       3.495   0.032  -0.085  0.00  0.00     0.103 A 
ATOM     12  C   UNL d   1       1.772   1.767   0.087  0.00  0.00     0.016 A 
ATOM     13  O   UNL d   1      -0.030  -2.610  -0.080  0.00  0.00    -0.287 OA
ATOM     14  C   UNL d   1       3.126   1.391   0.010  0.00  0.00     0.037 A 
ENDROOT
BRANCH   5  15
ATOM     15  C   UNL d   1      -1.277   3.307   0.016  0.00  0.00     0.252 C 
ATOM     16  O   UNL d   1      -0.356   3.691  -0.691  0.00  0.00    -0.268 OA
ATOM     17  N   UNL d   1      -2.046   4.162   0.785  0.00  0.00    -0.357 N 
ATOM     18  H   UNL d   1      -2.821   3.819   1.337  0.00  0.00     0.162 HD
BRANCH  17  19
ATOM     19  C   UNL d   1      -1.722   5.574   0.885  0.00  0.00     0.123 C 
BRANCH  19  20
ATOM     20  C   UNL d   1      -2.196   6.375  -0.326  0.00  0.00     0.019 C 
BRANCH  20  21
ATOM     21  C   UNL d   1      -1.746   7.834  -0.233  0.00  0.00    -0.003 C 
ATOM     22  C   UNL d   1      -2.209   8.643  -1.435  0.00  0.00     0.005 C 
ENDBRANCH  20  21
ENDBRANCH  19  20
ENDBRANCH  17  19
ENDBRANCH   5  15
BRANCH   7  23
ATOM     23  N   UNL d   1      -4.849  -0.154  -0.086  0.00  0.00    -0.116 N 
ATOM     24  O   UNL d   1      -5.170  -1.347  -0.147  0.00  0.00    -0.532 OA
ATOM     25  O   UNL d   1      -5.646   0.795  -0.065  0.00  0.00    -0.532 OA
ENDBRANCH   7  23
BRANCH  11  26
ATOM     26  N   UNL d   1       4.916  -0.329  -0.183  0.00  0.00    -0.116 N 
ATOM     27  O   UNL d   1       5.200  -1.531  -0.271  0.00  0.00    -0.532 OA
ATOM     28  O   UNL d   1       5.745   0.592  -0.171  0.00  0.00    -0.532 OA
ENDBRANCH  11  26
TORSDOF 6
