REMARK  8 active torsions:
REMARK  status: ('A' for Active; 'I' for Inactive)
REMARK    1  A    between atoms: C_3  and  S_1 
REMARK    2  A    between atoms: N_9  and  S_1 
REMARK    3  A    between atoms: N_2  and  C_4 
REMARK    4  A    between atoms: C_18  and  N_9 
REMARK    5  A    between atoms: C_10  and  C_17 
REMARK    6  A    between atoms: O_16  and  C_10 
REMARK    7  A    between atoms: C_17  and  C_19 
REMARK    8  A    between atoms: C_19  and  C_18 
ROOT
ATOM      1  S   UNL d   1       0.875   0.106  -0.034  0.00  0.00     0.258 S 
ATOM      2  O   UNL d   1       0.397   1.467  -0.119  0.00  0.00    -0.201 OA
ATOM      3  O   UNL d   1       0.550  -0.887  -1.033  0.00  0.00    -0.201 OA
ENDROOT
BRANCH   1   4
ATOM      4  C   UNL d   1       0.406  -0.567   1.542  0.00  0.00     0.079 A 
ATOM      5  C   UNL d   1      -0.406   0.179   2.404  0.00  0.00     0.028 A 
ATOM      6  C   UNL d   1      -0.836  -0.385   3.608  0.00  0.00     0.037 A 
ATOM      7  C   UNL d   1      -0.449  -1.693   3.939  0.00  0.00     0.102 A 
ATOM      8  C   UNL d   1       0.375  -2.435   3.078  0.00  0.00     0.037 A 
ATOM      9  C   UNL d   1       0.803  -1.868   1.874  0.00  0.00     0.028 A 
BRANCH   7  10
ATOM     10  N   UNL d   1      -0.925  -2.297   5.191  0.00  0.00    -0.116 N 
ATOM     11  O   UNL d   1      -0.573  -3.459   5.439  0.00  0.00    -0.532 OA
ATOM     12  O   UNL d   1      -1.648  -1.609   5.923  0.00  0.00    -0.532 OA
ENDBRANCH   7  10
ENDBRANCH   1   4
BRANCH   1  13
ATOM     13  N   UNL d   1       2.558   0.149   0.065  0.00  0.00    -0.315 N 
ATOM     14  H   UNL d   1       2.980  -0.246  -0.777  0.00  0.00     0.172 HD
BRANCH  13  15
ATOM     15  C   UNL d   1       3.165   1.355   0.634  0.00  0.00     0.133 C 
BRANCH  15  16
ATOM     16  C   UNL d   1       4.682   1.202   0.672  0.00  0.00     0.031 C 
BRANCH  16  17
ATOM     17  C   UNL d   1       5.335   2.466   1.233  0.00  0.00     0.111 C 
BRANCH  17  18
ATOM     18  C   UNL d   1       6.838   2.352   1.280  0.00  0.00     0.139 C 
ATOM     19  O   UNL d   1       7.482   1.380   0.919  0.00  0.00    -0.650 OA
BRANCH  18  20
ATOM     20  O   UNL d   1       7.423   3.466   1.776  0.00  0.00    -0.776 OA
ATOM     21  H   UNL d   1       6.798   4.173   2.025  0.00  0.00     0.167 HD
ENDBRANCH  18  20
ENDBRANCH  17  18
ENDBRANCH  16  17
ENDBRANCH  15  16
ENDBRANCH  13  15
ENDBRANCH   1  13
TORSDOF 8
