REMARK  5 active torsions:
REMARK  status: ('A' for Active; 'I' for Inactive)
REMARK    1  A    between atoms: C_5  and  C_1 
REMARK    2  A    between atoms: C_7  and  C_2 
REMARK    3  A    between atoms: S_9  and  C_7 
REMARK    4  A    between atoms: C_15  and  S_9 
REMARK    5  A    between atoms: C_14  and  C_15 
ROOT
ATOM      1  C   UNL d   1      -1.226  -0.575   0.271  0.00  0.00     0.085 A 
ATOM      2  C   UNL d   1       0.024  -1.244   0.032  0.00  0.00     0.082 A 
ATOM      3  N   UNL d   1      -1.002   0.724   0.540  0.00  0.00    -0.259 N 
ATOM      4  HN  UNL d   1      -1.699   1.415   0.816  1.00  0.00     0.195 HD
ATOM      5  O   UNL d   1       0.338   0.942   0.376  0.00  0.00    -0.241 OA
ATOM      6  C   UNL d   1       0.958  -0.220   0.064  0.00  0.00     0.089 A 
ATOM      7  C   UNL d   1       2.412  -0.089  -0.165  0.00  0.00     0.080 C 
ENDROOT
BRANCH   1   8
ATOM      8  C   UNL d   1      -2.617  -1.061   0.332  0.00  0.00     0.037 A 
ATOM      9  C   UNL d   1      -3.005  -2.138   1.150  0.00  0.00     0.048 A 
ATOM     10 CL   UNL d   1      -1.901  -3.037   2.138  0.00  0.00    -0.083 Cl
ATOM     11  C   UNL d   1      -4.356  -2.504   1.278  0.00  0.00     0.025 A 
ATOM     12  C   UNL d   1      -5.353  -1.778   0.636  0.00  0.00     0.003 A 
ATOM     13  C   UNL d   1      -4.998  -0.706  -0.171  0.00  0.00     0.025 A 
ATOM     14  C   UNL d   1      -3.648  -0.362  -0.344  0.00  0.00     0.048 A 
ATOM     15 CL   UNL d   1      -3.353   0.950  -1.442  0.00  0.00    -0.083 Cl
ENDBRANCH   1   8
BRANCH   2  16
ATOM     16  C   UNL d   1       0.291  -2.645  -0.211  0.00  0.00     0.224 C 
ATOM     17  O   UNL d   1      -0.404  -3.363  -0.925  0.00  0.00    -0.280 OA
BRANCH  16  18
ATOM     18  S   UNL d   1       1.588  -3.304   0.790  0.00  0.00    -0.080 SA
BRANCH  18  19
ATOM     19  C   UNL d   1       2.037  -4.763  -0.175  0.00  0.00     0.160 C 
BRANCH  19  20
ATOM     20  C   UNL d   1       2.626  -4.426  -1.533  0.00  0.00     0.132 C 
ATOM     21  O   UNL d   1       2.671  -3.288  -2.000  0.00  0.00    -0.298 OA
ATOM     22  C   UNL d   1       3.224  -5.591  -2.287  0.00  0.00     0.091 C 
ENDBRANCH  19  20
ENDBRANCH  18  19
ENDBRANCH  16  18
ENDBRANCH   2  16
TORSDOF 5
