REMARK  4 active torsions:
REMARK  status: ('A' for Active; 'I' for Inactive)
REMARK    1  A    between atoms: C_8  and  C_1 
REMARK    2  A    between atoms: N_6  and  C_2 
REMARK    3  A    between atoms: C_11  and  C_4 
REMARK       I    between atoms: C_7  and  N_6 
REMARK    4  A    between atoms: C_9  and  C_7 
REMARK       I    between atoms: N_17  and  C_8 
ROOT
ATOM      1  C   UNL d   1       0.040   1.190  -0.380  0.00  0.00     0.100 C 
ATOM      2  C   UNL d   1       1.338   0.852  -0.030  0.00  0.00     0.059 C 
ATOM      3  S   UNL d   1      -1.017  -0.147  -0.167  0.00  0.00    -0.082 SA
ATOM      4  C   UNL d   1       0.273  -1.266  -0.035  0.00  0.00     0.018 C 
ATOM      5  C   UNL d   1       1.465  -0.577   0.108  0.00  0.00     0.051 C 
ENDROOT
BRANCH   2   6
ATOM      6  N   UNL d   1       2.464   1.665   0.111  0.00  0.00    -0.321 N 
ATOM      7  C   UNL d   1       2.502   3.026   0.362  0.00  0.00     0.263 C 
ATOM      8  O   UNL d   1       1.500   3.712   0.550  0.00  0.00    -0.267 OA
ATOM      9  H   UNL d   1       3.352   1.183   0.203  0.00  0.00     0.169 HD
BRANCH   7  10
ATOM     10  C   UNL d   1       3.843   3.609   0.373  0.00  0.00     0.072 A 
ATOM     11  S   UNL d   1       5.258   2.664   0.141  0.00  0.00    -0.097 SA
ATOM     12  C   UNL d   1       6.271   4.040   0.170  0.00  0.00     0.050 A 
ATOM     13  C   UNL d   1       5.562   5.197   0.396  0.00  0.00     0.009 A 
ATOM     14  C   UNL d   1       4.165   4.945   0.533  0.00  0.00     0.025 A 
ENDBRANCH   7  10
ENDBRANCH   2   6
BRANCH   1  15
ATOM     15  C   UNL d   1      -0.566   2.383  -0.944  0.00  0.00     0.258 C 
ATOM     16  O   UNL d   1      -1.714   2.770  -0.736  0.00  0.00    -0.267 OA
ATOM     17  N   UNL d   1       0.188   3.040  -1.881  0.00  0.00    -0.365 N 
ATOM     18  H   UNL d   1       1.176   2.867  -1.963  0.00  0.00     0.159 HD
ATOM     19  H   UNL d   1      -0.173   3.935  -2.178  0.00  0.00     0.159 HD
ENDBRANCH   1  15
BRANCH   4  20
ATOM     20  C   UNL d   1       0.019  -2.722  -0.069  0.00  0.00    -0.019 A 
ATOM     21  C   UNL d   1      -1.109  -3.255  -0.722  0.00  0.00     0.013 A 
ATOM     22  C   UNL d   1      -1.320  -4.633  -0.807  0.00  0.00     0.001 A 
ATOM     23  C   UNL d   1      -0.403  -5.512  -0.243  0.00  0.00     0.000 A 
ATOM     24  C   UNL d   1       0.719  -5.011   0.413  0.00  0.00     0.001 A 
ATOM     25  C   UNL d   1       0.927  -3.628   0.501  0.00  0.00     0.013 A 
ENDBRANCH   4  20
TORSDOF 4
