REMARK  7 active torsions:
REMARK  status: ('A' for Active; 'I' for Inactive)
REMARK    1  A    between atoms: C_10  and  N_1 
REMARK    2  A    between atoms: C_9  and  C_2 
REMARK    3  A    between atoms: C_7  and  C_13 
REMARK       I    between atoms: C_8  and  N_12 
REMARK       I    between atoms: N_11  and  C_8 
REMARK    4  A    between atoms: O_26  and  C_9 
REMARK    5  A    between atoms: C_23  and  N_11 
REMARK    6  A    between atoms: N_12  and  C_24 
REMARK    7  A    between atoms: C_32  and  O_26 
ROOT
ATOM      1  C   UNL d   1      -0.407  -2.515  -0.547  0.00  0.00     0.056 A 
ATOM      2  C   UNL d   1       0.579  -3.385  -0.038  0.00  0.00     0.034 A 
ATOM      3  C   UNL d   1      -1.562  -3.086  -1.072  0.00  0.00     0.034 A 
ATOM      4  C   UNL d   1      -0.874  -5.305  -0.326  0.00  0.00     0.036 A 
ATOM      5  C   UNL d   1      -1.789  -4.464  -0.962  0.00  0.00     0.032 A 
ATOM      6  C   UNL d   1       0.348  -4.765   0.069  0.00  0.00     0.032 A 
ENDROOT
BRANCH   4   7
ATOM      7  N   UNL d   1      -1.141  -6.660  -0.021  0.00  0.00    -0.309 N 
ATOM      8  C   UNL d   1      -2.374  -7.287  -0.131  0.00  0.00     0.325 C 
ATOM      9  N   UNL d   1      -2.330  -8.600   0.308  0.00  0.00    -0.309 N 
ATOM     10  O   UNL d   1      -3.388  -6.753  -0.563  0.00  0.00    -0.247 OA
ATOM     11  H   UNL d   1      -1.608  -8.844   0.967  0.00  0.00     0.170 HD
ATOM     12  H   UNL d   1      -0.389  -7.190   0.391  0.00  0.00     0.170 HD
BRANCH   9  13
ATOM     13  C   UNL d   1      -3.318  -9.578   0.044  0.00  0.00     0.036 A 
ATOM     14  C   UNL d   1      -4.298  -9.416  -0.939  0.00  0.00     0.030 A 
ATOM     15  C   UNL d   1      -5.157 -10.464  -1.278  0.00  0.00     0.018 A 
ATOM     16  C   UNL d   1      -5.049 -11.703  -0.640  0.00  0.00     0.048 A 
ATOM     17  C   UNL d   1      -4.121 -11.842   0.403  0.00  0.00     0.018 A 
ATOM     18  C   UNL d   1      -3.257 -10.790   0.738  0.00  0.00     0.030 A 
BRANCH  16  19
ATOM     19  C   UNL d   1      -5.870 -12.879  -1.106  0.00  0.00     0.417 C 
ATOM     20  F   UNL d   1      -6.627 -12.614  -2.207  0.00  0.00    -0.166 F 
ATOM     21  F   UNL d   1      -5.089 -13.944  -1.446  0.00  0.00    -0.166 F 
ATOM     22  F   UNL d   1      -6.732 -13.335  -0.158  0.00  0.00    -0.166 F 
ENDBRANCH  16  19
ENDBRANCH   9  13
ENDBRANCH   4   7
BRANCH   1  23
ATOM     23  N   UNL d   1      -0.197  -1.097  -0.457  0.00  0.00    -0.260 N 
ATOM     24  N   UNL d   1       1.001  -0.673   0.019  0.00  0.00    -0.297 N 
ATOM     25  C   UNL d   1       0.930   0.654   0.080  0.00  0.00     0.041 A 
ATOM     26  HN  UNL d   1       1.797  -1.255   0.280  1.00  0.00     0.187 HD
ATOM     27  C   UNL d   1       2.086   1.402   0.636  0.00  0.00     0.071 C 
ATOM     28  C   UNL d   1      -0.312   1.144  -0.400  0.00  0.00     0.087 A 
ATOM     29  C   UNL d   1      -1.044  -0.009  -0.696  0.00  0.00     0.049 A 
ATOM     30  C   UNL d   1      -2.469  -0.113  -1.116  0.00  0.00     0.071 C 
BRANCH  28  31
ATOM     31  C   UNL d   1      -0.746   2.536  -0.519  0.00  0.00     0.297 C 
ATOM     32  O   UNL d   1      -1.838   2.881  -0.962  0.00  0.00    -0.259 OA
BRANCH  31  33
ATOM     33  O   UNL d   1       0.205   3.416  -0.094  0.00  0.00    -0.318 OA
BRANCH  33  34
ATOM     34  C   UNL d   1      -0.109   4.809  -0.211  0.00  0.00     0.174 C 
ATOM     35  C   UNL d   1      -0.865   5.283   1.015  0.00  0.00     0.034 C 
ENDBRANCH  33  34
ENDBRANCH  31  33
ENDBRANCH  28  31
ENDBRANCH   1  23
TORSDOF 7
