REMARK  8 active torsions:
REMARK  status: ('A' for Active; 'I' for Inactive)
REMARK    1  A    between atoms: C_2  and  C_1 
REMARK       I    between atoms: N_3  and  C_1 
REMARK    2  A    between atoms: C_10  and  N_3 
REMARK    3  A    between atoms: C_5  and  C_10 
REMARK    4  A    between atoms: C_6  and  C_5 
REMARK    5  A    between atoms: O_13  and  C_6 
REMARK    6  A    between atoms: C_15  and  C_10 
REMARK    7  A    between atoms: S_14  and  C_16 
REMARK    8  A    between atoms: C_16  and  C_15 
ROOT
ATOM      1  C   UNL d   1      -1.318   0.843   0.929  0.00  0.00     0.095 C 
ENDROOT
BRANCH   1   2
ATOM      2  C   UNL d   1      -1.786  -0.449   1.621  0.00  0.00     0.135 C 
BRANCH   2   3
ATOM      3  C   UNL d   1      -3.279  -0.660   1.699  0.00  0.00     0.141 C 
ATOM      4  O   UNL d   1      -3.884  -1.237   2.594  0.00  0.00    -0.650 OA
BRANCH   3   5
ATOM      5  O   UNL d   1      -3.854  -0.257   0.546  0.00  0.00    -0.776 OA
ATOM      6  H   UNL d   1      -4.511  -0.959   0.337  0.00  0.00     0.167 HD
ENDBRANCH   3   5
ENDBRANCH   2   3
ENDBRANCH   1   2
BRANCH   1   7
ATOM      7  N   UNL d   1       0.150   0.823   0.808  0.00  0.00    -0.351 N 
ATOM      8  C   UNL d   1       0.863   0.964  -0.358  0.00  0.00     0.258 C 
ATOM      9  O   UNL d   1       0.305   0.996  -1.467  0.00  0.00    -0.267 OA
ATOM     10  H   UNL d   1       0.692   0.778   1.672  0.00  0.00     0.163 HD
BRANCH   8  11
ATOM     11  C   UNL d   1       2.313   1.108  -0.210  0.00  0.00     0.072 A 
ATOM     12  S   UNL d   1       3.064   1.281   1.329  0.00  0.00    -0.097 SA
ATOM     13  C   UNL d   1       4.609   1.561   0.638  0.00  0.00     0.050 A 
ATOM     14  C   UNL d   1       4.582   1.453  -0.733  0.00  0.00     0.009 A 
ATOM     15  C   UNL d   1       3.270   1.169  -1.218  0.00  0.00     0.025 A 
ENDBRANCH   8  11
ENDBRANCH   1   7
BRANCH   1  16
ATOM     16  C   UNL d   1      -1.777   2.063   1.760  0.00  0.00     0.036 C 
BRANCH  16  17
ATOM     17  C   UNL d   1      -1.376   3.399   1.138  0.00  0.00     0.075 C 
BRANCH  17  18
ATOM     18  S   UNL d   1      -1.916   4.772   2.210  0.00  0.00    -0.173 SA
ATOM     19  C   UNL d   1      -1.278   6.143   1.216  0.00  0.00     0.089 C 
ENDBRANCH  17  18
ENDBRANCH  16  17
ENDBRANCH   1  16
TORSDOF 8
