REMARK  2 active torsions:
REMARK  status: ('A' for Active; 'I' for Inactive)
REMARK    1  A    between atoms: C_3  and  C_1 
REMARK    2  A    between atoms: N_4  and  C_2 
REMARK       I    between atoms: N_6  and  C_3 
ROOT
ATOM      1  C   UNL d   1      -0.415  -0.927  -0.899  0.00  0.00     0.053 A 
ATOM      2  C   UNL d   1       0.653  -1.393  -0.088  0.00  0.00     0.026 A 
ATOM      3  C   UNL d   1      -0.600   0.451  -1.139  0.00  0.00     0.019 A 
ATOM      4  C   UNL d   1       1.503  -0.404   0.454  0.00  0.00     0.025 A 
ATOM      5  C   UNL d   1       0.248   1.392  -0.567  0.00  0.00     0.001 A 
ATOM      6  C   UNL d   1       1.302   0.963   0.227  0.00  0.00     0.002 A 
ENDROOT
BRANCH   2   7
ATOM      7  N   UNL d   1       0.846  -2.764   0.205  0.00  0.00    -0.283 NA
ATOM      8  C   UNL d   1       1.619  -3.096   1.417  0.00  0.00     0.095 C 
ATOM      9  C   UNL d   1       1.338  -4.546   1.806  0.00  0.00     0.015 C 
ATOM     10  C   UNL d   1       1.647  -5.501   0.655  0.00  0.00     0.002 C 
ATOM     11  C   UNL d   1       0.949  -5.061  -0.632  0.00  0.00     0.015 C 
ATOM     12  C   UNL d   1       1.244  -3.591  -0.959  0.00  0.00     0.095 C 
ENDBRANCH   2   7
BRANCH   1  13
ATOM     13  C   UNL d   1      -1.460  -1.802  -1.504  0.00  0.00     0.251 C 
ATOM     14  O   UNL d   1      -1.991  -1.534  -2.577  0.00  0.00    -0.268 OA
ATOM     15  N   UNL d   1      -1.822  -2.912  -0.796  0.00  0.00    -0.366 N 
ATOM     16  H   UNL d   1      -1.232  -3.198  -0.021  0.00  0.00     0.159 HD
ATOM     17  H   UNL d   1      -2.401  -3.592  -1.261  0.00  0.00     0.159 HD
ENDBRANCH   1  13
TORSDOF 2
