REMARK  4 active torsions:
REMARK  status: ('A' for Active; 'I' for Inactive)
REMARK    1  A    between atoms: C_10  and  N_2 
REMARK    2  A    between atoms: C_6  and  C_3 
REMARK    3  A    between atoms: N_8  and  C_6 
REMARK    4  A    between atoms: C_11  and  N_8 
ROOT
ATOM      1  C   UNL d   1      -2.518  -0.730  -0.086  0.00  0.00     0.080 A 
ATOM      2  N   UNL d   1      -1.200  -1.210   0.015  0.00  0.00    -0.340 N 
ATOM      3  C   UNL d   1      -3.724  -1.326  -0.166  0.00  0.00     0.079 C 
ATOM      4  S   UNL d   1      -2.618   1.075  -0.174  0.00  0.00    -0.070 SA
ATOM      5  C   UNL d   1      -0.264  -0.139  -0.013  0.00  0.00     0.052 A 
ATOM      6  C   UNL d   1      -0.844   1.139  -0.157  0.00  0.00     0.034 A 
ATOM      7  C   UNL d   1       1.125  -0.214   0.066  0.00  0.00     0.031 A 
ATOM      8  C   UNL d   1      -0.090   2.304  -0.237  0.00  0.00     0.021 A 
ATOM      9  C   UNL d   1       1.899   0.953  -0.022  0.00  0.00     0.002 A 
ATOM     10  C   UNL d   1       1.296   2.204  -0.174  0.00  0.00     0.002 A 
ENDROOT
BRANCH   2  11
ATOM     11  C   UNL d   1      -0.796  -2.450   0.685  0.00  0.00     0.125 C 
ATOM     12  C   UNL d   1      -0.015  -3.391  -0.224  0.00  0.00     0.027 C 
ENDBRANCH   2  11
BRANCH   3  13
ATOM     13  C   UNL d   1      -4.180  -2.736  -0.363  0.00  0.00     0.103 C 
ATOM     14  S   UNL d   1      -3.441  -3.869  -1.352  0.00  0.00    -0.060 SA
BRANCH  13  15
ATOM     15  N   UNL d   1      -5.353  -2.945   0.364  0.00  0.00    -0.347 N 
ATOM     16  H   UNL d   1      -5.482  -2.375   1.194  0.00  0.00     0.167 HD
BRANCH  15  17
ATOM     17  C   UNL d   1      -6.499  -3.696   0.003  0.00  0.00     0.033 A 
ATOM     18  C   UNL d   1      -7.440  -3.966   1.004  0.00  0.00     0.029 A 
ATOM     19  C   UNL d   1      -8.627  -4.641   0.702  0.00  0.00     0.002 A 
ATOM     20  C   UNL d   1      -8.898  -5.029  -0.610  0.00  0.00     0.000 A 
ATOM     21  C   UNL d   1      -7.982  -4.739  -1.616  0.00  0.00     0.002 A 
ATOM     22  C   UNL d   1      -6.791  -4.074  -1.311  0.00  0.00     0.029 A 
ENDBRANCH  15  17
ENDBRANCH  13  15
ENDBRANCH   3  13
TORSDOF 4
