REMARK  5 active torsions:
REMARK  status: ('A' for Active; 'I' for Inactive)
REMARK    1  A    between atoms: N_3  and  S_1 
REMARK    2  A    between atoms: C_14  and  S_1 
REMARK    3  A    between atoms: C_2  and  N_3 
REMARK    4  A    between atoms: N_9  and  C_4 
REMARK    5  A    between atoms: C_15  and  N_9 
ROOT
ATOM      1  C   UNL d   1       1.002  -0.177  -2.625  0.00  0.00     0.139 A 
ATOM      2  C   UNL d   1      -0.044  -0.214  -3.564  0.00  0.00     0.146 A 
ATOM      3  N   UNL d   1       2.242   0.277  -2.895  0.00  0.00    -0.341 N 
ATOM      4  HN  UNL d   1       2.967   0.332  -2.180  1.00  0.00     0.167 HD
ATOM      5  N   UNL d   1       0.186   0.215  -4.826  0.00  0.00    -0.338 N 
ATOM      6  HN  UNL d   1      -0.562   0.234  -5.520  1.00  0.00     0.167 HD
ATOM      7  C   UNL d   1       2.461   0.654  -4.166  0.00  0.00     0.060 A 
ATOM      8  C   UNL d   1       1.430   0.617  -5.137  0.00  0.00     0.060 A 
ATOM      9  C   UNL d   1       3.734   1.054  -4.552  0.00  0.00     0.032 A 
ATOM     10  C   UNL d   1       1.717   0.976  -6.446  0.00  0.00     0.032 A 
ATOM     11  C   UNL d   1       4.013   1.407  -5.873  0.00  0.00     0.002 A 
ATOM     12  C   UNL d   1       3.002   1.367  -6.824  0.00  0.00     0.002 A 
ENDROOT
BRANCH   1  13
ATOM     13  N   UNL d   1       0.934  -0.755  -1.330  0.00  0.00    -0.163 NA
ATOM     14  H   UNL d   1       1.612  -0.312  -0.714  0.00  0.00     0.147 HD
BRANCH  13  15
ATOM     15  S   UNL d   1       1.162  -2.432  -1.330  0.00  0.00     0.247 S 
ATOM     16  O   UNL d   1       0.200  -3.014  -2.245  0.00  0.00    -0.205 OA
ATOM     17  O   UNL d   1       1.220  -2.847   0.054  0.00  0.00    -0.205 OA
BRANCH  15  18
ATOM     18  C   UNL d   1       2.799  -2.623  -2.010  0.00  0.00     0.074 A 
ATOM     19  C   UNL d   1       3.909  -2.390  -1.189  0.00  0.00     0.025 A 
ATOM     20  C   UNL d   1       5.191  -2.458  -1.733  0.00  0.00     0.002 A 
ATOM     21  C   UNL d   1       5.361  -2.769  -3.083  0.00  0.00     0.000 A 
ATOM     22  C   UNL d   1       4.252  -3.030  -3.890  0.00  0.00     0.002 A 
ATOM     23  C   UNL d   1       2.965  -2.969  -3.354  0.00  0.00     0.025 A 
ENDBRANCH  15  18
ENDBRANCH  13  15
ENDBRANCH   1  13
BRANCH   2  24
ATOM     24  N   UNL d   1      -1.329  -0.681  -3.201  0.00  0.00    -0.340 N 
ATOM     25  H   UNL d   1      -1.255  -1.635  -2.841  0.00  0.00     0.167 HD
BRANCH  24  26
ATOM     26  C   UNL d   1      -2.533  -0.403  -3.881  0.00  0.00     0.033 A 
ATOM     27  C   UNL d   1      -3.560  -1.355  -3.925  0.00  0.00     0.031 A 
ATOM     28  C   UNL d   1      -4.768  -1.075  -4.575  0.00  0.00     0.026 A 
ATOM     29  C   UNL d   1      -4.968   0.171  -5.166  0.00  0.00     0.034 A 
ATOM     30  C   UNL d   1      -3.974   1.141  -5.108  0.00  0.00     0.026 A 
ATOM     31 CL   UNL d   1      -6.452   0.516  -5.966  0.00  0.00    -0.084 Cl
ATOM     32  C   UNL d   1      -2.769   0.853  -4.464  0.00  0.00     0.031 A 
ENDBRANCH  24  26
ENDBRANCH   2  24
TORSDOF 5
