REMARK  8 active torsions:
REMARK  status: ('A' for Active; 'I' for Inactive)
REMARK    1  A    between atoms: C_7  and  N_1 
REMARK    2  A    between atoms: C_6  and  C_2 
REMARK    3  A    between atoms: C_3  and  C_9 
REMARK       I    between atoms: N_4  and  C_3 
REMARK    4  A    between atoms: C_5  and  N_4 
REMARK       I    between atoms: N_18  and  C_6 
REMARK    5  A    between atoms: N_10  and  C_20 
REMARK    6  A    between atoms: C_25  and  N_18 
REMARK    7  A    between atoms: C_20  and  C_21 
REMARK    8  A    between atoms: C_21  and  C_25 
ROOT
ATOM      1  C   UNL d   1      -2.911   2.567   3.603  0.00  0.00     0.058 A 
ATOM      2  C   UNL d   1      -3.670   1.520   4.184  0.00  0.00     0.050 A 
ATOM      3  C   UNL d   1      -3.543   3.469   2.719  0.00  0.00     0.019 A 
ATOM      4  C   UNL d   1      -5.026   1.402   3.849  0.00  0.00     0.030 A 
ATOM      5  C   UNL d   1      -4.910   3.387   2.472  0.00  0.00     0.001 A 
ATOM      6  C   UNL d   1      -5.648   2.348   3.025  0.00  0.00     0.002 A 
ENDROOT
BRANCH   1   7
ATOM      7  C   UNL d   1      -1.435   2.694   3.851  0.00  0.00     0.253 C 
ATOM      8  O   UNL d   1      -0.787   1.745   4.278  0.00  0.00    -0.268 OA
ATOM      9  N   UNL d   1      -0.874   3.929   3.595  0.00  0.00    -0.357 N 
ATOM     10  H   UNL d   1      -1.430   4.691   3.239  0.00  0.00     0.162 HD
BRANCH   9  11
ATOM     11  C   UNL d   1       0.546   4.204   3.688  0.00  0.00     0.124 C 
BRANCH  11  12
ATOM     12  C   UNL d   1       1.264   4.006   2.353  0.00  0.00     0.050 C 
BRANCH  12  13
ATOM     13  C   UNL d   1       0.761   4.913   1.214  0.00  0.00     0.274 C 
BRANCH  13  14
ATOM     14  N   UNL d   1       0.841   6.365   1.476  0.00  0.00     0.088 N 
ATOM     15  C   UNL d   1       2.236   6.816   1.641  0.00  0.00     0.272 C 
ATOM     16  C   UNL d   1       2.319   8.318   1.919  0.00  0.00     0.030 C 
ATOM     17  C   UNL d   1       1.633   9.123   0.825  0.00  0.00     0.003 C 
ATOM     18  C   UNL d   1       0.210   8.619   0.625  0.00  0.00     0.030 C 
ATOM     19  C   UNL d   1       0.187   7.109   0.379  0.00  0.00     0.272 C 
ENDBRANCH  13  14
ENDBRANCH  12  13
ENDBRANCH  11  12
ENDBRANCH   9  11
ENDBRANCH   1   7
BRANCH   2  20
ATOM     20  N   UNL d   1      -3.132   0.683   5.206  0.00  0.00    -0.322 N 
ATOM     21  C   UNL d   1      -3.299  -0.698   5.245  0.00  0.00     0.256 C 
ATOM     22  O   UNL d   1      -3.842  -1.351   4.357  0.00  0.00    -0.267 OA
ATOM     23  H   UNL d   1      -2.289   1.038   5.650  0.00  0.00     0.169 HD
BRANCH  21  24
ATOM     24  C   UNL d   1      -2.670  -1.431   6.406  0.00  0.00     0.032 A 
ATOM     25  C   UNL d   1      -2.194  -0.782   7.559  0.00  0.00     0.019 A 
ATOM     26  C   UNL d   1      -1.483  -1.496   8.538  0.00  0.00     0.037 A 
ATOM     27  C   UNL d   1      -1.290  -2.875   8.387  0.00  0.00     0.102 A 
ATOM     28  C   UNL d   1      -1.852  -3.557   7.299  0.00  0.00     0.037 A 
ATOM     29  C   UNL d   1      -2.536  -2.829   6.315  0.00  0.00     0.019 A 
BRANCH  27  30
ATOM     30  N   UNL d   1      -0.488  -3.620   9.374  0.00  0.00    -0.116 N 
ATOM     31  O   UNL d   1      -0.348  -4.832   9.219  0.00  0.00    -0.532 OA
ATOM     32  O   UNL d   1       0.025  -2.961  10.302  0.00  0.00    -0.532 OA
ENDBRANCH  27  30
ENDBRANCH  21  24
ENDBRANCH   2  20
TORSDOF 8
