REMARK  5 active torsions:
REMARK  status: ('A' for Active; 'I' for Inactive)
REMARK    1  A    between atoms: C_17  and  N_1 
REMARK    2  A    between atoms: N_7  and  C_9 
REMARK    3  A    between atoms: N_15  and  C_22 
REMARK    4  A    between atoms: C_19  and  C_17 
REMARK    5  A    between atoms: C_22  and  C_19 
ROOT
ATOM      1  N   UNL d   1       2.260  -0.279   0.231  0.00  0.00    -0.280 N 
ATOM      2  C   UNL d   1       1.477  -0.757   1.275  0.00  0.00     0.261 C 
ATOM      3  C   UNL d   1       1.743   0.400  -0.871  0.00  0.00     0.261 C 
ATOM      4  C   UNL d   1       0.015  -0.794   1.065  0.00  0.00     0.044 A 
ATOM      5  C   UNL d   1      -0.546  -0.261  -0.105  0.00  0.00     0.008 A 
ATOM      6  C   UNL d   1       0.273   0.344  -1.070  0.00  0.00     0.044 A 
ATOM      7  C   UNL d   1      -1.951  -0.323  -0.310  0.00  0.00     0.009 A 
ATOM      8  C   UNL d   1      -2.731  -0.934   0.708  0.00  0.00     0.114 A 
ATOM      9  C   UNL d   1      -0.793  -1.378   2.056  0.00  0.00     0.020 A 
ATOM     10  C   UNL d   1      -2.167  -1.448   1.883  0.00  0.00     0.038 A 
ATOM     11  O   UNL d   1       2.424   1.042  -1.665  0.00  0.00    -0.267 OA
ATOM     12  O   UNL d   1       1.933  -1.139   2.352  0.00  0.00    -0.267 OA
ATOM     13  C   UNL d   1      -0.275   0.898  -2.234  0.00  0.00     0.018 A 
ATOM     14  C   UNL d   1      -2.473   0.238  -1.506  0.00  0.00     0.015 A 
ATOM     15  C   UNL d   1      -1.645   0.840  -2.453  0.00  0.00     0.002 A 
ENDROOT
BRANCH   1  16
ATOM     16  C   UNL d   1       3.712  -0.289   0.423  0.00  0.00     0.137 C 
BRANCH  16  17
ATOM     17  C   UNL d   1       4.311  -1.710   0.439  0.00  0.00     0.040 C 
BRANCH  17  18
ATOM     18  C   UNL d   1       5.834  -1.632   0.571  0.00  0.00     0.118 C 
BRANCH  18  19
ATOM     19  N   UNL d   1       6.572  -2.887   0.604  0.00  0.00    -0.408 N 
ATOM     20  C   UNL d   1       6.388  -3.805  -0.521  0.00  0.00     0.143 C 
ATOM     21  C   UNL d   1       5.481  -5.006  -0.221  0.00  0.00     0.187 C 
ATOM     22  O   UNL d   1       5.926  -5.703   0.946  0.00  0.00    -0.388 OA
ATOM     23  C   UNL d   1       5.852  -4.836   2.083  0.00  0.00     0.187 C 
ATOM     24  C   UNL d   1       6.694  -3.562   1.899  0.00  0.00     0.143 C 
ENDBRANCH  18  19
ENDBRANCH  17  18
ENDBRANCH  16  17
ENDBRANCH   1  16
BRANCH   8  25
ATOM     25  N   UNL d   1      -4.173  -1.046   0.578  0.00  0.00    -0.115 N 
ATOM     26  O   UNL d   1      -4.606  -1.706  -0.375  0.00  0.00    -0.532 OA
ATOM     27  O   UNL d   1      -4.860  -0.493   1.446  0.00  0.00    -0.532 OA
ENDBRANCH   8  25
TORSDOF 5
