REMARK  2 active torsions:
REMARK  status: ('A' for Active; 'I' for Inactive)
REMARK    1  A    between atoms: C_2  and  C_1 
REMARK    2  A    between atoms: O_9  and  C_2 
ROOT
ATOM      1  C   UNL d   1       2.333   1.310  -0.021  0.00  0.00     0.054 A 
ATOM      2  N   UNL d   1       2.393  -1.111  -0.036  0.00  0.00    -0.373 N 
ATOM      3  HN  UNL d   1       2.922  -1.983  -0.048  1.00  0.00     0.164 HD
ATOM      4  C   UNL d   1       0.935   1.290  -0.013  0.00  0.00     0.040 A 
ATOM      5  C   UNL d   1       3.011   0.096  -0.015  0.00  0.00     0.105 A 
ATOM      6  C   UNL d   1       0.282   0.060  -0.028  0.00  0.00     0.027 A 
ATOM      7 BR   UNL d   1      -1.602  -0.021  -0.019  0.00  0.00    -0.050 Br
ATOM      8  C   UNL d   1       1.039  -1.103  -0.041  0.00  0.00     0.106 A 
ENDROOT
BRANCH   1   9
ATOM      9  C   UNL d   1       3.131   2.551   0.019  0.00  0.00     0.177 C 
ATOM     10  O   UNL d   1       4.242   2.597   0.519  0.00  0.00    -0.646 OA
BRANCH   9  11
ATOM     11  O   UNL d   1       2.545   3.613  -0.570  0.00  0.00    -0.773 OA
ATOM     12  H   UNL d   1       1.745   3.432  -1.096  0.00  0.00     0.167 HD
ENDBRANCH   9  11
ENDBRANCH   1   9
TORSDOF 2
