REMARK  4 active torsions:
REMARK  status: ('A' for Active; 'I' for Inactive)
REMARK    1  A    between atoms: C_5  and  C_1 
REMARK    2  A    between atoms: N_8  and  C_2 
REMARK    3  A    between atoms: O_9  and  C_5 
REMARK    4  A    between atoms: C_11  and  O_9 
ROOT
ATOM      1  C   UNL d   1       0.977  -0.688   0.006  0.00  0.00     0.079 A 
ATOM      2  C   UNL d   1       1.041   0.702   0.106  0.00  0.00     0.084 A 
ATOM      3  S   UNL d   1      -0.494   1.432   0.186  0.00  0.00    -0.083 SA
ATOM      4  C   UNL d   1      -0.411  -1.144   0.071  0.00  0.00    -0.036 A 
ATOM      5  C   UNL d   1      -1.282  -0.069   0.141  0.00  0.00     0.059 A 
ATOM      6  C   UNL d   1      -0.934  -2.546   0.040  0.00  0.00     0.050 C 
ENDROOT
BRANCH   1   7
ATOM      7  C   UNL d   1       2.200  -1.486  -0.175  0.00  0.00     0.296 C 
ATOM      8  O   UNL d   1       3.315  -0.993  -0.326  0.00  0.00    -0.259 OA
BRANCH   7   9
ATOM      9  O   UNL d   1       1.969  -2.826  -0.234  0.00  0.00    -0.318 OA
BRANCH   9  10
ATOM     10  C   UNL d   1       3.051  -3.640  -0.696  0.00  0.00     0.174 C 
ATOM     11  C   UNL d   1       2.971  -3.731  -2.208  0.00  0.00     0.034 C 
ENDBRANCH   9  10
ENDBRANCH   7   9
ENDBRANCH   1   7
BRANCH   2  12
ATOM     12  N   UNL d   1       2.147   1.480   0.131  0.00  0.00    -0.393 N 
ATOM     13  H   UNL d   1       3.054   1.073  -0.104  0.00  0.00     0.156 HD
ATOM     14  H   UNL d   1       2.069   2.477  -0.037  0.00  0.00     0.156 HD
ENDBRANCH   2  12
TORSDOF 4
