REMARK  6 active torsions:
REMARK  status: ('A' for Active; 'I' for Inactive)
REMARK    1  A    between atoms: C_2  and  N_1 
REMARK    2  A    between atoms: C_3  and  C_2 
REMARK    3  A    between atoms: S_4  and  C_3 
REMARK    4  A    between atoms: C_6  and  C_3 
REMARK    5  A    between atoms: C_8  and  S_4 
REMARK    6  A    between atoms: N_18  and  C_15 
ROOT
ATOM      1  C   UNL d   1       1.190  -1.318   2.084  0.00  0.00     0.109 C 
ENDROOT
BRANCH   1   2
ATOM      2  C   UNL d   1       0.186  -0.702   1.097  0.00  0.00     0.221 C 
BRANCH   2   3
ATOM      3  N   UNL d   1       0.873   0.133   0.066  0.00  0.00    -0.154 N 
ATOM      4  O   UNL d   1       0.560   1.325   0.007  0.00  0.00    -0.536 OA
ATOM      5  O   UNL d   1       1.660  -0.446  -0.694  0.00  0.00    -0.536 OA
ENDBRANCH   2   3
ENDBRANCH   1   2
BRANCH   1   6
ATOM      6  S   UNL d   1       2.341  -0.041   2.855  0.00  0.00    -0.117 SA
BRANCH   6   7
ATOM      7  C   UNL d   1       1.268   0.822   4.007  0.00  0.00     0.022 C 
ATOM      8  C   UNL d   1       1.450   0.719   5.402  0.00  0.00     0.022 C 
ATOM      9  C   UNL d   1       0.501   1.303   6.250  0.00  0.00     0.024 C 
ATOM     10  C   UNL d   1      -0.527   2.093   5.735  0.00  0.00     0.002 C 
ATOM     11  C   UNL d   1      -0.622   2.303   4.366  0.00  0.00     0.001 C 
ATOM     12  C   UNL d   1       0.279   1.681   3.507  0.00  0.00     0.020 C 
BRANCH   8  13
ATOM     13  N   UNL d   1       2.432  -0.120   5.971  0.00  0.00    -0.302 NA
ATOM     14  H   UNL d   1       3.234  -0.223   5.353  0.00  0.00     0.124 HD
ATOM     15  H   UNL d   1       2.700   0.149   6.912  0.00  0.00     0.124 HD
ENDBRANCH   8  13
ENDBRANCH   6   7
ENDBRANCH   1   6
BRANCH   1  16
ATOM     16  C   UNL d   1       0.517  -2.255   3.109  0.00  0.00    -0.039 A 
ATOM     17  C   UNL d   1      -0.742  -2.840   2.858  0.00  0.00     0.048 A 
ATOM     18  C   UNL d   1      -1.316  -3.645   3.824  0.00  0.00     0.105 A 
ATOM     19  O   UNL d   1      -2.522  -4.265   3.716  0.00  0.00    -0.323 OA
ATOM     20  C   UNL d   1      -0.702  -3.898   5.022  0.00  0.00     0.105 A 
ATOM     21  C   UNL d   1      -2.577  -4.966   4.978  0.00  0.00     0.352 A 
ATOM     22  O   UNL d   1      -1.450  -4.687   5.835  0.00  0.00    -0.323 OA
ATOM     23  C   UNL d   1       0.544  -3.398   5.299  0.00  0.00     0.040 A 
ATOM     24  C   UNL d   1       1.166  -2.616   4.317  0.00  0.00     0.011 A 
ENDBRANCH   1  16
TORSDOF 6
