REMARK  3 active torsions:
REMARK  status: ('A' for Active; 'I' for Inactive)
REMARK    1  A    between atoms: C_10  and  C_3 
REMARK    2  A    between atoms: N_6  and  C_9 
REMARK    3  A    between atoms: C_14  and  C_8 
ROOT
ATOM      1  N   UNL d   1       1.587  -0.084  -0.045  0.00  0.00    -0.331 N 
ATOM      2  HN  UNL d   1       2.532  -0.466  -0.090  1.00  0.00     0.168 HD
ATOM      3  C   UNL d   1       1.217   1.156  -0.005  0.00  0.00     0.162 A 
ATOM      4  C   UNL d   1       0.392  -0.756  -0.013  0.00  0.00     0.111 A 
ATOM      5  O   UNL d   1      -0.109   1.418   0.046  0.00  0.00    -0.256 OA
ATOM      6  C   UNL d   1      -0.742   0.214   0.051  0.00  0.00     0.316 A 
ATOM      7  C   UNL d   1       0.293  -2.092  -0.031  0.00  0.00     0.047 C 
ATOM      8  O   UNL d   1      -1.941   0.028   0.106  0.00  0.00    -0.257 OA
ENDROOT
BRANCH   7   9
ATOM      9  C   UNL d   1      -0.974  -2.818  -0.017  0.00  0.00    -0.032 A 
ATOM     10  C   UNL d   1      -1.603  -3.125  -1.228  0.00  0.00     0.047 A 
ATOM     11  C   UNL d   1      -2.855  -3.752  -1.214  0.00  0.00     0.103 A 
ATOM     12  C   UNL d   1      -3.474  -4.089  -0.004  0.00  0.00     0.036 A 
ATOM     13  C   UNL d   1      -2.834  -3.792   1.201  0.00  0.00     0.003 A 
ATOM     14  C   UNL d   1      -1.590  -3.157   1.194  0.00  0.00     0.011 A 
BRANCH  11  15
ATOM     15  N   UNL d   1      -3.528  -4.042  -2.484  0.00  0.00    -0.116 N 
ATOM     16  O   UNL d   1      -2.948  -3.725  -3.533  0.00  0.00    -0.532 OA
ATOM     17  O   UNL d   1      -4.637  -4.595  -2.436  0.00  0.00    -0.532 OA
ENDBRANCH  11  15
ENDBRANCH   7   9
BRANCH   3  18
ATOM     18  C   UNL d   1       2.090   2.338   0.024  0.00  0.00     0.016 A 
ATOM     19  C   UNL d   1       1.555   3.629   0.135  0.00  0.00     0.022 A 
ATOM     20  C   UNL d   1       2.402   4.739   0.238  0.00  0.00    -0.061 A 
ATOM     21  C   UNL d   1       1.838   6.119   0.411  0.00  0.00     0.048 C 
ATOM     22  C   UNL d   1       3.789   4.545   0.210  0.00  0.00     0.007 A 
ATOM     23  C   UNL d   1       4.323   3.263   0.078  0.00  0.00     0.002 A 
ATOM     24  C   UNL d   1       3.476   2.159  -0.013  0.00  0.00     0.016 A 
ENDBRANCH   3  18
TORSDOF 3
