REMARK  0 active torsions:
REMARK  status: ('A' for Active; 'I' for Inactive)
ROOT
ATOM      1  C   UNL d   1       2.657  -0.552  -0.191  0.00  0.00     0.084 A 
ATOM      2  C   UNL d   1       3.994  -1.070  -0.178  0.00  0.00     0.122 A 
ATOM      3  N   UNL d   1       4.551  -2.156  -0.701  0.00  0.00    -0.340 N 
ATOM      4  HN  UNL d   1       4.097  -2.855  -1.289  1.00  0.00     0.167 HD
ATOM      5  C   UNL d   1       2.350   0.747   0.492  0.00  0.00     0.302 A 
ATOM      6  C   UNL d   1       1.669  -1.240  -0.791  0.00  0.00     0.035 A 
ATOM      7  O   UNL d   1       1.038   1.174   0.503  0.00  0.00    -0.272 OA
ATOM      8  N   UNL d   1       4.948  -0.362   0.517  0.00  0.00    -0.340 N 
ATOM      9  C   UNL d   1       0.290  -0.749  -0.768  0.00  0.00     0.002 A 
ATOM     10  C   UNL d   1       0.007   0.445  -0.108  0.00  0.00     0.111 A 
ATOM     11  C   UNL d   1       5.875  -2.148  -0.284  0.00  0.00     0.061 A 
ATOM     12  C   UNL d   1       6.129  -1.037   0.500  0.00  0.00     0.061 A 
ATOM     13  C   UNL d   1      -1.292   0.956  -0.027  0.00  0.00     0.070 A 
ATOM     14  C   UNL d   1       6.932  -3.046  -0.514  0.00  0.00     0.039 A 
ATOM     15  C   UNL d   1       7.350  -0.756   1.105  0.00  0.00     0.039 A 
ATOM     16  C   UNL d   1      -2.339   0.266  -0.623  0.00  0.00     0.050 A 
ATOM     17  C   UNL d   1       8.393  -1.671   0.905  0.00  0.00    -0.054 A 
ATOM     18  C   UNL d   1       8.199  -2.799   0.076  0.00  0.00    -0.054 A 
ATOM     19  C   UNL d   1      -0.767  -1.438  -1.369  0.00  0.00     0.038 A 
ATOM     20  O   UNL d   1       3.221   1.420   1.039  0.00  0.00    -0.259 OA
ATOM     21  C   UNL d   1      -2.071  -0.927  -1.293  0.00  0.00     0.036 A 
ATOM     22 CL   UNL d   1      -1.628   2.429   0.805  0.00  0.00    -0.081 Cl
ATOM     23 CL   UNL d   1      -3.368  -1.784  -2.032  0.00  0.00    -0.084 Cl
ATOM     24  C   UNL d   1       9.329  -3.764  -0.171  0.00  0.00     0.049 C 
ATOM     25  C   UNL d   1       9.705  -1.405   1.595  0.00  0.00     0.049 C 
ATOM     26  H   UNL d   1       4.784   0.515   1.000  0.00  0.00     0.167 HD
ENDROOT
TORSDOF 0
