REMARK  4 active torsions:
REMARK  status: ('A' for Active; 'I' for Inactive)
REMARK    1  A    between atoms: C_9  and  N_1 
REMARK    2  A    between atoms: C_10  and  C_6 
REMARK    3  A    between atoms: C_13  and  N_7 
REMARK    4  A    between atoms: O_18  and  C_10 
ROOT
ATOM      1  N   UNL d   1       0.402  -1.072   0.226  0.00  0.00    -0.257 N 
ATOM      2  C   UNL d   1      -0.954  -0.842   0.451  0.00  0.00     0.160 C 
ATOM      3  C   UNL d   1       0.185   1.195  -0.441  0.00  0.00     0.082 C 
ATOM      4  C   UNL d   1       1.087   0.017  -0.324  0.00  0.00     0.271 C 
ATOM      5  S   UNL d   1      -1.266   0.884   0.392  0.00  0.00    -0.048 SA
ATOM      6  C   UNL d   1       0.517   2.280  -1.149  0.00  0.00     0.106 C 
ATOM      7  N   UNL d   1      -1.842  -1.752   0.685  0.00  0.00    -0.336 N 
ATOM      8  HN  UNL d   1      -1.528  -2.722   0.729  1.00  0.00     0.168 HD
ATOM      9  O   UNL d   1       2.231   0.065  -0.758  0.00  0.00    -0.266 OA
ENDROOT
BRANCH   1  10
ATOM     10  C   UNL d   1       1.075  -2.317   0.520  0.00  0.00     0.045 A 
ATOM     11  C   UNL d   1       2.466  -2.346   0.751  0.00  0.00     0.032 A 
ATOM     12  C   UNL d   1       3.134  -3.522   1.125  0.00  0.00     0.026 A 
ATOM     13  C   UNL d   1       2.424  -4.704   1.275  0.00  0.00     0.034 A 
ATOM     14  C   UNL d   1       1.057  -4.719   1.036  0.00  0.00     0.026 A 
ATOM     15 CL   UNL d   1       3.230  -6.140   1.767  0.00  0.00    -0.084 Cl
ATOM     16  C   UNL d   1       0.395  -3.539   0.660  0.00  0.00     0.032 A 
ENDBRANCH   1  10
BRANCH   7  17
ATOM     17  C   UNL d   1      -3.210  -1.499   0.883  0.00  0.00     0.034 A 
ATOM     18  C   UNL d   1      -3.989  -0.707   0.028  0.00  0.00     0.031 A 
ATOM     19  C   UNL d   1      -5.343  -0.479   0.289  0.00  0.00     0.026 A 
ATOM     20  C   UNL d   1      -5.951  -1.108   1.370  0.00  0.00     0.034 A 
ATOM     21  C   UNL d   1      -5.216  -1.964   2.186  0.00  0.00     0.026 A 
ATOM     22 CL   UNL d   1      -7.619  -0.840   1.688  0.00  0.00    -0.084 Cl
ATOM     23  C   UNL d   1      -3.850  -2.151   1.942  0.00  0.00     0.031 A 
ENDBRANCH   7  17
BRANCH   6  24
ATOM     24  C   UNL d   1      -0.409   3.399  -1.399  0.00  0.00     0.283 C 
ATOM     25  O   UNL d   1      -1.626   3.321  -1.432  0.00  0.00    -0.260 OA
BRANCH  24  26
ATOM     26  O   UNL d   1       0.323   4.520  -1.613  0.00  0.00    -0.323 OA
ATOM     27  C   UNL d   1      -0.477   5.679  -1.855  0.00  0.00     0.213 C 
ENDBRANCH  24  26
ENDBRANCH   6  24
TORSDOF 4
