REMARK  11 active torsions:
REMARK  status: ('A' for Active; 'I' for Inactive)
REMARK    1  A    between atoms: N_3  and  C_1 
REMARK    2  A    between atoms: N_4  and  C_1 
REMARK    3  A    between atoms: C_2  and  N_5 
REMARK    4  A    between atoms: N_10  and  C_2 
REMARK    5  A    between atoms: C_8  and  N_3 
REMARK    6  A    between atoms: N_5  and  N_4 
REMARK    7  A    between atoms: C_16  and  N_10 
REMARK    8  A    between atoms: S_12  and  C_11 
REMARK    9  A    between atoms: C_13  and  C_16 
REMARK   10  A    between atoms: C_18  and  C_13 
REMARK   11  A    between atoms: O_14  and  C_18 
ROOT
ATOM      1  N   UNL d   1       0.113  -0.957  -0.404  0.00  0.00    -0.274 N 
ATOM      2  H   UNL d   1       0.232  -1.564  -1.205  0.00  0.00     0.189 HD
ENDROOT
BRANCH   1   3
ATOM      3  C   UNL d   1       1.200  -0.321   0.136  0.00  0.00     0.191 C 
ATOM      4  S   UNL d   1       1.263   0.330   1.678  0.00  0.00    -0.039 SA
BRANCH   3   5
ATOM      5  N   UNL d   1       2.340  -0.288  -0.625  0.00  0.00    -0.332 N 
ATOM      6  H   UNL d   1       3.156  -0.004  -0.092  0.00  0.00     0.168 HD
BRANCH   5   7
ATOM      7  C   UNL d   1       2.552  -0.498  -2.009  0.00  0.00     0.035 A 
ATOM      8  C   UNL d   1       1.537  -0.469  -2.975  0.00  0.00     0.048 A 
ATOM      9  C   UNL d   1       1.810  -0.721  -4.326  0.00  0.00     0.002 A 
ATOM     10  C   UNL d   1       3.125  -0.989  -4.709  0.00  0.00     0.018 A 
ATOM     11  C   UNL d   1       4.152  -0.964  -3.767  0.00  0.00     0.004 A 
ATOM     12  C   UNL d   1       3.866  -0.708  -2.425  0.00  0.00     0.029 A 
BRANCH   9  13
ATOM     13  S   UNL d   1       0.540  -0.786  -5.584  0.00  0.00    -0.134 SA
ATOM     14  C   UNL d   1      -0.546   0.585  -5.100  0.00  0.00     0.095 C 
ENDBRANCH   9  13
ENDBRANCH   5   7
ENDBRANCH   3   5
ENDBRANCH   1   3
BRANCH   1  15
ATOM     15  N   UNL d   1      -1.200  -0.755   0.040  0.00  0.00    -0.274 N 
ATOM     16  H   UNL d   1      -1.627  -1.546   0.506  0.00  0.00     0.189 HD
BRANCH  15  17
ATOM     17  C   UNL d   1      -1.990   0.247  -0.518  0.00  0.00     0.186 C 
ATOM     18  S   UNL d   1      -1.401   1.628  -1.269  0.00  0.00    -0.040 SA
BRANCH  17  19
ATOM     19  N   UNL d   1      -3.334  -0.060  -0.406  0.00  0.00    -0.366 N 
ATOM     20  H   UNL d   1      -3.592  -0.896   0.097  0.00  0.00     0.161 HD
BRANCH  19  21
ATOM     21  C   UNL d   1      -4.437   0.660  -1.039  0.00  0.00     0.124 C 
BRANCH  21  22
ATOM     22  C   UNL d   1      -4.675   0.203  -2.481  0.00  0.00     0.046 C 
BRANCH  22  23
ATOM     23  C   UNL d   1      -5.245  -1.208  -2.566  0.00  0.00     0.168 C 
BRANCH  23  24
ATOM     24  O   UNL d   1      -6.468  -1.255  -1.833  0.00  0.00    -0.396 OA
ATOM     25  C   UNL d   1      -7.037  -2.556  -1.829  0.00  0.00     0.201 C 
ENDBRANCH  23  24
ENDBRANCH  22  23
ENDBRANCH  21  22
ENDBRANCH  19  21
ENDBRANCH  17  19
ENDBRANCH  15  17
ENDBRANCH   1  15
TORSDOF 11
