REMARK  2 active torsions:
REMARK  status: ('A' for Active; 'I' for Inactive)
REMARK    1  A    between atoms: N_3  and  C_1 
REMARK    2  A    between atoms: C_6  and  C_2 
ROOT
ATOM      1  C   UNL d   1       2.258  -0.858  -0.013  0.00  0.00     0.115 C 
ATOM      2  C   UNL d   1       2.260   0.563  -0.495  0.00  0.00     0.220 C 
ATOM      3  C   UNL d   1       1.169  -1.512   0.414  0.00  0.00     0.049 C 
ATOM      4  O   UNL d   1       1.120   1.324   0.007  0.00  0.00    -0.334 OA
ATOM      5  C   UNL d   1      -0.050   0.624   0.164  0.00  0.00     0.080 A 
ATOM      6  C   UNL d   1      -0.082  -0.766   0.338  0.00  0.00    -0.001 A 
ATOM      7  C   UNL d   1      -1.229   1.361   0.095  0.00  0.00     0.037 A 
ATOM      8  C   UNL d   1      -1.317  -1.422   0.383  0.00  0.00     0.014 A 
ATOM      9  C   UNL d   1      -2.456   0.701   0.127  0.00  0.00     0.003 A 
ATOM     10  C   UNL d   1      -2.499  -0.688   0.258  0.00  0.00     0.001 A 
ENDROOT
BRANCH   2  11
ATOM     11  C   UNL d   1       2.282   0.709  -2.022  0.00  0.00    -0.001 A 
ATOM     12  C   UNL d   1       3.274   1.441  -2.700  0.00  0.00     0.044 A 
ATOM     13  C   UNL d   1       3.265   1.543  -4.098  0.00  0.00     0.048 A 
ATOM     14 CL   UNL d   1       4.544   2.273  -1.873  0.00  0.00    -0.084 Cl
ATOM     15  C   UNL d   1       2.256   0.935  -4.837  0.00  0.00     0.035 A 
ATOM     16  C   UNL d   1       1.251   0.226  -4.196  0.00  0.00     0.024 A 
ATOM     17 CL   UNL d   1       2.245   1.065  -6.551  0.00  0.00    -0.084 Cl
ATOM     18  C   UNL d   1       1.267   0.112  -2.805  0.00  0.00     0.013 A 
ENDBRANCH   2  11
BRANCH   1  19
ATOM     19  N   UNL d   1       3.538  -1.540   0.015  0.00  0.00    -0.117 N 
ATOM     20  O   UNL d   1       4.522  -0.922  -0.411  0.00  0.00    -0.532 OA
ATOM     21  O   UNL d   1       3.576  -2.696   0.455  0.00  0.00    -0.532 OA
ENDBRANCH   1  19
TORSDOF 2
