REMARK  3 active torsions:
REMARK  status: ('A' for Active; 'I' for Inactive)
REMARK    1  A    between atoms: N_2  and  C_1 
REMARK    2  A    between atoms: C_5  and  C_11 
REMARK    3  A    between atoms: N_16  and  C_8 
ROOT
ATOM      1  N   UNL d   1      -1.514   3.041  -0.463  0.00  0.00    -0.296 N 
ATOM      2  HN  UNL d   1      -1.926   2.508  -1.229  1.00  0.00     0.187 HD
ATOM      3  C   UNL d   1      -0.722   2.477   0.398  0.00  0.00     0.069 C 
ATOM      4  N   UNL d   1      -1.778   4.372  -0.306  0.00  0.00    -0.265 N 
ATOM      5  C   UNL d   1      -0.180   3.190   1.583  0.00  0.00     0.009 A 
ATOM      6  C   UNL d   1      -1.148   5.217   0.580  0.00  0.00     0.271 C 
ATOM      7  C   UNL d   1      -0.308   4.573   1.602  0.00  0.00     0.046 A 
ATOM      8  O   UNL d   1      -1.301   6.434   0.553  0.00  0.00    -0.266 OA
ATOM      9  C   UNL d   1       0.470   2.541   2.644  0.00  0.00     0.015 A 
ATOM     10  C   UNL d   1       0.311   5.327   2.606  0.00  0.00     0.018 A 
ATOM     11  C   UNL d   1       1.077   3.289   3.654  0.00  0.00     0.001 A 
ATOM     12  C   UNL d   1       1.020   4.681   3.621  0.00  0.00     0.001 A 
ATOM     13  H   UNL d   1      -2.356   4.803  -1.021  0.00  0.00     0.190 HD
ENDROOT
BRANCH   3  14
ATOM     14  C   UNL d   1      -0.279   1.086   0.132  0.00  0.00    -0.005 A 
ATOM     15  C   UNL d   1       1.086   0.814   0.097  0.00  0.00     0.052 A 
ATOM     16  C   UNL d   1       1.519  -0.515  -0.022  0.00  0.00     0.130 A 
ATOM     17  C   UNL d   1       0.640  -1.605  -0.159  0.00  0.00     0.062 A 
ATOM     18  C   UNL d   1      -0.732  -1.259  -0.210  0.00  0.00     0.033 A 
ATOM     19  C   UNL d   1      -1.193   0.061  -0.065  0.00  0.00     0.016 A 
BRANCH  16  20
ATOM     20  N   UNL d   1       2.938  -0.695   0.178  0.00  0.00    -0.113 N 
ATOM     21  O   UNL d   1       3.309  -1.013   1.318  0.00  0.00    -0.532 OA
ATOM     22  O   UNL d   1       3.680  -0.442  -0.779  0.00  0.00    -0.532 OA
ENDBRANCH  16  20
BRANCH  17  23
ATOM     23  N   UNL d   1       0.995  -2.945  -0.257  0.00  0.00    -0.388 N 
ATOM     24  C   UNL d   1       2.274  -3.405  -0.787  0.00  0.00     0.149 C 
ATOM     25  C   UNL d   1       0.221  -3.935   0.492  0.00  0.00     0.149 C 
ENDBRANCH  17  23
ENDBRANCH   3  14
TORSDOF 3
