REMARK  5 active torsions:
REMARK  status: ('A' for Active; 'I' for Inactive)
REMARK    1  A    between atoms: C_2  and  N_1 
REMARK       I    between atoms: C_3  and  N_1 
REMARK    2  A    between atoms: N_5  and  C_2 
REMARK    3  A    between atoms: C_10  and  C_3 
REMARK    4  A    between atoms: C_4  and  N_5 
REMARK    5  A    between atoms: O_15  and  C_12 
ROOT
ATOM      1  C   UNL d   1       0.411  -0.886  -0.866  0.00  0.00     0.179 C 
ATOM      2  S   UNL d   1      -0.909  -0.248  -1.683  0.00  0.00    -0.040 SA
ENDROOT
BRANCH   1   3
ATOM      3  N   UNL d   1       0.828  -0.211   0.237  0.00  0.00    -0.299 N 
ATOM      4  C   UNL d   1       1.417  -0.657   1.421  0.00  0.00     0.257 C 
ATOM      5  O   UNL d   1       1.878  -1.772   1.613  0.00  0.00    -0.267 OA
ATOM      6  H   UNL d   1       0.263   0.620   0.339  0.00  0.00     0.171 HD
BRANCH   4   7
ATOM      7  C   UNL d   1       1.405   0.329   2.558  0.00  0.00     0.032 A 
ATOM      8  C   UNL d   1       1.642  -0.156   3.852  0.00  0.00     0.017 A 
ATOM      9  C   UNL d   1       1.558   0.694   4.958  0.00  0.00     0.001 A 
ATOM     10  C   UNL d   1       1.236   2.038   4.781  0.00  0.00     0.000 A 
ATOM     11  C   UNL d   1       1.032   2.540   3.498  0.00  0.00     0.001 A 
ATOM     12  C   UNL d   1       1.131   1.695   2.388  0.00  0.00     0.017 A 
ENDBRANCH   4   7
ENDBRANCH   1   3
BRANCH   1  13
ATOM     13  N   UNL d   1       0.920  -2.047  -1.302  0.00  0.00    -0.332 N 
ATOM     14  H   UNL d   1       0.269  -2.573  -1.881  0.00  0.00     0.168 HD
BRANCH  13  15
ATOM     15  C   UNL d   1       2.203  -2.639  -1.231  0.00  0.00     0.054 A 
ATOM     16  C   UNL d   1       3.359  -1.916  -0.911  0.00  0.00     0.067 A 
ATOM     17  C   UNL d   1       4.600  -2.561  -0.875  0.00  0.00     0.070 A 
ATOM     18  C   UNL d   1       4.688  -3.930  -1.129  0.00  0.00     0.038 A 
ATOM     19  C   UNL d   1       3.555  -4.647  -1.502  0.00  0.00     0.024 A 
ATOM     20  C   UNL d   1       2.324  -3.998  -1.574  0.00  0.00     0.037 A 
ATOM     21 BR   UNL d   1       0.821  -5.019  -2.142  0.00  0.00    -0.049 Br
BRANCH  17  22
ATOM     22  O   UNL d   1       5.790  -1.955  -0.574  0.00  0.00    -0.356 OA
ATOM     23  C   UNL d   1       5.907  -0.606  -1.011  0.00  0.00     0.210 C 
ENDBRANCH  17  22
ENDBRANCH  13  15
ENDBRANCH   1  13
TORSDOF 5
