REMARK  6 active torsions:
REMARK  status: ('A' for Active; 'I' for Inactive)
REMARK    1  A    between atoms: C_13  and  N_8 
REMARK    2  A    between atoms: C_18  and  C_13 
REMARK    3  A    between atoms: O_17  and  C_21 
REMARK    4  A    between atoms: C_19  and  O_17 
REMARK    5  A    between atoms: C_21  and  C_18 
REMARK    6  A    between atoms: O_29  and  C_18 
ROOT
ATOM      1  C   UNL d   1      -3.095   0.367  -0.248  0.00  0.00     0.148 A 
ATOM      2  N   UNL d   1      -2.398  -0.496   0.462  0.00  0.00    -0.336 N 
ATOM      3  HN  UNL d   1      -2.803  -1.129   1.152  1.00  0.00     0.168 HD
ATOM      4  S   UNL d   1      -2.114   1.361  -1.270  0.00  0.00    -0.052 SA
ATOM      5  N   UNL d   1      -4.452   0.455  -0.166  0.00  0.00    -0.358 N 
ATOM      6  C   UNL d   1      -0.700   0.517  -0.786  0.00  0.00     0.036 A 
ATOM      7  C   UNL d   1      -1.054  -0.441   0.159  0.00  0.00     0.051 A 
ATOM      8  N   UNL d   1      -7.219  -0.422  -0.742  0.00  0.00     0.094 N 
ATOM      9  C   UNL d   1       0.627   0.685  -1.215  0.00  0.00     0.045 A 
ATOM     10  C   UNL d   1      -5.166  -0.402   0.787  0.00  0.00     0.155 C 
ATOM     11  C   UNL d   1      -5.290   1.258  -1.061  0.00  0.00     0.155 C 
ATOM     12  C   UNL d   1      -0.050  -1.263   0.709  0.00  0.00     0.032 A 
ATOM     13  C   UNL d   1       1.600  -0.154  -0.665  0.00  0.00     0.035 A 
ATOM     14  C   UNL d   1      -6.248  -1.231   0.054  0.00  0.00     0.292 C 
ATOM     15  C   UNL d   1      -6.422   0.400  -1.687  0.00  0.00     0.292 C 
ATOM     16  C   UNL d   1       1.275  -1.115   0.286  0.00  0.00     0.026 A 
ATOM     17 CL   UNL d   1       3.235   0.003  -1.184  0.00  0.00    -0.084 Cl
ENDROOT
BRANCH   8  18
ATOM     18  C   UNL d   1      -8.059   0.377   0.166  0.00  0.00     0.306 C 
BRANCH  18  19
ATOM     19  C   UNL d   1      -9.162   1.276  -0.437  0.00  0.00     0.170 C 
BRANCH  19  20
ATOM     20  C   UNL d   1     -10.204   0.501  -1.257  0.00  0.00     0.209 C 
BRANCH  20  21
ATOM     21  O   UNL d   1     -11.149   1.437  -1.802  0.00  0.00    -0.349 OA
BRANCH  21  22
ATOM     22  C   UNL d   1     -12.170   0.931  -2.559  0.00  0.00     0.069 A 
ATOM     23  C   UNL d   1     -12.383  -0.422  -2.837  0.00  0.00     0.040 A 
ATOM     24  C   UNL d   1     -13.462  -0.811  -3.639  0.00  0.00     0.045 A 
ATOM     25  C   UNL d   1     -14.319   0.151  -4.158  0.00  0.00     0.116 A 
ATOM     26  C   UNL d   1     -14.129   1.498  -3.884  0.00  0.00     0.045 A 
ATOM     27  F   UNL d   1     -15.346  -0.230  -4.930  0.00  0.00    -0.206 F 
ATOM     28  C   UNL d   1     -13.049   1.884  -3.082  0.00  0.00     0.040 A 
ENDBRANCH  21  22
ENDBRANCH  20  21
ENDBRANCH  19  20
BRANCH  19  29
ATOM     29  O   UNL d   1      -9.799   1.952   0.665  0.00  0.00    -0.392 OA
ATOM     30  H   UNL d   1     -10.317   1.294   1.161  0.00  0.00     0.210 HD
ENDBRANCH  19  29
ENDBRANCH  18  19
ENDBRANCH   8  18
TORSDOF 6
