REMARK  7 active torsions:
REMARK  status: ('A' for Active; 'I' for Inactive)
REMARK    1  A    between atoms: C_4  and  C_1 
REMARK    2  A    between atoms: C_5  and  C_1 
REMARK    3  A    between atoms: N_11  and  C_3 
REMARK    4  A    between atoms: O_15  and  C_4 
REMARK    5  A    between atoms: N_8  and  C_5 
REMARK    6  A    between atoms: C_12  and  N_11 
REMARK    7  A    between atoms: C_20  and  O_15 
ROOT
ATOM      1  C   UNL d   1      -0.997  -2.691  -3.165  0.00  0.00     0.109 A 
ATOM      2  C   UNL d   1      -1.724  -1.462  -3.152  0.00  0.00     0.105 C 
ATOM      3  N   UNL d   1      -2.309  -0.457  -3.123  0.00  0.00    -0.191 NA
ATOM      4  C   UNL d   1       0.247  -2.851  -2.525  0.00  0.00     0.056 A 
ATOM      5  C   UNL d   1      -1.529  -3.744  -3.918  0.00  0.00     0.139 A 
ATOM      6  F   UNL d   1      -2.706  -3.597  -4.546  0.00  0.00    -0.204 F 
ATOM      7  C   UNL d   1       0.361  -5.135  -3.423  0.00  0.00     0.005 A 
ATOM      8  C   UNL d   1       0.906  -4.093  -2.668  0.00  0.00     0.031 A 
ATOM      9  C   UNL d   1      -0.864  -4.958  -4.050  0.00  0.00     0.044 A 
ENDROOT
BRANCH   4  10
ATOM     10  N   UNL d   1       0.878  -1.906  -1.686  0.00  0.00    -0.363 N 
ATOM     11  H   UNL d   1       1.894  -1.999  -1.655  0.00  0.00     0.165 HD
BRANCH  10  12
ATOM     12  C   UNL d   1       0.323  -0.958  -0.849  0.00  0.00     0.116 C 
ATOM     13  C   UNL d   1       0.965  -0.068  -0.065  0.00  0.00     0.117 C 
BRANCH  13  14
ATOM     14  C   UNL d   1       0.295   0.878   0.849  0.00  0.00     0.304 C 
ATOM     15  O   UNL d   1       0.898   1.643   1.586  0.00  0.00    -0.258 OA
BRANCH  14  16
ATOM     16  O   UNL d   1      -1.047   0.685   0.835  0.00  0.00    -0.317 OA
BRANCH  16  17
ATOM     17  C   UNL d   1      -1.740   1.129   2.007  0.00  0.00     0.174 C 
ATOM     18  C   UNL d   1      -1.709  -0.012   3.008  0.00  0.00     0.034 C 
ENDBRANCH  16  17
ENDBRANCH  14  16
ENDBRANCH  13  14
BRANCH  13  19
ATOM     19  C   UNL d   1       2.485  -0.068  -0.065  0.00  0.00    -0.029 C 
BRANCH  19  20
ATOM     20  N   UNL d   1       3.746  -0.068  -0.065  0.00  0.00    -0.365 N 
ATOM     21  HN2 UNL d   1       2.726  -0.068  -0.065  1.00  0.00     0.165 HD
ATOM     22  HN1 UNL d   1       4.766  -0.068  -0.065  1.00  0.00     0.165 HD
ENDBRANCH  19  20
ENDBRANCH  13  19
ENDBRANCH  10  12
ENDBRANCH   4  10
TORSDOF 7
