REMARK  4 active torsions:
REMARK  status: ('A' for Active; 'I' for Inactive)
REMARK    1  A    between atoms: N_9  and  S_1 
REMARK    2  A    between atoms: C_12  and  S_1 
REMARK    3  A    between atoms: C_2  and  C_7 
REMARK    4  A    between atoms: C_11  and  N_9 
ROOT
ATOM      1  C   UNL d   1       2.064   2.752   1.161  0.00  0.00     0.037 A 
ATOM      2  C   UNL d   1       0.790   2.469   0.630  0.00  0.00     0.037 A 
ATOM      3  C   UNL d   1       2.204   3.715   2.173  0.00  0.00     0.017 A 
ATOM      4  C   UNL d   1      -0.317   3.190   1.084  0.00  0.00     0.025 A 
ATOM      5  C   UNL d   1       1.086   4.403   2.642  0.00  0.00     0.001 A 
ATOM      6  C   UNL d   1      -0.170   4.146   2.094  0.00  0.00     0.002 A 
ENDROOT
BRANCH   1   7
ATOM      7  C   UNL d   1       3.252   2.020   0.675  0.00  0.00     0.164 A 
ATOM      8  N   UNL d   1       3.175   0.815   0.208  0.00  0.00    -0.335 N 
ATOM      9  C   UNL d   1       4.348   0.270  -0.308  0.00  0.00     0.050 A 
ATOM     10  HN  UNL d   1       2.300   0.291   0.217  1.00  0.00     0.168 HD
ATOM     11  C   UNL d   1       4.318  -1.007  -0.868  0.00  0.00     0.030 A 
ATOM     12  C   UNL d   1       5.537   0.985  -0.311  0.00  0.00     0.066 A 
ATOM     13  C   UNL d   1       5.468  -1.553  -1.440  0.00  0.00     0.002 A 
ATOM     14  C   UNL d   1       6.658  -0.824  -1.448  0.00  0.00     0.001 A 
ATOM     15  C   UNL d   1       6.698   0.447  -0.877  0.00  0.00     0.020 A 
ATOM     16  C   UNL d   1       5.535   2.321   0.293  0.00  0.00     0.302 A 
ATOM     17  O   UNL d   1       4.354   2.793   0.753  0.00  0.00    -0.256 OA
ATOM     18  O   UNL d   1       6.569   2.976   0.380  0.00  0.00    -0.259 OA
ENDBRANCH   1   7
BRANCH   2  19
ATOM     19  N   UNL d   1       0.592   1.490  -0.422  0.00  0.00    -0.180 NA
ATOM     20  H   UNL d   1       1.338   0.782  -0.364  0.00  0.00     0.146 HD
BRANCH  19  21
ATOM     21  S   UNL d   1       0.655   2.145  -1.998  0.00  0.00     0.245 S 
ATOM     22  O   UNL d   1       2.031   2.517  -2.259  0.00  0.00    -0.206 OA
ATOM     23  O   UNL d   1      -0.432   3.080  -2.172  0.00  0.00    -0.206 OA
BRANCH  21  24
ATOM     24  C   UNL d   1       0.276   0.714  -2.996  0.00  0.00     0.074 A 
ATOM     25  C   UNL d   1      -0.984   0.116  -2.871  0.00  0.00     0.026 A 
ATOM     26  C   UNL d   1      -1.310  -0.981  -3.673  0.00  0.00     0.025 A 
ATOM     27  C   UNL d   1      -0.384  -1.468  -4.597  0.00  0.00     0.034 A 
ATOM     28  C   UNL d   1       0.870  -0.869  -4.724  0.00  0.00     0.025 A 
ATOM     29 CL   UNL d   1      -0.795  -2.811  -5.591  0.00  0.00    -0.084 Cl
ATOM     30  C   UNL d   1       1.205   0.227  -3.921  0.00  0.00     0.026 A 
ENDBRANCH  21  24
ENDBRANCH  19  21
ENDBRANCH   2  19
TORSDOF 4
