REMARK  4 active torsions:
REMARK  status: ('A' for Active; 'I' for Inactive)
REMARK       I    between atoms: C_2  and  N_1 
REMARK    1  A    between atoms: C_4  and  N_1 
REMARK    2  A    between atoms: C_3  and  C_2 
REMARK    3  A    between atoms: C_5  and  C_6 
REMARK    4  A    between atoms: O_11  and  C_5 
ROOT
ATOM      1  N   UNL d   1       1.095  -0.307  -0.016  0.00  0.00    -0.321 N 
ATOM      2  C   UNL d   1       0.475  -1.530   0.122  0.00  0.00     0.246 C 
ATOM      3  O   UNL d   1       1.006  -2.632   0.192  0.00  0.00    -0.268 OA
ATOM      4  H   UNL d   1       0.543   0.519   0.177  0.00  0.00     0.169 HD
ENDROOT
BRANCH   1   5
ATOM      5  C   UNL d   1       2.491  -0.106  -0.146  0.00  0.00     0.073 A 
ATOM      6  C   UNL d   1       3.394  -1.062  -0.627  0.00  0.00     0.143 A 
ATOM      7  F   UNL d   1       2.978  -2.201  -1.198  0.00  0.00    -0.204 F 
ATOM      8  C   UNL d   1       4.769  -0.826  -0.613  0.00  0.00     0.044 A 
ATOM      9  C   UNL d   1       5.261   0.389  -0.144  0.00  0.00     0.003 A 
ATOM     10  C   UNL d   1       4.372   1.381   0.265  0.00  0.00     0.002 A 
ATOM     11  C   UNL d   1       2.994   1.141   0.251  0.00  0.00     0.033 A 
ENDBRANCH   1   5
BRANCH   2  12
ATOM     12  C   UNL d   1      -0.996  -1.407   0.282  0.00  0.00     0.081 C 
ATOM     13  C   UNL d   1      -1.713  -2.531   0.430  0.00  0.00     0.086 C 
BRANCH  13  14
ATOM     14  C   UNL d   1      -3.169  -2.432   0.591  0.00  0.00     0.165 C 
ATOM     15  O   UNL d   1      -3.761  -1.398   0.846  0.00  0.00    -0.647 OA
BRANCH  14  16
ATOM     16  O   UNL d   1      -3.780  -3.617   0.402  0.00  0.00    -0.773 OA
ATOM     17  H   UNL d   1      -3.194  -4.352   0.143  0.00  0.00     0.167 HD
ENDBRANCH  14  16
ENDBRANCH  13  14
ENDBRANCH   2  12
TORSDOF 4
