REMARK  2 active torsions:
REMARK  status: ('A' for Active; 'I' for Inactive)
REMARK    1  A    between atoms: C_5  and  C_3 
REMARK    2  A    between atoms: C_12  and  C_4 
ROOT
ATOM      1  N   UNL d   1       1.279   0.150  -0.010  0.00  0.00    -0.318 N 
ATOM      2  HN  UNL d   1       2.289   0.287  -0.051  1.00  0.00     0.169 HD
ATOM      3  C   UNL d   1       0.602  -0.977  -0.007  0.00  0.00     0.183 A 
ATOM      4  C   UNL d   1       0.283   1.103   0.057  0.00  0.00     0.138 A 
ATOM      5  N   UNL d   1      -0.953   0.587   0.152  0.00  0.00    -0.242 N 
ATOM      6  HN  UNL d   1      -1.840   1.086   0.228  1.00  0.00     0.196 HD
ATOM      7  O   UNL d   1      -0.742  -0.788   0.122  0.00  0.00    -0.217 OA
ENDROOT
BRANCH   3   8
ATOM      8  C   UNL d   1       1.095  -2.349  -0.043  0.00  0.00     0.039 A 
ATOM      9  C   UNL d   1       0.410  -3.423  -0.643  0.00  0.00     0.051 A 
ATOM     10  C   UNL d   1       0.964  -4.708  -0.648  0.00  0.00     0.067 A 
ATOM     11 CL   UNL d   1      -1.109  -3.243  -1.455  0.00  0.00    -0.083 Cl
ATOM     12  C   UNL d   1       2.204  -4.927  -0.064  0.00  0.00     0.118 A 
ATOM     13  C   UNL d   1       2.907  -3.887   0.526  0.00  0.00     0.043 A 
ATOM     14  F   UNL d   1       2.733  -6.156  -0.081  0.00  0.00    -0.206 F 
ATOM     15  C   UNL d   1       2.357  -2.604   0.533  0.00  0.00     0.020 A 
ENDBRANCH   3   8
BRANCH   4  16
ATOM     16  C   UNL d   1       0.566   2.534   0.012  0.00  0.00     0.010 A 
ATOM     17  C   UNL d   1       1.888   2.993  -0.090  0.00  0.00     0.015 A 
ATOM     18  C   UNL d   1       2.163   4.361  -0.155  0.00  0.00     0.001 A 
ATOM     19  C   UNL d   1       1.121   5.286  -0.118  0.00  0.00     0.000 A 
ATOM     20  C   UNL d   1      -0.196   4.845  -0.013  0.00  0.00     0.001 A 
ATOM     21  C   UNL d   1      -0.473   3.477   0.053  0.00  0.00     0.015 A 
ENDBRANCH   4  16
TORSDOF 2
