REMARK  1 active torsions:
REMARK  status: ('A' for Active; 'I' for Inactive)
REMARK    1  A    between atoms: N_3  and  C_2 
ROOT
ATOM      1  C   UNL d   1      -2.083  -0.654   0.021  0.00  0.00     0.070 A 
ATOM      2  C   UNL d   1      -0.959  -1.500   0.032  0.00  0.00     0.103 A 
ATOM      3  N   UNL d   1       0.259  -0.909  -0.020  0.00  0.00    -0.342 N 
ATOM      4  HN  UNL d   1       1.109  -1.472   0.013  1.00  0.00     0.167 HD
ATOM      5  S   UNL d   1      -3.764  -1.038   0.151  0.00  0.00    -0.096 SA
ATOM      6  C   UNL d   1      -1.903   0.723  -0.076  0.00  0.00     0.054 A 
ATOM      7  C   UNL d   1      -4.228   0.600   0.046  0.00  0.00     0.053 A 
ATOM      8  C   UNL d   1      -3.140   1.434  -0.069  0.00  0.00     0.038 A 
ATOM      9  N   UNL d   1      -0.681   1.299  -0.160  0.00  0.00    -0.351 N 
ATOM     10  HN  UNL d   1      -0.545   2.306  -0.248  1.00  0.00     0.166 HD
ATOM     11  C   UNL d   1       0.330   0.428  -0.117  0.00  0.00     0.182 A 
ENDROOT
BRANCH   2  12
ATOM     12  N   UNL d   1      -1.069  -2.889   0.160  0.00  0.00    -0.264 NA
ATOM     13  C   UNL d   1       0.125  -3.550   0.720  0.00  0.00     0.123 C 
ATOM     14  C   UNL d   1      -0.214  -5.029   0.975  0.00  0.00     0.182 C 
ATOM     15  O   UNL d   1      -0.644  -5.689  -0.231  0.00  0.00    -0.389 OA
ATOM     16  C   UNL d   1      -1.794  -5.025  -0.786  0.00  0.00     0.182 C 
ATOM     17  C   UNL d   1      -1.496  -3.547  -1.092  0.00  0.00     0.123 C 
ENDBRANCH   2  12
TORSDOF 1
