REMARK  6 active torsions:
REMARK  status: ('A' for Active; 'I' for Inactive)
REMARK       I    between atoms: C_2  and  N_1 
REMARK    1  A    between atoms: C_7  and  C_2 
REMARK    2  A    between atoms: C_6  and  N_3 
REMARK    3  A    between atoms: C_15  and  N_4 
REMARK    4  A    between atoms: N_5  and  C_7 
REMARK    5  A    between atoms: C_16  and  C_6 
REMARK    6  A    between atoms: C_17  and  C_6 
ROOT
ATOM      1  N   UNL d   1      -2.881   5.131   2.141  0.00  0.00     0.105 N 
ATOM      2  N   UNL d   1      -2.293   2.384   0.924  0.00  0.00     0.100 N 
ATOM      3  C   UNL d   1      -3.556   4.641   0.909  0.00  0.00     0.304 C 
ATOM      4  C   UNL d   1      -2.612   3.920   2.952  0.00  0.00     0.304 C 
ATOM      5  C   UNL d   1      -2.779   3.542   0.131  0.00  0.00     0.303 C 
ATOM      6  C   UNL d   1      -1.780   2.831   2.235  0.00  0.00     0.303 C 
ENDROOT
BRANCH   2   7
ATOM      7  C   UNL d   1      -3.331   1.341   1.073  0.00  0.00     0.374 C 
BRANCH   7   8
ATOM      8  C   UNL d   1      -3.619   0.648  -0.277  0.00  0.00     0.248 C 
ATOM      9  N   UNL d   1      -2.704  -0.258  -0.794  0.00  0.00    -0.348 N 
ATOM     10  C   UNL d   1      -2.957  -0.885  -2.099  0.00  0.00     0.145 C 
ATOM     11  C   UNL d   1      -1.626  -0.911  -0.043  0.00  0.00     0.145 C 
ATOM     12  C   UNL d   1      -3.256  -2.397  -1.967  0.00  0.00     0.143 C 
ATOM     13  N   UNL d   1      -2.232  -3.075  -1.135  0.00  0.00    -0.378 N 
ATOM     14  C   UNL d   1      -1.951  -2.408   0.153  0.00  0.00     0.143 C 
ATOM     15  O   UNL d   1      -4.655   0.935  -0.891  0.00  0.00    -0.271 OA
BRANCH  13  16
ATOM     16  C   UNL d   1      -1.280  -3.871  -1.761  0.00  0.00     0.030 A 
ATOM     17  C   UNL d   1      -1.677  -4.896  -2.638  0.00  0.00     0.029 A 
ATOM     18  C   UNL d   1      -0.752  -5.758  -3.236  0.00  0.00     0.002 A 
ATOM     19  C   UNL d   1       0.607  -5.610  -2.978  0.00  0.00     0.000 A 
ATOM     20  C   UNL d   1       1.031  -4.600  -2.124  0.00  0.00     0.002 A 
ATOM     21  C   UNL d   1       0.097  -3.746  -1.522  0.00  0.00     0.029 A 
ENDBRANCH  13  16
ENDBRANCH   7   8
ENDBRANCH   2   7
BRANCH   1  22
ATOM     22  C   UNL d   1      -1.643   5.911   1.813  0.00  0.00     0.289 C 
BRANCH  22  23
ATOM     23  C   UNL d   1      -1.934   7.167   0.977  0.00  0.00    -0.021 A 
ATOM     24  C   UNL d   1      -2.749   8.205   1.457  0.00  0.00     0.010 A 
ATOM     25  C   UNL d   1      -2.985   9.344   0.683  0.00  0.00     0.001 A 
ATOM     26  C   UNL d   1      -2.421   9.458  -0.586  0.00  0.00     0.000 A 
ATOM     27  C   UNL d   1      -1.617   8.435  -1.082  0.00  0.00     0.001 A 
ATOM     28  C   UNL d   1      -1.371   7.301  -0.306  0.00  0.00     0.010 A 
ENDBRANCH  22  23
BRANCH  22  29
ATOM     29  C   UNL d   1      -0.757   6.274   3.016  0.00  0.00    -0.021 A 
ATOM     30  C   UNL d   1       0.642   6.235   2.868  0.00  0.00     0.010 A 
ATOM     31  C   UNL d   1       1.487   6.545   3.935  0.00  0.00     0.001 A 
ATOM     32  C   UNL d   1       0.947   6.905   5.166  0.00  0.00     0.000 A 
ATOM     33  C   UNL d   1      -0.436   6.973   5.326  0.00  0.00     0.001 A 
ATOM     34  C   UNL d   1      -1.283   6.673   4.256  0.00  0.00     0.010 A 
ENDBRANCH  22  29
ENDBRANCH   1  22
TORSDOF 6
