REMARK  6 active torsions:
REMARK  status: ('A' for Active; 'I' for Inactive)
REMARK    1  A    between atoms: C_9  and  C_1 
REMARK    2  A    between atoms: N_7  and  C_2 
REMARK    3  A    between atoms: C_10  and  N_7 
REMARK    4  A    between atoms: O_14  and  C_9 
REMARK    5  A    between atoms: C_15  and  C_10 
REMARK    6  A    between atoms: C_19  and  O_14 
ROOT
ATOM      1  C   UNL d   1      -0.063   1.369   0.149  0.00  0.00     0.108 A 
ATOM      2  C   UNL d   1      -1.387   0.954   0.250  0.00  0.00     0.138 A 
ATOM      3  N   UNL d   1      -0.093  -0.924   0.084  0.00  0.00    -0.302 N 
ATOM      4  HN  UNL d   1       0.182  -1.906   0.051  1.00  0.00     0.186 HD
ATOM      5  N   UNL d   1      -1.332  -0.413   0.139  0.00  0.00    -0.284 N 
ATOM      6  C   UNL d   1       0.695   0.156   0.083  0.00  0.00     0.042 A 
ATOM      7  C   UNL d   1       2.168  -0.012  -0.013  0.00  0.00     0.071 C 
ATOM      8  H   UNL d   1      -2.123  -1.043   0.121  0.00  0.00     0.188 HD
ENDROOT
BRANCH   2   9
ATOM      9  N   UNL d   1      -2.606   1.537   0.397  0.00  0.00    -0.350 N 
ATOM     10  HN  UNL d   1      -3.430   1.202  -0.103  1.00  0.00     0.166 HD
BRANCH   9  11
ATOM     11  C   UNL d   1      -2.657   2.544   1.211  0.00  0.00     0.101 C 
BRANCH  11  12
ATOM     12  C   UNL d   1      -3.902   3.276   1.501  0.00  0.00    -0.018 A 
ATOM     13  C   UNL d   1      -5.132   2.830   1.030  0.00  0.00     0.030 A 
ATOM     14  C   UNL d   1      -6.253   3.552   1.394  0.00  0.00     0.088 A 
ATOM     15  N   UNL d   1      -6.217   4.659   2.171  0.00  0.00    -0.375 N 
ATOM     16  C   UNL d   1      -5.004   5.070   2.598  0.00  0.00     0.088 A 
ATOM     17  HN  UNL d   1      -7.068   5.161   2.422  1.00  0.00     0.164 HD
ATOM     18  C   UNL d   1      -3.824   4.418   2.295  0.00  0.00     0.030 A 
ENDBRANCH  11  12
ENDBRANCH   9  11
ENDBRANCH   2   9
BRANCH   1  19
ATOM     19  C   UNL d   1       0.426   2.733   0.100  0.00  0.00     0.299 C 
ATOM     20  O   UNL d   1      -0.258   3.700  -0.209  0.00  0.00    -0.259 OA
BRANCH  19  21
ATOM     21  O   UNL d   1       1.750   2.812   0.424  0.00  0.00    -0.318 OA
BRANCH  21  22
ATOM     22  C   UNL d   1       2.417   4.031   0.079  0.00  0.00     0.174 C 
ATOM     23  C   UNL d   1       3.050   3.830  -1.285  0.00  0.00     0.034 C 
ENDBRANCH  21  22
ENDBRANCH  19  21
ENDBRANCH   1  19
TORSDOF 6
