REMARK  9 active torsions:
REMARK  status: ('A' for Active; 'I' for Inactive)
REMARK       I    between atoms: N_3  and  C_1 
REMARK    1  A    between atoms: C_9  and  C_1 
REMARK    2  A    between atoms: C_2  and  C_5 
REMARK    3  A    between atoms: O_15  and  C_2 
REMARK    4  A    between atoms: C_14  and  N_3 
REMARK    5  A    between atoms: C_4  and  C_11 
REMARK    6  A    between atoms: O_16  and  C_4 
REMARK    7  A    between atoms: C_6  and  C_9 
REMARK    8  A    between atoms: C_11  and  C_6 
REMARK    9  A    between atoms: C_21  and  O_15 
ROOT
ATOM      1  C   UNL d   1       1.029  -0.205  -0.379  0.00  0.00     0.222 C 
ATOM      2  N   UNL d   1       0.185  -0.158  -1.481  0.00  0.00    -0.327 N 
ATOM      3  O   UNL d   1       2.179  -0.627  -0.371  0.00  0.00    -0.273 OA
ATOM      4  H   UNL d   1      -0.686   0.345  -1.365  0.00  0.00     0.169 HD
ENDROOT
BRANCH   2   5
ATOM      5  C   UNL d   1       0.337  -0.856  -2.701  0.00  0.00     0.034 A 
ATOM      6  C   UNL d   1       1.418  -1.694  -2.987  0.00  0.00     0.030 A 
ATOM      7  C   UNL d   1       1.401  -2.525  -4.116  0.00  0.00     0.020 A 
ATOM      8  C   UNL d   1       0.300  -2.521  -4.979  0.00  0.00     0.039 A 
ATOM      9  C   UNL d   1      -0.735  -1.608  -4.753  0.00  0.00     0.020 A 
ATOM     10  C   UNL d   1      -0.713  -0.778  -3.624  0.00  0.00     0.030 A 
BRANCH   8  11
ATOM     11  C   UNL d   1       0.137  -3.516  -6.078  0.00  0.00     0.293 C 
ATOM     12  O   UNL d   1      -0.850  -3.563  -6.793  0.00  0.00    -0.259 OA
BRANCH  11  13
ATOM     13  O   UNL d   1       1.179  -4.385  -6.101  0.00  0.00    -0.318 OA
BRANCH  13  14
ATOM     14  C   UNL d   1       1.028  -5.519  -6.969  0.00  0.00     0.174 C 
ATOM     15  C   UNL d   1       1.381  -5.165  -8.401  0.00  0.00     0.034 C 
ENDBRANCH  13  14
ENDBRANCH  11  13
ENDBRANCH   8  11
ENDBRANCH   2   5
BRANCH   1  16
ATOM     16  C   UNL d   1       0.331   0.304   0.883  0.00  0.00     0.112 C 
BRANCH  16  17
ATOM     17  C   UNL d   1       1.146   0.306   2.208  0.00  0.00    -0.030 C 
ATOM     18  C   UNL d   1       0.213   0.805   3.340  0.00  0.00     0.016 C 
ATOM     19  C   UNL d   1       1.581  -1.127   2.596  0.00  0.00     0.016 C 
BRANCH  17  20
ATOM     20  C   UNL d   1       2.431   1.175   2.148  0.00  0.00     0.119 C 
BRANCH  20  21
ATOM     21  C   UNL d   1       2.251   2.631   1.785  0.00  0.00     0.140 C 
ATOM     22  O   UNL d   1       1.183   3.207   1.637  0.00  0.00    -0.650 OA
BRANCH  21  23
ATOM     23  O   UNL d   1       3.437   3.272   1.651  0.00  0.00    -0.776 OA
ATOM     24  H   UNL d   1       4.211   2.692   1.778  0.00  0.00     0.167 HD
ENDBRANCH  21  23
ENDBRANCH  20  21
ENDBRANCH  17  20
ENDBRANCH  16  17
ENDBRANCH   1  16
TORSDOF 9
