REMARK  6 active torsions:
REMARK  status: ('A' for Active; 'I' for Inactive)
REMARK    1  A    between atoms: C_4  and  N_1 
REMARK    2  A    between atoms: C_5  and  C_4 
REMARK    3  A    between atoms: O_11  and  C_5 
REMARK    4  A    between atoms: C_12  and  N_6 
REMARK    5  A    between atoms: C_13  and  C_12 
REMARK    6  A    between atoms: C_14  and  C_13 
ROOT
ATOM      1  C   UNL d   1       3.808  -0.060   0.075  0.00  0.00     0.132 C 
ATOM      2  N   UNL d   1       4.516  -0.802  -2.680  0.00  0.00     0.088 N 
ATOM      3  C   UNL d   1       4.316   0.978  -0.931  0.00  0.00     0.082 C 
ATOM      4  C   UNL d   1       4.297  -1.466  -0.282  0.00  0.00     0.082 C 
ATOM      5  C   UNL d   1       4.027   0.547  -2.371  0.00  0.00     0.276 C 
ATOM      6  C   UNL d   1       3.979  -1.795  -1.740  0.00  0.00     0.276 C 
ENDROOT
BRANCH   1   7
ATOM      7  C   UNL d   1       2.288  -0.060   0.075  0.00  0.00    -0.039 C 
BRANCH   7   8
ATOM      8  N   UNL d   1       1.028  -0.060   0.075  0.00  0.00    -0.367 N 
ATOM      9  HN2 UNL d   1       2.048  -0.060   0.075  1.00  0.00     0.165 HD
ATOM     10  HN1 UNL d   1       0.008  -0.060   0.075  1.00  0.00     0.165 HD
ENDBRANCH   7   8
ENDBRANCH   1   7
BRANCH   1  11
ATOM     11  O   UNL d   1       4.306   0.270   1.379  0.00  0.00    -0.377 OA
ATOM     12  H   UNL d   1       3.876   1.096   1.661  0.00  0.00     0.211 HD
ENDBRANCH   1  11
BRANCH   2  13
ATOM     13  C   UNL d   1       5.981  -0.835  -2.819  0.00  0.00     0.272 C 
BRANCH  13  14
ATOM     14  C   UNL d   1       6.537  -2.167  -3.341  0.00  0.00     0.030 C 
BRANCH  14  15
ATOM     15  C   UNL d   1       5.959  -2.561  -4.701  0.00  0.00    -0.003 C 
ATOM     16  C   UNL d   1       6.492  -3.909  -5.155  0.00  0.00     0.005 C 
ENDBRANCH  14  15
ENDBRANCH  13  14
ENDBRANCH   2  13
TORSDOF 6
