REMARK  6 active torsions:
REMARK  status: ('A' for Active; 'I' for Inactive)
REMARK    1  A    between atoms: C_9  and  N_6 
REMARK    2  A    between atoms: C_11  and  C_9 
REMARK    3  A    between atoms: C_10  and  N_15 
REMARK    4  A    between atoms: N_14  and  C_10 
REMARK       I    between atoms: N_16  and  C_11 
REMARK    5  A    between atoms: C_18  and  N_14 
REMARK    6  A    between atoms: N_15  and  N_16 
ROOT
ATOM      1  C   UNL d   1       2.868   1.202  -0.373  0.00  0.00     0.257 C 
ATOM      2  N   UNL d   1       3.251  -0.136  -0.475  0.00  0.00    -0.266 N 
ATOM      3  O   UNL d   1       3.576   2.166  -0.630  0.00  0.00    -0.270 OA
ATOM      4  H   UNL d   1       2.518  -0.756  -0.819  0.00  0.00     0.190 HD
ENDROOT
BRANCH   2   5
ATOM      5  N   UNL d   1       4.543  -0.467  -0.926  0.00  0.00    -0.273 N 
ATOM      6  H   UNL d   1       4.591  -1.083  -1.733  0.00  0.00     0.189 HD
BRANCH   5   7
ATOM      7  C   UNL d   1       5.639  -0.459  -0.081  0.00  0.00     0.191 C 
ATOM      8  S   UNL d   1       5.988   0.640   1.125  0.00  0.00    -0.039 SA
BRANCH   7   9
ATOM      9  N   UNL d   1       6.557  -1.446  -0.364  0.00  0.00    -0.332 N 
ATOM     10  H   UNL d   1       7.503  -1.213  -0.072  0.00  0.00     0.168 HD
BRANCH   9  11
ATOM     11  C   UNL d   1       6.286  -2.838  -0.286  0.00  0.00     0.036 A 
ATOM     12  C   UNL d   1       7.284  -3.712  -0.724  0.00  0.00     0.056 A 
ATOM     13  C   UNL d   1       7.117  -5.092  -0.583  0.00  0.00     0.074 A 
ATOM     14 CL   UNL d   1       8.343  -6.153  -1.163  0.00  0.00    -0.081 Cl
ATOM     15  C   UNL d   1       5.972  -5.594   0.029  0.00  0.00     0.138 A 
ATOM     16  C   UNL d   1       4.978  -4.734   0.480  0.00  0.00     0.046 A 
ATOM     17  F   UNL d   1       5.814  -6.914   0.211  0.00  0.00    -0.204 F 
ATOM     18  C   UNL d   1       5.124  -3.351   0.309  0.00  0.00     0.032 A 
ENDBRANCH   9  11
ENDBRANCH   7   9
ENDBRANCH   5   7
ENDBRANCH   2   5
BRANCH   1  19
ATOM     19  C   UNL d   1       1.453   1.357   0.119  0.00  0.00     0.272 C 
BRANCH  19  20
ATOM     20  N   UNL d   1       0.520   1.241  -0.968  0.00  0.00    -0.194 N 
ATOM     21  N   UNL d   1       0.728   0.433  -2.028  0.00  0.00    -0.115 N 
ATOM     22  C   UNL d   1      -0.293   0.810  -2.808  0.00  0.00     0.709 C 
ATOM     23  HN  UNL d   1       1.455  -0.264  -2.189  1.00  0.00     0.207 HD
ATOM     24  N   UNL d   1      -1.157   1.665  -2.160  0.00  0.00    -0.113 N 
ATOM     25  N   UNL d   1      -0.522   0.436  -4.075  0.00  0.00    -0.215 N 
ATOM     26  N   UNL d   1      -0.646   1.903  -0.962  0.00  0.00     0.011 NA
ATOM     27  HN  UNL d   1      -2.028   2.043  -2.533  1.00  0.00     0.203 HD
ATOM     28  C   UNL d   1      -1.507   1.091  -4.914  0.00  0.00     0.141 C 
ATOM     29  C   UNL d   1       0.365  -0.422  -4.835  0.00  0.00     0.141 C 
ATOM     30  C   UNL d   1      -1.596   0.161  -6.115  0.00  0.00     0.022 C 
ATOM     31  C   UNL d   1      -0.170  -0.349  -6.268  0.00  0.00     0.022 C 
ENDBRANCH  19  20
ENDBRANCH   1  19
TORSDOF 6
