REMARK  4 active torsions:
REMARK  status: ('A' for Active; 'I' for Inactive)
REMARK    1  A    between atoms: N_9  and  C_3 
REMARK    2  A    between atoms: C_10  and  C_4 
REMARK       I    between atoms: C_7  and  N_8 
REMARK    3  A    between atoms: C_11  and  C_7 
REMARK    4  A    between atoms: N_8  and  N_9 
ROOT
ATOM      1  N   UNL d   1       1.302  -0.637  -0.574  0.00  0.00    -0.334 N 
ATOM      2  HN  UNL d   1       2.047  -1.102  -1.094  1.00  0.00     0.168 HD
ATOM      3  C   UNL d   1       0.281  -1.249  -0.009  0.00  0.00     0.163 A 
ATOM      4  C   UNL d   1       1.219   0.732  -0.358  0.00  0.00     0.051 A 
ATOM      5  S   UNL d   1      -0.828  -0.217   0.808  0.00  0.00    -0.062 SA
ATOM      6  C   UNL d   1       0.126   1.138   0.382  0.00  0.00     0.083 A 
ENDROOT
BRANCH   3   7
ATOM      7  N   UNL d   1       0.066  -2.585  -0.033  0.00  0.00    -0.277 N 
ATOM      8  H   UNL d   1      -0.650  -2.970   0.590  0.00  0.00     0.189 HD
BRANCH   7   9
ATOM      9  N   UNL d   1       1.102  -3.491  -0.293  0.00  0.00    -0.264 N 
ATOM     10  C   UNL d   1       1.034  -4.707   0.360  0.00  0.00     0.270 C 
ATOM     11  O   UNL d   1       0.095  -5.020   1.089  0.00  0.00    -0.266 OA
ATOM     12  H   UNL d   1       1.966  -3.082  -0.641  0.00  0.00     0.190 HD
BRANCH  10  13
ATOM     13  C   UNL d   1       2.176  -5.639   0.156  0.00  0.00     0.033 A 
ATOM     14  C   UNL d   1       2.433  -6.612   1.135  0.00  0.00     0.019 A 
ATOM     15  C   UNL d   1       3.469  -7.533   0.956  0.00  0.00     0.025 A 
ATOM     16  C   UNL d   1       4.241  -7.488  -0.203  0.00  0.00     0.034 A 
ATOM     17  C   UNL d   1       3.989  -6.530  -1.184  0.00  0.00     0.025 A 
ATOM     18 CL   UNL d   1       5.503  -8.634  -0.435  0.00  0.00    -0.084 Cl
ATOM     19  C   UNL d   1       2.955  -5.604  -1.008  0.00  0.00     0.019 A 
ENDBRANCH  10  13
ENDBRANCH   7   9
ENDBRANCH   3   7
BRANCH   4  20
ATOM     20  C   UNL d   1       2.205   1.653  -0.913  0.00  0.00    -0.009 A 
ATOM     21  C   UNL d   1       2.800   1.368  -2.151  0.00  0.00     0.017 A 
ATOM     22  C   UNL d   1       3.734   2.245  -2.710  0.00  0.00     0.043 A 
ATOM     23  C   UNL d   1       4.080   3.404  -2.027  0.00  0.00     0.116 A 
ATOM     24  C   UNL d   1       3.510   3.704  -0.795  0.00  0.00     0.043 A 
ATOM     25  F   UNL d   1       4.976   4.245  -2.559  0.00  0.00    -0.206 F 
ATOM     26  C   UNL d   1       2.572   2.829  -0.238  0.00  0.00     0.017 A 
ENDBRANCH   4  20
TORSDOF 4
