REMARK  4 active torsions:
REMARK  status: ('A' for Active; 'I' for Inactive)
REMARK    1  A    between atoms: N_2  and  C_1 
REMARK    2  A    between atoms: N_7  and  C_1 
REMARK    3  A    between atoms: C_3  and  N_2 
REMARK    4  A    between atoms: N_11  and  N_7 
ROOT
ATOM      1  N   UNL d   1       0.469   1.038   0.626  0.00  0.00    -0.330 N 
ATOM      2  H   UNL d   1      -0.517   0.937   0.837  0.00  0.00     0.168 HD
ENDROOT
BRANCH   1   3
ATOM      3  C   UNL d   1       0.933   0.149  -0.299  0.00  0.00     0.186 C 
ATOM      4  S   UNL d   1      -0.144  -0.656  -1.287  0.00  0.00    -0.040 SA
BRANCH   3   5
ATOM      5  N   UNL d   1       2.264  -0.185  -0.328  0.00  0.00    -0.300 N 
ATOM      6  H   UNL d   1       2.494  -0.913  -1.006  0.00  0.00     0.183 HD
BRANCH   5   7
ATOM      7  N   UNL d   1       3.069  -0.145   0.839  0.00  0.00    -0.248 NA
ATOM      8  H   UNL d   1       2.457  -0.020   1.650  0.00  0.00     0.143 HD
ATOM      9  H   UNL d   1       3.640   0.702   0.789  0.00  0.00     0.143 HD
ENDBRANCH   5   7
ENDBRANCH   3   5
ENDBRANCH   1   3
BRANCH   1  10
ATOM     10  C   UNL d   1       1.082   2.219   1.101  0.00  0.00     0.073 A 
ATOM     11  C   UNL d   1       2.099   2.907   0.420  0.00  0.00     0.145 A 
ATOM     12  C   UNL d   1       2.676   4.053   0.958  0.00  0.00     0.086 A 
ATOM     13  F   UNL d   1       2.511   2.513  -0.793  0.00  0.00    -0.204 F 
ATOM     14  C   UNL d   1       2.228   4.521   2.183  0.00  0.00     0.119 A 
ATOM     15  C   UNL d   1       1.194   3.882   2.860  0.00  0.00     0.044 A 
ATOM     16  F   UNL d   1       2.793   5.609   2.721  0.00  0.00    -0.206 F 
ATOM     17  C   UNL d   1       0.605   2.742   2.309  0.00  0.00     0.036 A 
ENDBRANCH   1  10
TORSDOF 4
