REMARK  4 active torsions:
REMARK  status: ('A' for Active; 'I' for Inactive)
REMARK    1  A    between atoms: O_14  and  C_3 
REMARK    2  A    between atoms: S_11  and  C_4 
REMARK    3  A    between atoms: C_8  and  C_10 
REMARK    4  A    between atoms: C_10  and  S_11 
ROOT
ATOM      1  N   UNL d   1      -0.634   1.180   0.002  0.00  0.00    -0.317 N 
ATOM      2  HN  UNL d   1      -1.118   2.078  -0.002  1.00  0.00     0.170 HD
ATOM      3  C   UNL d   1      -1.286   0.013   0.003  0.00  0.00     0.149 A 
ATOM      4  C   UNL d   1       0.702   1.085   0.006  0.00  0.00     0.146 A 
ATOM      5  C   UNL d   1      -0.713  -1.239   0.007  0.00  0.00     0.011 A 
ATOM      6  N   UNL d   1       1.382  -0.074   0.013  0.00  0.00    -0.340 N 
ATOM      7  HN  UNL d   1       2.402  -0.085   0.020  1.00  0.00     0.167 HD
ATOM      8  C   UNL d   1       0.671  -1.223   0.011  0.00  0.00     0.017 A 
ATOM      9  C   UNL d   1      -1.509  -2.502   0.004  0.00  0.00     0.055 C 
ATOM     10  C   UNL d   1       1.480  -2.486   0.009  0.00  0.00     0.069 C 
ENDROOT
BRANCH   4  11
ATOM     11  S   UNL d   1       1.622   2.607  -0.015  0.00  0.00    -0.089 SA
BRANCH  11  12
ATOM     12  C   UNL d   1       3.315   1.938   0.021  0.00  0.00     0.126 C 
BRANCH  12  13
ATOM     13  C   UNL d   1       4.366   3.015  -0.069  0.00  0.00     0.012 A 
ATOM     14  C   UNL d   1       4.896   3.555   1.110  0.00  0.00     0.125 A 
ATOM     15  F   UNL d   1       4.460   3.114   2.299  0.00  0.00    -0.205 F 
ATOM     16  C   UNL d   1       5.887   4.534   1.093  0.00  0.00     0.043 A 
ATOM     17  C   UNL d   1       6.373   5.004  -0.122  0.00  0.00     0.005 A 
ATOM     18  C   UNL d   1       5.859   4.490  -1.312  0.00  0.00     0.024 A 
ATOM     19  C   UNL d   1       4.860   3.506  -1.287  0.00  0.00     0.044 A 
ATOM     20 CL   UNL d   1       4.290   2.921  -2.810  0.00  0.00    -0.084 Cl
ENDBRANCH  12  13
ENDBRANCH  11  12
ENDBRANCH   4  11
BRANCH   3  21
ATOM     21  O   UNL d   1      -2.639   0.161  -0.002  0.00  0.00    -0.346 OA
ATOM     22  H   UNL d   1      -2.710   1.133  -0.006  0.00  0.00     0.219 HD
ENDBRANCH   3  21
TORSDOF 4
