REMARK  6 active torsions:
REMARK  status: ('A' for Active; 'I' for Inactive)
REMARK    1  A    between atoms: N_2  and  S_1 
REMARK    2  A    between atoms: C_3  and  S_1 
REMARK    3  A    between atoms: C_13  and  C_5 
REMARK    4  A    between atoms: O_19  and  C_5 
REMARK    5  A    between atoms: O_21  and  C_8 
REMARK    6  A    between atoms: O_25  and  C_14 
ROOT
ATOM      1  N   UNL d   1       0.443   1.473  -0.311  0.00  0.00    -0.206 NA
ATOM      2  C   UNL d   1      -0.741   4.130   0.053  0.00  0.00     0.087 C 
ATOM      3  C   UNL d   1       0.511   3.895  -0.815  0.00  0.00     0.058 C 
ATOM      4  C   UNL d   1      -1.552   2.829   0.182  0.00  0.00     0.058 C 
ATOM      5  C   UNL d   1      -0.683   1.667   0.649  0.00  0.00     0.111 C 
ATOM      6  C   UNL d   1       1.318   2.679  -0.347  0.00  0.00     0.111 C 
ENDROOT
BRANCH   1   7
ATOM      7  S   UNL d   1       1.319   0.006  -0.068  0.00  0.00     0.243 S 
ATOM      8  O   UNL d   1       1.529  -0.154   1.358  0.00  0.00    -0.206 OA
ATOM      9  O   UNL d   1       2.421  -0.021  -1.005  0.00  0.00    -0.206 OA
BRANCH   7  10
ATOM     10  C   UNL d   1       0.156  -1.217  -0.616  0.00  0.00     0.077 A 
ATOM     11  C   UNL d   1      -0.246  -1.166  -1.954  0.00  0.00     0.064 A 
ATOM     12  C   UNL d   1      -1.171  -2.082  -2.464  0.00  0.00     0.102 A 
ATOM     13  C   UNL d   1      -1.702  -3.061  -1.602  0.00  0.00     0.101 A 
ATOM     14  C   UNL d   1      -1.263  -3.116  -0.264  0.00  0.00     0.041 A 
ATOM     15  C   UNL d   1      -0.334  -2.201   0.235  0.00  0.00     0.028 A 
BRANCH  12  16
ATOM     16  O   UNL d   1      -1.574  -2.061  -3.773  0.00  0.00    -0.353 OA
ATOM     17  C   UNL d   1      -1.030  -1.058  -4.622  0.00  0.00     0.210 C 
ENDBRANCH  12  16
BRANCH  13  18
ATOM     18  O   UNL d   1      -2.638  -4.024  -1.882  0.00  0.00    -0.353 OA
ATOM     19  C   UNL d   1      -3.213  -4.064  -3.180  0.00  0.00     0.210 C 
ENDBRANCH  13  18
ENDBRANCH   7  10
ENDBRANCH   1   7
BRANCH   2  20
ATOM     20  C   UNL d   1      -1.629   5.257  -0.502  0.00  0.00    -0.024 A 
ATOM     21  C   UNL d   1      -2.171   5.167  -1.800  0.00  0.00     0.012 A 
ATOM     22  C   UNL d   1      -3.028   6.153  -2.302  0.00  0.00     0.024 A 
ATOM     23  C   UNL d   1      -3.357   7.252  -1.516  0.00  0.00     0.034 A 
ATOM     24  C   UNL d   1      -2.830   7.374  -0.235  0.00  0.00     0.024 A 
ATOM     25 CL   UNL d   1      -4.431   8.451  -2.120  0.00  0.00    -0.084 Cl
ATOM     26  C   UNL d   1      -1.979   6.382   0.269  0.00  0.00     0.012 A 
ENDBRANCH   2  20
BRANCH   2  27
ATOM     27  O   UNL d   1      -0.284   4.476   1.370  0.00  0.00    -0.385 OA
ATOM     28  H   UNL d   1       0.198   5.319   1.301  0.00  0.00     0.211 HD
ENDBRANCH   2  27
TORSDOF 6
