REMARK  1 active torsions:
REMARK  status: ('A' for Active; 'I' for Inactive)
REMARK    1  A    between atoms: C_6  and  N_1 
ROOT
ATOM      1  N   UNL d   1       2.360  -0.713  -0.001  0.00  0.00    -0.220 N 
ATOM      2  C   UNL d   1       1.178  -1.474  -0.031  0.00  0.00     0.278 A 
ATOM      3  N   UNL d   1       2.370   0.664   0.155  0.00  0.00    -0.301 N 
ATOM      4  HN  UNL d   1       3.252   1.169   0.253  1.00  0.00     0.186 HD
ATOM      5  C   UNL d   1      -0.090  -0.720  -0.008  0.00  0.00     0.045 A 
ATOM      6  C   UNL d   1       1.243   1.299   0.175  0.00  0.00     0.120 A 
ATOM      7  O   UNL d   1       1.091  -2.701  -0.061  0.00  0.00    -0.265 OA
ATOM      8  C   UNL d   1      -0.058   0.661   0.062  0.00  0.00    -0.004 A 
ATOM      9  C   UNL d   1      -1.324  -1.379  -0.074  0.00  0.00     0.018 A 
ATOM     10  C   UNL d   1      -1.234   1.413   0.042  0.00  0.00     0.014 A 
ATOM     11  C   UNL d   1      -2.508  -0.640  -0.087  0.00  0.00     0.001 A 
ATOM     12  C   UNL d   1      -2.463   0.755  -0.038  0.00  0.00     0.001 A 
ENDROOT
BRANCH   1  13
ATOM     13  C   UNL d   1       3.665  -1.289  -0.152  0.00  0.00     0.060 A 
ATOM     14  C   UNL d   1       3.859  -2.530  -0.780  0.00  0.00     0.038 A 
ATOM     15  C   UNL d   1       5.139  -3.078  -0.957  0.00  0.00    -0.060 A 
ATOM     16  C   UNL d   1       5.312  -4.394  -1.656  0.00  0.00     0.048 C 
ATOM     17  C   UNL d   1       6.250  -2.387  -0.468  0.00  0.00     0.007 A 
ATOM     18  C   UNL d   1       6.085  -1.152   0.155  0.00  0.00     0.003 A 
ATOM     19  C   UNL d   1       4.806  -0.603   0.297  0.00  0.00     0.031 A 
ENDBRANCH   1  13
TORSDOF 1
