REMARK  9 active torsions:
REMARK  status: ('A' for Active; 'I' for Inactive)
REMARK    1  A    between atoms: N_16  and  C_3 
REMARK    2  A    between atoms: C_6  and  C_4 
REMARK    3  A    between atoms: S_11  and  C_5 
REMARK    4  A    between atoms: O_23  and  C_6 
REMARK    5  A    between atoms: C_10  and  C_15 
REMARK    6  A    between atoms: C_12  and  C_10 
REMARK    7  A    between atoms: C_15  and  S_11 
REMARK    8  A    between atoms: C_22  and  C_13 
REMARK    9  A    between atoms: C_26  and  O_23 
ROOT
ATOM      1  N   UNL d   1      -0.826  -4.148  -2.564  0.00  0.00    -0.327 N 
ATOM      2  HN  UNL d   1       0.038  -4.237  -2.029  1.00  0.00     0.169 HD
ATOM      3  C   UNL d   1      -0.995  -4.794  -3.730  0.00  0.00     0.097 A 
ATOM      4  C   UNL d   1      -2.147  -4.663  -4.482  0.00  0.00     0.092 A 
ATOM      5  C   UNL d   1      -1.841  -3.380  -2.129  0.00  0.00     0.145 A 
ATOM      6  N   UNL d   1      -2.978  -3.153  -2.808  0.00  0.00    -0.346 N 
ATOM      7  HN  UNL d   1      -3.702  -2.526  -2.458  1.00  0.00     0.167 HD
ATOM      8  C   UNL d   1      -3.102  -3.805  -3.979  0.00  0.00     0.111 A 
ENDROOT
BRANCH   5   9
ATOM      9  S   UNL d   1      -1.654  -2.617  -0.537  0.00  0.00    -0.086 SA
BRANCH   9  10
ATOM     10  C   UNL d   1      -3.410  -2.470  -0.076  0.00  0.00     0.166 C 
BRANCH  10  11
ATOM     11  C   UNL d   1      -4.114  -3.818  -0.005  0.00  0.00     0.169 C 
ATOM     12  O   UNL d   1      -3.517  -4.876   0.200  0.00  0.00    -0.291 OA
BRANCH  11  13
ATOM     13  C   UNL d   1      -5.608  -3.863  -0.121  0.00  0.00     0.011 A 
ATOM     14  C   UNL d   1      -6.396  -2.723  -0.295  0.00  0.00     0.016 A 
ATOM     15  C   UNL d   1      -7.795  -2.830  -0.358  0.00  0.00     0.013 A 
ATOM     16  C   UNL d   1      -8.453  -4.069  -0.252  0.00  0.00    -0.026 A 
ATOM     17  C   UNL d   1      -7.641  -5.206  -0.100  0.00  0.00     0.013 A 
ATOM     18  C   UNL d   1      -6.245  -5.106  -0.030  0.00  0.00     0.016 A 
BRANCH  16  19
ATOM     19  C   UNL d   1      -9.934  -4.165  -0.269  0.00  0.00    -0.026 A 
ATOM     20  C   UNL d   1     -10.615  -5.120   0.509  0.00  0.00     0.012 A 
ATOM     21  C   UNL d   1     -12.012  -5.199   0.518  0.00  0.00     0.001 A 
ATOM     22  C   UNL d   1     -12.765  -4.314  -0.245  0.00  0.00     0.000 A 
ATOM     23  C   UNL d   1     -12.121  -3.359  -1.025  0.00  0.00     0.001 A 
ATOM     24  C   UNL d   1     -10.723  -3.292  -1.042  0.00  0.00     0.012 A 
ENDBRANCH  16  19
ENDBRANCH  11  13
ENDBRANCH  10  11
ENDBRANCH   9  10
ENDBRANCH   5   9
BRANCH   3  25
ATOM     25  N   UNL d   1       0.110  -5.537  -4.147  0.00  0.00    -0.288 NA
ATOM     26  H   UNL d   1       0.792  -5.540  -3.391  0.00  0.00     0.125 HD
ATOM     27  H   UNL d   1      -0.150  -6.475  -4.443  0.00  0.00     0.125 HD
ENDBRANCH   3  25
BRANCH   4  28
ATOM     28  C   UNL d   1      -2.476  -5.403  -5.704  0.00  0.00     0.298 C 
ATOM     29  O   UNL d   1      -3.261  -4.988  -6.539  0.00  0.00    -0.259 OA
BRANCH  28  30
ATOM     30  O   UNL d   1      -1.970  -6.660  -5.624  0.00  0.00    -0.318 OA
BRANCH  30  31
ATOM     31  C   UNL d   1      -2.593  -7.627  -6.482  0.00  0.00     0.174 C 
ATOM     32  C   UNL d   1      -3.769  -8.234  -5.737  0.00  0.00     0.034 C 
ENDBRANCH  30  31
ENDBRANCH  28  30
ENDBRANCH   4  28
TORSDOF 9
