REMARK  5 active torsions:
REMARK  status: ('A' for Active; 'I' for Inactive)
REMARK    1  A    between atoms: N_4  and  C_1 
REMARK    2  A    between atoms: N_5  and  C_1 
REMARK    3  A    between atoms: C_3  and  N_4 
REMARK    4  A    between atoms: N_8  and  N_5 
REMARK    5  A    between atoms: C_11  and  N_8 
ROOT
ATOM      1  C   UNL d   1       0.899   0.291   0.216  0.00  0.00     0.187 C 
ATOM      2  S   UNL d   1       0.313   0.724  -1.294  0.00  0.00    -0.040 SA
ENDROOT
BRANCH   1   3
ATOM      3  N   UNL d   1       2.075   0.880   0.639  0.00  0.00    -0.331 N 
ATOM      4  H   UNL d   1       2.286   1.696   0.073  0.00  0.00     0.168 HD
BRANCH   3   5
ATOM      5  C   UNL d   1       2.617   0.861   1.949  0.00  0.00     0.058 A 
ATOM      6  C   UNL d   1       2.918  -0.307   2.682  0.00  0.00     0.082 A 
ATOM      7  C   UNL d   1       3.365  -0.197   4.008  0.00  0.00     0.058 A 
ATOM      8 CL   UNL d   1       2.850  -1.867   1.919  0.00  0.00    -0.080 Cl
ATOM      9 CL   UNL d   1       3.697  -1.578   4.995  0.00  0.00    -0.082 Cl
ATOM     10  C   UNL d   1       3.553   1.059   4.588  0.00  0.00     0.026 A 
ATOM     11  C   UNL d   1       3.328   2.213   3.842  0.00  0.00     0.004 A 
ATOM     12  C   UNL d   1       2.876   2.114   2.524  0.00  0.00     0.031 A 
ENDBRANCH   3   5
ENDBRANCH   1   3
BRANCH   1  13
ATOM     13  N   UNL d   1       0.234  -0.489   1.129  0.00  0.00    -0.293 N 
ATOM     14  H   UNL d   1       0.795  -1.107   1.709  0.00  0.00     0.183 HD
BRANCH  13  15
ATOM     15  N   UNL d   1      -1.031  -1.020   0.856  0.00  0.00    -0.204 NA
ATOM     16  H   UNL d   1      -1.426  -0.697  -0.032  0.00  0.00     0.153 HD
BRANCH  15  17
ATOM     17  C   UNL d   1      -1.955  -0.897   1.925  0.00  0.00     0.027 A 
ATOM     18  C   UNL d   1      -1.586  -0.527   3.228  0.00  0.00     0.025 A 
ATOM     19  C   UNL d   1      -2.519  -0.514   4.269  0.00  0.00     0.002 A 
ATOM     20  C   UNL d   1      -3.834  -0.898   4.029  0.00  0.00     0.000 A 
ATOM     21  C   UNL d   1      -4.215  -1.292   2.749  0.00  0.00     0.002 A 
ATOM     22  C   UNL d   1      -3.281  -1.295   1.708  0.00  0.00     0.025 A 
ENDBRANCH  15  17
ENDBRANCH  13  15
ENDBRANCH   1  13
TORSDOF 5
