REMARK  4 active torsions:
REMARK  status: ('A' for Active; 'I' for Inactive)
REMARK       I    between atoms: N_2  and  C_1 
REMARK    1  A    between atoms: C_3  and  C_1 
REMARK       I    between atoms: C_4  and  N_2 
REMARK    2  A    between atoms: O_11  and  C_4 
REMARK    3  A    between atoms: C_6  and  C_13 
REMARK    4  A    between atoms: C_13  and  O_11 
ROOT
ATOM      1  C   UNL d   1       0.824  -0.056  -0.081  0.00  0.00     0.264 C 
ATOM      2  N   UNL d   1       0.265  -1.204   0.468  0.00  0.00    -0.269 N 
ATOM      3  C   UNL d   1       0.828  -2.226   1.192  0.00  0.00     0.367 C 
ATOM      4  O   UNL d   1       2.018   0.178  -0.177  0.00  0.00    -0.267 OA
ATOM      5  O   UNL d   1       0.096  -2.924   1.892  0.00  0.00    -0.238 OA
ATOM      6  H   UNL d   1      -0.734  -1.205   0.619  0.00  0.00     0.174 HD
ENDROOT
BRANCH   1   7
ATOM      7  C   UNL d   1      -0.196   0.900  -0.609  0.00  0.00     0.092 A 
ATOM      8  C   UNL d   1      -1.347   1.145   0.152  0.00  0.00     0.133 A 
ATOM      9  F   UNL d   1      -1.488   0.587   1.364  0.00  0.00    -0.205 F 
ATOM     10  C   UNL d   1      -2.397   1.924  -0.329  0.00  0.00     0.043 A 
ATOM     11  C   UNL d   1      -2.303   2.493  -1.593  0.00  0.00     0.005 A 
ATOM     12  C   UNL d   1      -1.148   2.295  -2.353  0.00  0.00     0.025 A 
ATOM     13  C   UNL d   1      -0.091   1.506  -1.866  0.00  0.00     0.052 A 
ATOM     14 CL   UNL d   1       1.256   1.276  -2.921  0.00  0.00    -0.083 Cl
ENDBRANCH   1   7
BRANCH   3  15
ATOM     15  O   UNL d   1       2.168  -2.375   1.071  0.00  0.00    -0.299 OA
BRANCH  15  16
ATOM     16  C   UNL d   1       2.741  -3.416   1.886  0.00  0.00     0.221 C 
BRANCH  16  17
ATOM     17  C   UNL d   1       3.622  -4.372   1.103  0.00  0.00    -0.012 A 
ATOM     18  C   UNL d   1       4.105  -5.553   1.702  0.00  0.00     0.044 A 
ATOM     19  C   UNL d   1       4.922  -6.441   0.997  0.00  0.00     0.048 A 
ATOM     20 CL   UNL d   1       3.719  -5.968   3.337  0.00  0.00    -0.084 Cl
ATOM     21  C   UNL d   1       5.276  -6.151  -0.316  0.00  0.00     0.035 A 
ATOM     22  C   UNL d   1       4.825  -4.984  -0.926  0.00  0.00     0.024 A 
ATOM     23 CL   UNL d   1       6.283  -7.240  -1.188  0.00  0.00    -0.084 Cl
ATOM     24  C   UNL d   1       4.005  -4.097  -0.220  0.00  0.00     0.013 A 
ENDBRANCH  16  17
ENDBRANCH  15  16
ENDBRANCH   3  15
TORSDOF 4
