REMARK  5 active torsions:
REMARK  status: ('A' for Active; 'I' for Inactive)
REMARK    1  A    between atoms: N_7  and  S_1 
REMARK    2  A    between atoms: C_8  and  S_1 
REMARK    3  A    between atoms: C_9  and  C_2 
REMARK    4  A    between atoms: C_3  and  N_7 
REMARK    5  A    between atoms: C_17  and  C_6 
REMARK       I    between atoms: N_19  and  C_9 
ROOT
ATOM      1  C   UNL d   1       2.141   0.857   3.034  0.00  0.00     0.095 A 
ATOM      2  C   UNL d   1       0.877   1.028   2.488  0.00  0.00     0.046 A 
ATOM      3  S   UNL d   1       2.080   0.800   4.749  0.00  0.00    -0.082 SA
ATOM      4  C   UNL d   1      -0.109   1.181   3.517  0.00  0.00     0.045 A 
ATOM      5  C   UNL d   1       0.398   1.095   4.801  0.00  0.00     0.018 A 
ENDROOT
BRANCH   2   6
ATOM      6  N   UNL d   1       0.516   1.161   1.110  0.00  0.00    -0.180 NA
ATOM      7  H   UNL d   1      -0.297   1.775   1.013  0.00  0.00     0.146 HD
BRANCH   6   8
ATOM      8  S   UNL d   1       0.059  -0.269   0.271  0.00  0.00     0.246 S 
ATOM      9  O   UNL d   1      -1.377  -0.387   0.353  0.00  0.00    -0.206 OA
ATOM     10  O   UNL d   1       0.932  -1.338   0.719  0.00  0.00    -0.206 OA
BRANCH   8  11
ATOM     11  C   UNL d   1       0.544   0.139  -1.410  0.00  0.00     0.081 A 
ATOM     12  C   UNL d   1       1.838  -0.269  -1.791  0.00  0.00     0.033 A 
ATOM     13  C   UNL d   1       2.372   0.028  -3.052  0.00  0.00    -0.039 A 
ATOM     14  C   UNL d   1       3.815  -0.284  -3.328  0.00  0.00     0.050 C 
ATOM     15  C   UNL d   1       1.547   0.656  -3.985  0.00  0.00     0.040 A 
ATOM     16  C   UNL d   1       0.240   1.015  -3.639  0.00  0.00     0.032 A 
ATOM     17 CL   UNL d   1       2.104   1.034  -5.574  0.00  0.00    -0.084 Cl
ATOM     18  C   UNL d   1      -0.274   0.804  -2.339  0.00  0.00    -0.037 A 
ATOM     19  C   UNL d   1      -1.665   1.315  -2.093  0.00  0.00     0.050 C 
ENDBRANCH   8  11
ENDBRANCH   6   8
ENDBRANCH   2   6
BRANCH   1  20
ATOM     20  C   UNL d   1       3.457   0.744   2.435  0.00  0.00     0.258 C 
ATOM     21  O   UNL d   1       4.516   1.102   2.950  0.00  0.00    -0.267 OA
ATOM     22  N   UNL d   1       3.506   0.137   1.214  0.00  0.00    -0.365 N 
ATOM     23  H   UNL d   1       2.747  -0.498   0.987  0.00  0.00     0.159 HD
ATOM     24  H   UNL d   1       4.434  -0.119   0.907  0.00  0.00     0.159 HD
ENDBRANCH   1  20
BRANCH   5  25
ATOM     25  C   UNL d   1      -0.312   1.225   6.087  0.00  0.00    -0.019 A 
ATOM     26  C   UNL d   1      -1.658   0.840   6.189  0.00  0.00     0.013 A 
ATOM     27  C   UNL d   1      -2.371   1.019   7.378  0.00  0.00     0.001 A 
ATOM     28  C   UNL d   1      -1.747   1.579   8.490  0.00  0.00     0.000 A 
ATOM     29  C   UNL d   1      -0.407   1.947   8.417  0.00  0.00     0.001 A 
ATOM     30  C   UNL d   1       0.304   1.772   7.226  0.00  0.00     0.013 A 
ENDBRANCH   5  25
TORSDOF 5
