REMARK  7 active torsions:
REMARK  status: ('A' for Active; 'I' for Inactive)
REMARK    1  A    between atoms: C_7  and  C_1 
REMARK    2  A    between atoms: O_8  and  C_2 
REMARK    3  A    between atoms: C_3  and  C_10 
REMARK       I    between atoms: C_4  and  N_5 
REMARK    4  A    between atoms: C_15  and  C_4 
REMARK    5  A    between atoms: N_5  and  C_6 
REMARK    6  A    between atoms: O_25  and  C_7 
REMARK    7  A    between atoms: C_11  and  O_8 
ROOT
ATOM      1  C   UNL d   1       2.023   3.358   0.859  0.00  0.00     0.070 A 
ATOM      2  C   UNL d   1       2.709   5.613   0.165  0.00  0.00     0.050 A 
ATOM      3  C   UNL d   1       2.768   2.816  -0.199  0.00  0.00     0.102 A 
ATOM      4  C   UNL d   1       2.037   4.754   1.051  0.00  0.00     0.048 A 
ATOM      5  C   UNL d   1       3.435   5.054  -0.890  0.00  0.00     0.019 A 
ATOM      6  C   UNL d   1       3.469   3.670  -1.062  0.00  0.00     0.040 A 
ENDROOT
BRANCH   1   7
ATOM      7  N   UNL d   1       1.234   2.550   1.704  0.00  0.00    -0.320 N 
ATOM      8  C   UNL d   1       0.012   2.827   2.279  0.00  0.00     0.256 C 
ATOM      9  O   UNL d   1      -0.398   2.170   3.232  0.00  0.00    -0.267 OA
ATOM     10  H   UNL d   1       1.562   1.620   1.924  0.00  0.00     0.169 HD
BRANCH   8  11
ATOM     11  C   UNL d   1      -0.869   3.856   1.672  0.00  0.00     0.032 A 
ATOM     12  C   UNL d   1      -0.999   3.957   0.278  0.00  0.00     0.018 A 
ATOM     13  C   UNL d   1      -1.782   4.966  -0.279  0.00  0.00     0.025 A 
ATOM     14  C   UNL d   1      -2.469   5.845   0.556  0.00  0.00     0.034 A 
ATOM     15  C   UNL d   1      -2.390   5.715   1.944  0.00  0.00     0.025 A 
ATOM     16 CL   UNL d   1      -3.426   7.098  -0.133  0.00  0.00    -0.084 Cl
ATOM     17  C   UNL d   1      -1.592   4.715   2.506  0.00  0.00     0.018 A 
ENDBRANCH   8  11
ENDBRANCH   1   7
BRANCH   3  18
ATOM     18  O   UNL d   1       2.690   1.528  -0.679  0.00  0.00    -0.307 OA
BRANCH  18  19
ATOM     19  C   UNL d   1       2.594   0.420   0.080  0.00  0.00     0.099 A 
ATOM     20  C   UNL d   1       1.676  -0.564  -0.242  0.00  0.00     0.114 A 
ATOM     21  S   UNL d   1       1.832  -1.906   0.813  0.00  0.00    -0.093 SA
ATOM     22  C   UNL d   1       3.117  -1.175   1.673  0.00  0.00     0.053 A 
ATOM     23  C   UNL d   1       3.437   0.066   1.170  0.00  0.00     0.046 A 
BRANCH  20  24
ATOM     24  C   UNL d   1       0.660  -0.508  -1.280  0.00  0.00     0.302 C 
ATOM     25  O   UNL d   1       0.225   0.524  -1.782  0.00  0.00    -0.259 OA
BRANCH  24  26
ATOM     26  O   UNL d   1       0.265  -1.760  -1.652  0.00  0.00    -0.322 OA
ATOM     27  C   UNL d   1      -0.703  -1.816  -2.704  0.00  0.00     0.213 C 
ENDBRANCH  24  26
ENDBRANCH  20  24
ENDBRANCH  18  19
ENDBRANCH   3  18
BRANCH   2  28
ATOM     28  C   UNL d   1       2.602   7.113   0.297  0.00  0.00     0.417 C 
ATOM     29  F   UNL d   1       1.920   7.518   1.404  0.00  0.00    -0.166 F 
ATOM     30  F   UNL d   1       3.819   7.720   0.363  0.00  0.00    -0.166 F 
ATOM     31  F   UNL d   1       1.960   7.676  -0.763  0.00  0.00    -0.166 F 
ENDBRANCH   2  28
TORSDOF 7
