REMARK  3 active torsions:
REMARK  status: ('A' for Active; 'I' for Inactive)
REMARK    1  A    between atoms: C_4  and  C_1 
REMARK       I    between atoms: C_2  and  N_3 
REMARK    2  A    between atoms: C_7  and  C_2 
REMARK    3  A    between atoms: C_10  and  C_4 
ROOT
ATOM      1  C   UNL d   1       2.940  -6.293  -2.090  0.00  0.00     0.253 C 
ATOM      2  N   UNL d   1       2.846  -5.047  -1.455  0.00  0.00    -0.348 N 
ATOM      3  C   UNL d   1       2.584  -2.633   0.047  0.00  0.00     0.064 C 
ATOM      4  C   UNL d   1       1.687  -4.156  -1.644  0.00  0.00     0.127 C 
ATOM      5  C   UNL d   1       3.553  -4.912  -0.175  0.00  0.00     0.127 C 
ATOM      6  O   UNL d   1       3.523  -7.260  -1.593  0.00  0.00    -0.267 OA
ATOM      7  C   UNL d   1       2.073  -2.700  -1.387  0.00  0.00     0.032 C 
ATOM      8  C   UNL d   1       3.868  -3.451   0.166  0.00  0.00     0.032 C 
ENDROOT
BRANCH   3   9
ATOM      9  C   UNL d   1       2.655  -1.225   0.626  0.00  0.00     0.164 C 
ATOM     10  O   UNL d   1       3.692  -0.563   0.640  0.00  0.00    -0.292 OA
BRANCH   9  11
ATOM     11  C   UNL d   1       1.369  -0.649   1.149  0.00  0.00     0.022 A 
ATOM     12  C   UNL d   1       0.585  -1.368   2.085  0.00  0.00    -0.047 A 
ATOM     13  C   UNL d   1      -0.689  -0.886   2.425  0.00  0.00     0.014 A 
ATOM     14  C   UNL d   1       1.008  -2.641   2.770  0.00  0.00     0.049 C 
ATOM     15  C   UNL d   1      -1.160   0.331   1.936  0.00  0.00    -0.061 A 
ATOM     16  C   UNL d   1      -0.348   1.075   1.077  0.00  0.00     0.014 A 
ATOM     17  C   UNL d   1      -2.524   0.809   2.339  0.00  0.00     0.048 C 
ATOM     18  C   UNL d   1       0.910   0.597   0.660  0.00  0.00    -0.047 A 
ATOM     19  C   UNL d   1       1.718   1.493  -0.243  0.00  0.00     0.049 C 
ENDBRANCH   9  11
ENDBRANCH   3   9
BRANCH   1  20
ATOM     20  C   UNL d   1       2.327  -6.469  -3.432  0.00  0.00     0.032 A 
ATOM     21  C   UNL d   1       2.398  -5.456  -4.398  0.00  0.00     0.018 A 
ATOM     22  C   UNL d   1       1.766  -5.618  -5.630  0.00  0.00     0.025 A 
ATOM     23  C   UNL d   1       1.116  -6.817  -5.919  0.00  0.00     0.034 A 
ATOM     24  C   UNL d   1       1.102  -7.859  -4.991  0.00  0.00     0.025 A 
ATOM     25 CL   UNL d   1       0.332  -7.012  -7.438  0.00  0.00    -0.084 Cl
ATOM     26  C   UNL d   1       1.709  -7.686  -3.744  0.00  0.00     0.018 A 
ENDBRANCH   1  20
TORSDOF 3
