REMARK  5 active torsions:
REMARK  status: ('A' for Active; 'I' for Inactive)
REMARK    1  A    between atoms: N_2  and  S_1 
REMARK    2  A    between atoms: C_10  and  S_1 
REMARK    3  A    between atoms: C_3  and  N_8 
REMARK    4  A    between atoms: C_4  and  C_5 
REMARK       I    between atoms: C_17  and  N_20 
REMARK    5  A    between atoms: N_20  and  C_28 
ROOT
ATOM      1  N   UNL d   1       0.563  -0.580   1.272  0.00  0.00    -0.203 NA
ATOM      2  N   UNL d   1       2.033  -2.603   2.654  0.00  0.00    -0.364 N 
ATOM      3  C   UNL d   1       1.507  -0.227   2.390  0.00  0.00     0.127 C 
ATOM      4  C   UNL d   1       0.073  -1.992   1.379  0.00  0.00     0.127 C 
ATOM      5  C   UNL d   1       1.243  -2.987   1.475  0.00  0.00     0.140 C 
ATOM      6  C   UNL d   1       2.645  -1.270   2.525  0.00  0.00     0.140 C 
ENDROOT
BRANCH   1   7
ATOM      7  S   UNL d   1       1.010  -0.061  -0.281  0.00  0.00     0.243 S 
ATOM      8  O   UNL d   1       0.217  -0.766  -1.262  0.00  0.00    -0.206 OA
ATOM      9  O   UNL d   1       2.454  -0.027  -0.351  0.00  0.00    -0.206 OA
BRANCH   7  10
ATOM     10  C   UNL d   1       0.416   1.611  -0.249  0.00  0.00     0.074 A 
ATOM     11  C   UNL d   1       1.279   2.687  -0.442  0.00  0.00     0.027 A 
ATOM     12  C   UNL d   1       0.771   3.990  -0.378  0.00  0.00     0.031 A 
ATOM     13  C   UNL d   1      -0.589   4.217  -0.115  0.00  0.00     0.034 A 
ATOM     14  C   UNL d   1      -1.442   3.123   0.055  0.00  0.00     0.031 A 
ATOM     15  C   UNL d   1      -0.943   1.821  -0.013  0.00  0.00     0.027 A 
BRANCH  13  16
ATOM     16  N   UNL d   1      -1.024   5.558  -0.028  0.00  0.00    -0.328 N 
ATOM     17  C   UNL d   1      -2.298   6.002   0.278  0.00  0.00     0.218 C 
ATOM     18  O   UNL d   1      -3.288   5.309   0.500  0.00  0.00    -0.274 OA
ATOM     19  C   UNL d   1      -2.410   7.503   0.339  0.00  0.00     0.117 C 
ATOM     20  H   UNL d   1      -0.315   6.263  -0.178  0.00  0.00     0.169 HD
ENDBRANCH  13  16
ENDBRANCH   7  10
ENDBRANCH   1   7
BRANCH   2  21
ATOM     21  C   UNL d   1       2.691  -3.601   3.351  0.00  0.00     0.125 A 
ATOM     22  N   UNL d   1       2.979  -4.751   2.689  0.00  0.00    -0.350 N 
ATOM     23  C   UNL d   1       3.507  -5.789   3.379  0.00  0.00     0.106 A 
ATOM     24  HN  UNL d   1       2.800  -4.831   1.688  1.00  0.00     0.166 HD
ATOM     25  C   UNL d   1       3.773  -5.764   4.739  0.00  0.00     0.065 A 
ATOM     26  C   UNL d   1       3.494  -4.580   5.419  0.00  0.00     0.045 A 
ATOM     27  C   UNL d   1       2.945  -3.494   4.732  0.00  0.00     0.078 A 
ATOM     28 CL   UNL d   1       2.468  -2.131   5.688  0.00  0.00    -0.080 Cl
BRANCH  25  29
ATOM     29  C   UNL d   1       4.295  -6.981   5.431  0.00  0.00     0.418 C 
ATOM     30  F   UNL d   1       4.478  -6.802   6.770  0.00  0.00    -0.166 F 
ATOM     31  F   UNL d   1       3.458  -8.046   5.311  0.00  0.00    -0.166 F 
ATOM     32  F   UNL d   1       5.496  -7.386   4.941  0.00  0.00    -0.166 F 
ENDBRANCH  25  29
ENDBRANCH   2  21
TORSDOF 5
