REMARK  4 active torsions:
REMARK  status: ('A' for Active; 'I' for Inactive)
REMARK    1  A    between atoms: C_2  and  C_1 
REMARK       I    between atoms: N_10  and  C_2 
REMARK    2  A    between atoms: C_9  and  C_4 
REMARK    3  A    between atoms: C_6  and  N_11 
REMARK    4  A    between atoms: C_19  and  C_7 
ROOT
ATOM      1  C   UNL d   1       0.019  -2.488   0.287  0.00  0.00     0.256 C 
ATOM      2  N   UNL d   1      -1.059  -3.364   0.126  0.00  0.00    -0.346 N 
ATOM      3  N   UNL d   1      -3.226  -5.227  -0.162  0.00  0.00    -0.266 NA
ATOM      4  O   UNL d   1       0.882  -2.670   1.143  0.00  0.00    -0.267 OA
ATOM      5  C   UNL d   1      -1.768  -3.561  -1.150  0.00  0.00     0.141 C 
ATOM      6  C   UNL d   1      -1.153  -4.523   1.030  0.00  0.00     0.141 C 
ATOM      7  C   UNL d   1      -2.597  -5.069   1.175  0.00  0.00     0.117 C 
ATOM      8  C   UNL d   1      -3.230  -3.948  -0.895  0.00  0.00     0.117 C 
ENDROOT
BRANCH   1   9
ATOM      9  C   UNL d   1       0.068  -1.322  -0.589  0.00  0.00     0.064 C 
ATOM     10  C   UNL d   1      -1.008  -0.521  -1.073  0.00  0.00     0.057 C 
ATOM     11  C   UNL d   1      -0.480   0.373  -1.975  0.00  0.00     0.087 C 
ATOM     12  O   UNL d   1       0.880   0.282  -1.959  0.00  0.00    -0.314 OA
ATOM     13  C   UNL d   1       1.212  -0.731  -1.102  0.00  0.00     0.065 C 
ATOM     14  C   UNL d   1       2.661  -0.988  -0.954  0.00  0.00     0.077 C 
BRANCH  11  15
ATOM     15  C   UNL d   1      -1.077   1.307  -2.919  0.00  0.00    -0.002 A 
ATOM     16  C   UNL d   1      -0.420   2.479  -3.306  0.00  0.00     0.014 A 
ATOM     17  C   UNL d   1      -1.022   3.367  -4.203  0.00  0.00     0.001 A 
ATOM     18  C   UNL d   1      -2.283   3.085  -4.729  0.00  0.00     0.000 A 
ATOM     19  C   UNL d   1      -2.942   1.915  -4.364  0.00  0.00     0.001 A 
ATOM     20  C   UNL d   1      -2.343   1.032  -3.463  0.00  0.00     0.014 A 
ENDBRANCH  11  15
ENDBRANCH   1   9
BRANCH   3  21
ATOM     21  C   UNL d   1      -4.422  -5.942  -0.186  0.00  0.00     0.097 A 
ATOM     22  C   UNL d   1      -4.932  -6.503  -1.363  0.00  0.00     0.086 A 
ATOM     23  C   UNL d   1      -6.140  -7.226  -1.297  0.00  0.00     0.021 A 
ATOM     24  C   UNL d   1      -6.782  -7.411  -0.086  0.00  0.00     0.018 A 
ATOM     25  C   UNL d   1      -6.200  -6.855   1.030  0.00  0.00     0.089 A 
ATOM     26  N   UNL d   1      -5.055  -6.135   0.997  0.00  0.00    -0.356 N 
ATOM     27  HN  UNL d   1      -4.670  -5.741   1.855  1.00  0.00     0.166 HD
BRANCH  22  28
ATOM     28  C   UNL d   1      -4.266  -6.385  -2.704  0.00  0.00     0.420 C 
ATOM     29  F   UNL d   1      -2.916  -6.203  -2.692  0.00  0.00    -0.166 F 
ATOM     30  F   UNL d   1      -4.464  -7.487  -3.488  0.00  0.00    -0.166 F 
ATOM     31  F   UNL d   1      -4.771  -5.344  -3.432  0.00  0.00    -0.166 F 
ENDBRANCH  22  28
ENDBRANCH   3  21
TORSDOF 4
