REMARK  7 active torsions:
REMARK  status: ('A' for Active; 'I' for Inactive)
REMARK    1  A    between atoms: C_4  and  C_1 
REMARK    2  A    between atoms: C_8  and  C_2 
REMARK    3  A    between atoms: C_7  and  C_14 
REMARK    4  A    between atoms: O_13  and  C_8 
REMARK    5  A    between atoms: N_10  and  O_13 
REMARK    6  A    between atoms: C_15  and  C_12 
REMARK    7  A    between atoms: N_27  and  C_12 
ROOT
ATOM      1  N   UNL d   1      -1.991  -3.420  -0.263  0.00  0.00    -0.246 N 
ATOM      2  HN  UNL d   1      -1.061  -3.728  -0.546  1.00  0.00     0.196 HD
ATOM      3  C   UNL d   1      -2.950  -4.231   0.070  0.00  0.00     0.109 C 
ENDROOT
BRANCH   1   4
ATOM      4  O   UNL d   1      -2.379  -2.062  -0.188  0.00  0.00    -0.193 OA
BRANCH   4   5
ATOM      5  C   UNL d   1      -1.344  -1.265  -0.618  0.00  0.00     0.320 C 
ATOM      6  O   UNL d   1      -0.274  -1.687  -1.049  0.00  0.00    -0.257 OA
BRANCH   5   7
ATOM      7  C   UNL d   1      -1.610   0.161  -0.519  0.00  0.00     0.106 A 
ATOM      8  C   UNL d   1      -2.767   0.832  -0.151  0.00  0.00     0.200 A 
ATOM      9  O   UNL d   1      -2.534   2.173  -0.182  0.00  0.00    -0.232 OA
ATOM     10  N   UNL d   1      -1.252   2.421  -0.596  0.00  0.00    -0.264 N 
ATOM     11  C   UNL d   1      -0.695   1.225  -0.813  0.00  0.00     0.048 A 
ATOM     12  HN  UNL d   1      -0.811   3.333  -0.713  1.00  0.00     0.194 HD
ATOM     13  C   UNL d   1       0.705   1.186  -1.310  0.00  0.00     0.071 C 
BRANCH   8  14
ATOM     14  C   UNL d   1      -4.147   0.495   0.245  0.00  0.00     0.442 C 
ATOM     15  F   UNL d   1      -4.462  -0.814   0.072  0.00  0.00    -0.164 F 
ATOM     16  F   UNL d   1      -4.385   0.781   1.550  0.00  0.00    -0.164 F 
ATOM     17  F   UNL d   1      -5.061   1.193  -0.480  0.00  0.00    -0.164 F 
ENDBRANCH   8  14
ENDBRANCH   5   7
ENDBRANCH   4   5
ENDBRANCH   1   4
BRANCH   3  18
ATOM     18  C   UNL d   1      -2.651  -5.702   0.051  0.00  0.00     0.004 A 
ATOM     19  C   UNL d   1      -3.380  -6.587   0.854  0.00  0.00     0.015 A 
ATOM     20  C   UNL d   1      -3.109  -7.960   0.818  0.00  0.00     0.017 A 
ATOM     21  C   UNL d   1      -2.107  -8.470  -0.021  0.00  0.00     0.048 A 
ATOM     22  C   UNL d   1      -1.367  -7.575  -0.810  0.00  0.00     0.017 A 
ATOM     23  C   UNL d   1      -1.632  -6.202  -0.771  0.00  0.00     0.015 A 
BRANCH  21  24
ATOM     24  C   UNL d   1      -1.824  -9.953  -0.090  0.00  0.00     0.417 C 
ATOM     25  F   UNL d   1      -2.576 -10.691   0.773  0.00  0.00    -0.166 F 
ATOM     26  F   UNL d   1      -2.067 -10.469  -1.327  0.00  0.00    -0.166 F 
ATOM     27  F   UNL d   1      -0.527 -10.255   0.193  0.00  0.00    -0.166 F 
ENDBRANCH  21  24
ENDBRANCH   3  18
BRANCH   3  28
ATOM     28  N   UNL d   1      -4.216  -3.818   0.416  0.00  0.00    -0.286 NA
ATOM     29  H   UNL d   1      -4.407  -2.853   0.159  0.00  0.00     0.125 HD
ATOM     30  H   UNL d   1      -4.970  -4.440   0.142  0.00  0.00     0.125 HD
ENDBRANCH   3  28
TORSDOF 7
