REMARK  4 active torsions:
REMARK  status: ('A' for Active; 'I' for Inactive)
REMARK    1  A    between atoms: C_4  and  C_1 
REMARK       I    between atoms: C_2  and  N_3 
REMARK    2  A    between atoms: C_6  and  C_2 
REMARK    3  A    between atoms: N_3  and  C_19 
REMARK    4  A    between atoms: C_5  and  C_7 
ROOT
ATOM      1  C   UNL d   1      -0.745  -1.992   5.973  0.00  0.00     0.256 C 
ATOM      2  N   UNL d   1      -0.189  -0.835   5.452  0.00  0.00    -0.323 N 
ATOM      3  O   UNL d   1      -1.472  -2.085   6.957  0.00  0.00    -0.267 OA
ATOM      4  H   UNL d   1       0.371  -0.924   4.617  0.00  0.00     0.169 HD
ENDROOT
BRANCH   1   5
ATOM      5  C   UNL d   1      -0.453  -3.235   5.209  0.00  0.00     0.032 A 
ATOM      6  C   UNL d   1       0.783  -3.471   4.603  0.00  0.00     0.018 A 
ATOM      7  C   UNL d   1       0.967  -4.623   3.824  0.00  0.00     0.013 A 
ATOM      8  C   UNL d   1      -0.070  -5.553   3.613  0.00  0.00    -0.023 A 
ATOM      9  C   UNL d   1      -1.279  -5.322   4.295  0.00  0.00     0.013 A 
ATOM     10  C   UNL d   1      -1.466  -4.187   5.091  0.00  0.00     0.018 A 
BRANCH   8  11
ATOM     11  C   UNL d   1       0.087  -6.705   2.687  0.00  0.00     0.013 A 
ATOM     12  C   UNL d   1       0.877  -6.628   1.524  0.00  0.00     0.127 A 
ATOM     13  F   UNL d   1       1.529  -5.497   1.212  0.00  0.00    -0.205 F 
ATOM     14  C   UNL d   1       0.999  -7.696   0.633  0.00  0.00     0.043 A 
ATOM     15  C   UNL d   1       0.314  -8.881   0.871  0.00  0.00     0.003 A 
ATOM     16  C   UNL d   1      -0.482  -8.994   2.005  0.00  0.00     0.001 A 
ATOM     17  C   UNL d   1      -0.587  -7.924   2.904  0.00  0.00     0.015 A 
ENDBRANCH   8  11
ENDBRANCH   1   5
BRANCH   2  18
ATOM     18  C   UNL d   1      -0.344   0.477   5.952  0.00  0.00     0.035 A 
ATOM     19  C   UNL d   1      -1.172   0.805   7.026  0.00  0.00     0.030 A 
ATOM     20  C   UNL d   1      -1.234   2.118   7.505  0.00  0.00     0.018 A 
ATOM     21  C   UNL d   1      -0.463   3.131   6.923  0.00  0.00     0.048 A 
ATOM     22  C   UNL d   1       0.335   2.812   5.816  0.00  0.00     0.018 A 
ATOM     23  C   UNL d   1       0.389   1.498   5.333  0.00  0.00     0.030 A 
BRANCH  21  24
ATOM     24  C   UNL d   1      -0.491   4.522   7.506  0.00  0.00     0.417 C 
ATOM     25  F   UNL d   1       0.343   5.395   6.875  0.00  0.00    -0.166 F 
ATOM     26  F   UNL d   1      -0.122   4.540   8.818  0.00  0.00    -0.166 F 
ATOM     27  F   UNL d   1      -1.729   5.087   7.459  0.00  0.00    -0.166 F 
ENDBRANCH  21  24
ENDBRANCH   2  18
TORSDOF 4
