REMARK  6 active torsions:
REMARK  status: ('A' for Active; 'I' for Inactive)
REMARK    1  A    between atoms: C_3  and  C_1 
REMARK    2  A    between atoms: N_5  and  C_2 
REMARK       I    between atoms: C_4  and  N_6 
REMARK    3  A    between atoms: C_7  and  C_4 
REMARK    4  A    between atoms: O_19  and  C_24 
REMARK    5  A    between atoms: C_20  and  O_19 
REMARK    6  A    between atoms: C_24  and  C_21 
ROOT
ATOM      1  C   UNL d   1      -3.825   5.765   0.757  0.00  0.00     0.253 C 
ATOM      2  N   UNL d   1      -1.409   2.359   0.443  0.00  0.00    -0.363 N 
ATOM      3  N   UNL d   1      -2.837   4.787   0.787  0.00  0.00    -0.345 N 
ATOM      4  C   UNL d   1      -1.746   3.145  -0.766  0.00  0.00     0.144 C 
ATOM      5  C   UNL d   1      -2.468   2.464   1.469  0.00  0.00     0.144 C 
ATOM      6  C   UNL d   1      -2.490   3.931   1.929  0.00  0.00     0.146 C 
ATOM      7  C   UNL d   1      -1.910   4.635  -0.355  0.00  0.00     0.146 C 
ATOM      8  O   UNL d   1      -3.891   6.605  -0.138  0.00  0.00    -0.267 OA
ENDROOT
BRANCH   1   9
ATOM      9  C   UNL d   1      -4.858   5.816   1.834  0.00  0.00     0.032 A 
ATOM     10  C   UNL d   1      -5.320   7.067   2.262  0.00  0.00     0.026 A 
ATOM     11  C   UNL d   1      -6.277   7.162   3.286  0.00  0.00    -0.033 A 
ATOM     12  C   UNL d   1      -6.755   5.988   3.888  0.00  0.00     0.009 A 
ATOM     13  C   UNL d   1      -6.331   4.741   3.437  0.00  0.00     0.002 A 
ATOM     14  C   UNL d   1      -5.426   4.658   2.380  0.00  0.00     0.017 A 
BRANCH  11  15
ATOM     15  C   UNL d   1      -6.847   8.499   3.687  0.00  0.00     0.214 C 
BRANCH  15  16
ATOM     16  O   UNL d   1      -8.013   8.722   2.895  0.00  0.00    -0.347 OA
BRANCH  16  17
ATOM     17  C   UNL d   1      -8.694   9.889   3.100  0.00  0.00     0.069 A 
ATOM     18  C   UNL d   1      -8.398  10.851   4.067  0.00  0.00     0.038 A 
ATOM     19  C   UNL d   1      -9.183  12.005   4.171  0.00  0.00     0.026 A 
ATOM     20  C   UNL d   1     -10.261  12.195   3.310  0.00  0.00     0.034 A 
ATOM     21  C   UNL d   1     -10.566  11.240   2.345  0.00  0.00     0.026 A 
ATOM     22 CL   UNL d   1     -11.219  13.618   3.441  0.00  0.00    -0.084 Cl
ATOM     23  C   UNL d   1      -9.782  10.088   2.243  0.00  0.00     0.038 A 
ENDBRANCH  16  17
ENDBRANCH  15  16
ENDBRANCH  11  15
ENDBRANCH   1   9
BRANCH   2  24
ATOM     24  C   UNL d   1      -0.856   1.098   0.288  0.00  0.00     0.118 A 
ATOM     25  C   UNL d   1      -0.042   0.541   1.280  0.00  0.00     0.091 A 
ATOM     26  C   UNL d   1       0.482  -0.749   1.073  0.00  0.00     0.021 A 
ATOM     27  C   UNL d   1       0.212  -1.436  -0.098  0.00  0.00     0.018 A 
ATOM     28  C   UNL d   1      -0.576  -0.803  -1.032  0.00  0.00     0.089 A 
ATOM     29  N   UNL d   1      -1.103   0.440  -0.866  0.00  0.00    -0.352 N 
ATOM     30  HN  UNL d   1      -1.672   0.866  -1.598  1.00  0.00     0.166 HD
BRANCH  25  31
ATOM     31  C   UNL d   1       0.351   1.237   2.553  0.00  0.00     0.421 C 
ATOM     32  F   UNL d   1      -0.057   2.523   2.725  0.00  0.00    -0.166 F 
ATOM     33  F   UNL d   1      -0.128   0.571   3.649  0.00  0.00    -0.166 F 
ATOM     34  F   UNL d   1       1.704   1.274   2.722  0.00  0.00    -0.166 F 
ENDBRANCH  25  31
ENDBRANCH   2  24
TORSDOF 6
