REMARK  3 active torsions:
REMARK  status: ('A' for Active; 'I' for Inactive)
REMARK    1  A    between atoms: N_2  and  C_1 
REMARK    2  A    between atoms: N_4  and  C_3 
REMARK    3  A    between atoms: O_15  and  C_13 
ROOT
ATOM      1  C   UNL d   1       1.372  -0.209   0.115  0.00  0.00     0.132 A 
ATOM      2  C   UNL d   1       0.555  -1.342  -0.015  0.00  0.00     0.071 A 
ATOM      3  C   UNL d   1       0.829   1.086   0.183  0.00  0.00     0.075 A 
ATOM      4  C   UNL d   1      -0.832  -1.132  -0.099  0.00  0.00     0.035 A 
ATOM      5  C   UNL d   1      -0.551   1.270   0.118  0.00  0.00     0.070 A 
ATOM      6  C   UNL d   1      -1.377   0.159  -0.033  0.00  0.00     0.039 A 
ENDROOT
BRANCH   2   7
ATOM      7  N   UNL d   1       1.038  -2.685  -0.041  0.00  0.00    -0.331 N 
ATOM      8  C   UNL d   1       2.180  -3.187   0.552  0.00  0.00     0.097 A 
ATOM      9  C   UNL d   1       2.275  -4.537   0.289  0.00  0.00     0.019 A 
ATOM     10  C   UNL d   1       1.141  -4.899  -0.460  0.00  0.00     0.019 A 
ATOM     11  C   UNL d   1       0.389  -3.757  -0.631  0.00  0.00     0.097 A 
ENDBRANCH   2   7
BRANCH   1  12
ATOM     12  N   UNL d   1       2.818  -0.275   0.042  0.00  0.00    -0.113 N 
ATOM     13  O   UNL d   1       3.313  -0.669  -1.023  0.00  0.00    -0.532 OA
ATOM     14  O   UNL d   1       3.447   0.104   1.038  0.00  0.00    -0.532 OA
ENDBRANCH   1  12
BRANCH   5  15
ATOM     15  O   UNL d   1      -0.963   2.569   0.205  0.00  0.00    -0.356 OA
ATOM     16  C   UNL d   1      -2.367   2.804   0.170  0.00  0.00     0.210 C 
ENDBRANCH   5  15
TORSDOF 3
