REMARK  2 active torsions:
REMARK  status: ('A' for Active; 'I' for Inactive)
REMARK    1  A    between atoms: C_7  and  N_1 
REMARK    2  A    between atoms: N_9  and  C_3 
ROOT
ATOM      1  N   UNL d   1       0.970  -0.657  -0.020  0.00  0.00    -0.262 N 
ATOM      2  C   UNL d   1       0.822   0.634   0.464  0.00  0.00     0.200 A 
ATOM      3  C   UNL d   1      -0.266  -0.973  -0.533  0.00  0.00     0.179 A 
ATOM      4  N   UNL d   1      -1.158  -0.026  -0.408  0.00  0.00    -0.273 N 
ATOM      5  HN  UNL d   1      -2.129  -0.039  -0.720  1.00  0.00     0.189 HD
ATOM      6  N   UNL d   1      -0.504   0.978   0.230  0.00  0.00    -0.273 N 
ATOM      7  S   UNL d   1       1.883   1.735   1.119  0.00  0.00    -0.039 SA
ATOM      8  H   UNL d   1      -0.938   1.873   0.419  0.00  0.00     0.189 HD
ENDROOT
BRANCH   1   9
ATOM      9  C   UNL d   1       2.133  -1.477  -0.020  0.00  0.00     0.044 A 
ATOM     10  C   UNL d   1       3.073  -1.420   1.017  0.00  0.00     0.031 A 
ATOM     11  C   UNL d   1       4.203  -2.248   1.024  0.00  0.00     0.009 A 
ATOM     12  C   UNL d   1       4.419  -3.166  -0.006  0.00  0.00    -0.062 A 
ATOM     13  C   UNL d   1       3.493  -3.234  -1.046  0.00  0.00     0.009 A 
ATOM     14  C   UNL d   1       5.627  -4.055   0.021  0.00  0.00     0.048 C 
ATOM     15  C   UNL d   1       2.371  -2.394  -1.055  0.00  0.00     0.031 A 
ENDBRANCH   1   9
BRANCH   3  16
ATOM     16  N   UNL d   1      -0.606  -2.174  -1.075  0.00  0.00    -0.272 NA
ATOM     17  H   UNL d   1      -0.165  -2.977  -0.643  0.00  0.00     0.127 HD
ATOM     18  H   UNL d   1      -1.612  -2.278  -1.151  0.00  0.00     0.127 HD
ENDBRANCH   3  16
TORSDOF 2
