REMARK  6 active torsions:
REMARK  status: ('A' for Active; 'I' for Inactive)
REMARK    1  A    between atoms: N_4  and  C_1 
REMARK    2  A    between atoms: N_5  and  C_1 
REMARK    3  A    between atoms: C_2  and  C_7 
REMARK    4  A    between atoms: C_3  and  C_6 
REMARK    5  A    between atoms: C_8  and  N_4 
REMARK    6  A    between atoms: C_9  and  N_5 
ROOT
ATOM      1  C   UNL d   1       0.993  -0.042  -0.170  0.00  0.00     0.176 C 
ATOM      2  S   UNL d   1       2.578   0.274  -0.596  0.00  0.00    -0.041 SA
ENDROOT
BRANCH   1   3
ATOM      3  N   UNL d   1       0.504  -1.224   0.331  0.00  0.00    -0.332 N 
ATOM      4  H   UNL d   1      -0.324  -1.558  -0.157  0.00  0.00     0.168 HD
BRANCH   3   5
ATOM      5  C   UNL d   1       1.144  -2.176   1.153  0.00  0.00     0.056 A 
ATOM      6  C   UNL d   1       0.767  -3.526   1.081  0.00  0.00     0.061 A 
ATOM      7  C   UNL d   1       1.304  -4.465   1.966  0.00  0.00     0.042 A 
ATOM      8 CL   UNL d   1      -0.354  -4.075  -0.116  0.00  0.00    -0.082 Cl
ATOM      9  C   UNL d   1       2.204  -4.061   2.964  0.00  0.00     0.049 A 
ATOM     10  C   UNL d   1       2.572  -2.710   3.039  0.00  0.00     0.018 A 
ATOM     11  C   UNL d   1       2.051  -1.775   2.138  0.00  0.00     0.032 A 
BRANCH   9  12
ATOM     12  C   UNL d   1       2.757  -5.045   3.966  0.00  0.00     0.417 C 
ATOM     13  F   UNL d   1       2.305  -6.317   3.787  0.00  0.00    -0.166 F 
ATOM     14  F   UNL d   1       4.115  -5.119   3.930  0.00  0.00    -0.166 F 
ATOM     15  F   UNL d   1       2.432  -4.712   5.246  0.00  0.00    -0.166 F 
ENDBRANCH   9  12
ENDBRANCH   3   5
ENDBRANCH   1   3
BRANCH   1  16
ATOM     16  N   UNL d   1       0.030   0.885  -0.485  0.00  0.00    -0.332 N 
ATOM     17  H   UNL d   1       0.281   1.549  -1.213  0.00  0.00     0.168 HD
BRANCH  16  18
ATOM     18  C   UNL d   1      -1.158   1.182   0.230  0.00  0.00     0.056 A 
ATOM     19  C   UNL d   1      -2.151   1.966  -0.373  0.00  0.00     0.061 A 
ATOM     20  C   UNL d   1      -3.303   2.333   0.332  0.00  0.00     0.042 A 
ATOM     21 CL   UNL d   1      -2.005   2.478  -2.019  0.00  0.00    -0.082 Cl
ATOM     22  C   UNL d   1      -3.468   1.950   1.672  0.00  0.00     0.049 A 
ATOM     23  C   UNL d   1      -2.463   1.189   2.283  0.00  0.00     0.018 A 
ATOM     24  C   UNL d   1      -1.322   0.805   1.570  0.00  0.00     0.032 A 
BRANCH  22  25
ATOM     25  C   UNL d   1      -4.691   2.357   2.459  0.00  0.00     0.417 C 
ATOM     26  F   UNL d   1      -5.591   3.073   1.733  0.00  0.00    -0.166 F 
ATOM     27  F   UNL d   1      -5.371   1.284   2.949  0.00  0.00    -0.166 F 
ATOM     28  F   UNL d   1      -4.378   3.128   3.536  0.00  0.00    -0.166 F 
ENDBRANCH  22  25
ENDBRANCH  16  18
ENDBRANCH   1  16
TORSDOF 6
