REMARK  6 active torsions:
REMARK  status: ('A' for Active; 'I' for Inactive)
REMARK    1  A    between atoms: C_2  and  S_1 
REMARK    2  A    between atoms: N_3  and  S_1 
REMARK    3  A    between atoms: C_4  and  C_6 
REMARK    4  A    between atoms: C_5  and  C_7 
REMARK    5  A    between atoms: C_24  and  N_11 
REMARK    6  A    between atoms: C_25  and  C_24 
ROOT
ATOM      1  S   UNL d   1       1.040   0.162   0.220  0.00  0.00     0.261 S 
ATOM      2  O   UNL d   1       0.938  -0.064   1.644  0.00  0.00    -0.200 OA
ATOM      3  O   UNL d   1       0.625  -0.851  -0.732  0.00  0.00    -0.200 OA
ENDROOT
BRANCH   1   4
ATOM      4  C   UNL d   1       2.750   0.535  -0.132  0.00  0.00     0.081 A 
ATOM      5  C   UNL d   1       3.564   1.031   0.890  0.00  0.00     0.041 A 
ATOM      6  C   UNL d   1       4.946   1.165   0.688  0.00  0.00     0.050 A 
ATOM      7  C   UNL d   1       5.490   0.798  -0.557  0.00  0.00     0.032 A 
ATOM      8  C   UNL d   1       4.679   0.292  -1.590  0.00  0.00     0.050 A 
ATOM      9  C   UNL d   1       3.299   0.169  -1.368  0.00  0.00     0.041 A 
BRANCH   6  10
ATOM     10  C   UNL d   1       5.853   1.634   1.804  0.00  0.00     0.417 C 
ATOM     11  F   UNL d   1       5.189   1.920   2.957  0.00  0.00    -0.166 F 
ATOM     12  F   UNL d   1       6.792   0.705   2.130  0.00  0.00    -0.166 F 
ATOM     13  F   UNL d   1       6.537   2.763   1.474  0.00  0.00    -0.166 F 
ENDBRANCH   6  10
BRANCH   8  14
ATOM     14  C   UNL d   1       5.308  -0.168  -2.887  0.00  0.00     0.417 C 
ATOM     15  F   UNL d   1       4.409  -0.662  -3.781  0.00  0.00    -0.166 F 
ATOM     16  F   UNL d   1       5.964   0.836  -3.529  0.00  0.00    -0.166 F 
ATOM     17  F   UNL d   1       6.226  -1.153  -2.692  0.00  0.00    -0.166 F 
ENDBRANCH   8  14
ENDBRANCH   1   4
BRANCH   1  18
ATOM     18  N   UNL d   1       0.259   1.590  -0.158  0.00  0.00    -0.303 N 
ATOM     19  C   UNL d   1      -0.033   1.920  -1.566  0.00  0.00     0.165 C 
ATOM     20  C   UNL d   1       0.474   3.322  -1.927  0.00  0.00     0.293 C 
ATOM     21  N   UNL d   1      -0.013   4.391  -1.032  0.00  0.00     0.095 N 
ATOM     22  C   UNL d   1       0.436   4.063   0.339  0.00  0.00     0.293 C 
ATOM     23  C   UNL d   1       0.077   2.652   0.856  0.00  0.00     0.165 C 
BRANCH  21  24
ATOM     24  C   UNL d   1      -1.480   4.559  -1.074  0.00  0.00     0.311 C 
BRANCH  24  25
ATOM     25  C   UNL d   1      -2.034   4.880  -2.448  0.00  0.00    -0.030 A 
ATOM     26  C   UNL d   1      -2.915   3.993  -3.088  0.00  0.00     0.009 A 
ATOM     27  C   UNL d   1      -3.439   4.294  -4.346  0.00  0.00     0.001 A 
ATOM     28  C   UNL d   1      -3.092   5.486  -4.978  0.00  0.00     0.000 A 
ATOM     29  C   UNL d   1      -2.218   6.375  -4.355  0.00  0.00     0.001 A 
ATOM     30  C   UNL d   1      -1.688   6.073  -3.098  0.00  0.00     0.009 A 
ENDBRANCH  24  25
ENDBRANCH  21  24
ENDBRANCH   1  18
TORSDOF 6
