REMARK  3 active torsions:
REMARK  status: ('A' for Active; 'I' for Inactive)
REMARK    1  A    between atoms: C_3  and  C_6 
REMARK       I    between atoms: N_7  and  C_3 
REMARK    2  A    between atoms: C_5  and  C_12 
REMARK    3  A    between atoms: C_12  and  N_7 
ROOT
ATOM      1  N   UNL d   1       6.778  -2.624  -2.878  0.00  0.00    -0.197 NA
ATOM      2  C   UNL d   1       6.395  -2.026  -1.959  0.00  0.00     0.068 C 
ATOM      3  C   UNL d   1       5.885  -1.312  -0.790  0.00  0.00     0.226 C 
ENDROOT
BRANCH   3   4
ATOM      4  C   UNL d   1       4.376  -1.187  -0.779  0.00  0.00     0.231 C 
ATOM      5  N   UNL d   1       3.651  -2.205  -1.347  0.00  0.00    -0.356 N 
ATOM      6  H   UNL d   1       4.102  -2.995  -1.796  0.00  0.00     0.162 HD
ATOM      7  O   UNL d   1       3.830  -0.241  -0.211  0.00  0.00    -0.273 OA
BRANCH   5   8
ATOM      8  C   UNL d   1       2.204  -2.189  -1.334  0.00  0.00     0.168 C 
BRANCH   8   9
ATOM      9  C   UNL d   1       1.694  -3.401  -2.044  0.00  0.00     0.000 A 
ATOM     10  S   UNL d   1       1.916  -4.962  -1.366  0.00  0.00    -0.105 SA
ATOM     11  C   UNL d   1       1.134  -5.718  -2.685  0.00  0.00     0.050 A 
ATOM     12  C   UNL d   1       0.693  -4.805  -3.616  0.00  0.00     0.008 A 
ATOM     13  C   UNL d   1       1.015  -3.467  -3.246  0.00  0.00     0.017 A 
ENDBRANCH   8   9
ENDBRANCH   5   8
ENDBRANCH   3   4
TORSDOF 3
