REMARK  2 active torsions:
REMARK  status: ('A' for Active; 'I' for Inactive)
REMARK    1  A    between atoms: C_6  and  N_1 
REMARK    2  A    between atoms: C_17  and  N_2 
ROOT
ATOM      1  N   UNL d   1       0.084   6.442  -0.234  0.00  0.00    -0.346 N 
ATOM      2  C   UNL d   1       0.608   4.444  -1.076  0.00  0.00     0.005 A 
ATOM      3  C   UNL d   1      -0.065   5.082  -0.036  0.00  0.00     0.046 A 
ATOM      4  C   UNL d   1       0.767   6.692  -1.412  0.00  0.00     0.046 A 
ATOM      5  C   UNL d   1      -0.038   2.270  -0.144  0.00  0.00     0.046 A 
ATOM      6  C   UNL d   1       1.119   5.452  -1.949  0.00  0.00     0.003 A 
ATOM      7  C   UNL d   1       0.644   3.030  -1.106  0.00  0.00     0.044 A 
ATOM      8  C   UNL d   1      -0.728   4.353   0.960  0.00  0.00     0.033 A 
ATOM      9  C   UNL d   1      -0.717   2.952   0.875  0.00  0.00     0.032 A 
ATOM     10  C   UNL d   1       1.103   7.898  -2.050  0.00  0.00     0.030 A 
ATOM     11  C   UNL d   1       1.835   5.413  -3.163  0.00  0.00     0.014 A 
ATOM     12  C   UNL d   1       2.171   6.608  -3.808  0.00  0.00     0.001 A 
ATOM     13  C   UNL d   1       1.808   7.831  -3.257  0.00  0.00     0.002 A 
ENDROOT
BRANCH   5  14
ATOM     14  N   UNL d   1      -0.060   0.850  -0.223  0.00  0.00    -0.245 N 
ATOM     15  C   UNL d   1      -1.020   0.043   0.325  0.00  0.00     0.255 A 
ATOM     16  C   UNL d   1      -0.687  -1.342  -0.030  0.00  0.00     0.080 A 
ATOM     17  O   UNL d   1      -2.031   0.306   0.952  0.00  0.00    -0.268 OA
ATOM     18  C   UNL d   1       0.429  -1.322  -0.753  0.00  0.00     0.080 A 
ATOM     19  C   UNL d   1       0.850   0.077  -0.894  0.00  0.00     0.255 A 
ATOM     20  O   UNL d   1       1.871   0.370  -1.493  0.00  0.00    -0.268 OA
ENDBRANCH   5  14
BRANCH   1  21
ATOM     21  C   UNL d   1      -0.383   7.474   0.679  0.00  0.00     0.125 C 
ATOM     22  C   UNL d   1      -1.767   7.989   0.329  0.00  0.00     0.027 C 
ENDBRANCH   1  21
TORSDOF 2
