REMARK  11 active torsions:
REMARK  status: ('A' for Active; 'I' for Inactive)
REMARK    1  A    between atoms: S_15  and  C_3 
REMARK    2  A    between atoms: S_16  and  C_4 
REMARK    3  A    between atoms: C_21  and  C_13 
REMARK    4  A    between atoms: C_14  and  C_22 
REMARK    5  A    between atoms: C_17  and  S_15 
REMARK    6  A    between atoms: C_18  and  S_16 
REMARK    7  A    between atoms: C_19  and  C_17 
REMARK    8  A    between atoms: C_20  and  C_18 
REMARK    9  A    between atoms: C_28  and  C_21 
REMARK   10  A    between atoms: C_22  and  C_27 
REMARK   11  A    between atoms: C_27  and  C_28 
ROOT
ATOM      1  C   UNL d   1      -2.806   3.947   0.003  0.00  0.00     0.008 C 
ENDROOT
BRANCH   1   2
ATOM      2  C   UNL d   1      -4.319   4.160   0.117  0.00  0.00     0.086 C 
BRANCH   2   3
ATOM      3  C   UNL d   1      -4.676   5.598   0.038  0.00  0.00     0.141 A 
ATOM      4  O   UNL d   1      -4.889   6.283   1.207  0.00  0.00    -0.272 OA
ATOM      5  C   UNL d   1      -5.257   7.522   0.739  0.00  0.00     0.203 A 
ATOM      6  N   UNL d   1      -5.246   7.581  -0.577  0.00  0.00    -0.272 N 
ATOM      7  N   UNL d   1      -4.863   6.338  -1.032  0.00  0.00    -0.281 N 
ATOM      8  HN  UNL d   1      -5.477   8.392  -1.150  1.00  0.00     0.189 HD
ATOM      9  HN  UNL d   1      -4.747   6.051  -2.004  1.00  0.00     0.189 HD
BRANCH   5  10
ATOM     10  S   UNL d   1      -5.749   8.849   1.743  0.00  0.00    -0.080 SA
BRANCH  10  11
ATOM     11  C   UNL d   1      -4.709   8.592   3.202  0.00  0.00     0.121 C 
BRANCH  11  12
ATOM     12  C   UNL d   1      -4.908   9.699   4.212  0.00  0.00    -0.049 A 
ATOM     13  C   UNL d   1      -5.931   9.618   5.168  0.00  0.00     0.008 A 
ATOM     14  C   UNL d   1      -6.139  10.656   6.078  0.00  0.00     0.001 A 
ATOM     15  C   UNL d   1      -5.328  11.790   6.041  0.00  0.00     0.000 A 
ATOM     16  C   UNL d   1      -4.312  11.886   5.093  0.00  0.00     0.001 A 
ATOM     17  C   UNL d   1      -4.103  10.850   4.181  0.00  0.00     0.008 A 
ENDBRANCH  11  12
ENDBRANCH  10  11
ENDBRANCH   5  10
ENDBRANCH   2   3
ENDBRANCH   1   2
BRANCH   1  18
ATOM     18  C   UNL d   1      -2.390   2.469  -0.006  0.00  0.00     0.008 C 
BRANCH  18  19
ATOM     19  C   UNL d   1      -2.776   1.740  -1.296  0.00  0.00     0.086 C 
BRANCH  19  20
ATOM     20  C   UNL d   1      -2.405   0.303  -1.269  0.00  0.00     0.141 A 
ATOM     21  N   UNL d   1      -3.192  -0.742  -1.144  0.00  0.00    -0.281 N 
ATOM     22  N   UNL d   1      -2.384  -1.849  -1.279  0.00  0.00    -0.272 N 
ATOM     23  HN  UNL d   1      -4.199  -0.735  -0.981  1.00  0.00     0.189 HD
ATOM     24  C   UNL d   1      -1.156  -1.410  -1.465  0.00  0.00     0.203 A 
ATOM     25  HN  UNL d   1      -2.680  -2.825  -1.242  1.00  0.00     0.189 HD
ATOM     26  O   UNL d   1      -1.089  -0.036  -1.456  0.00  0.00    -0.272 OA
BRANCH  24  27
ATOM     27  S   UNL d   1       0.194  -2.460  -1.756  0.00  0.00    -0.080 SA
BRANCH  27  28
ATOM     28  C   UNL d   1       1.521  -1.567  -0.909  0.00  0.00     0.121 C 
BRANCH  28  29
ATOM     29  C   UNL d   1       2.812  -2.352  -0.937  0.00  0.00    -0.049 A 
ATOM     30  C   UNL d   1       3.722  -2.194  -1.994  0.00  0.00     0.008 A 
ATOM     31  C   UNL d   1       4.900  -2.943  -2.035  0.00  0.00     0.001 A 
ATOM     32  C   UNL d   1       5.180  -3.860  -1.025  0.00  0.00     0.000 A 
ATOM     33  C   UNL d   1       4.283  -4.033   0.026  0.00  0.00     0.001 A 
ATOM     34  C   UNL d   1       3.104  -3.286   0.070  0.00  0.00     0.008 A 
ENDBRANCH  28  29
ENDBRANCH  27  28
ENDBRANCH  24  27
ENDBRANCH  19  20
ENDBRANCH  18  19
ENDBRANCH   1  18
TORSDOF 11
