REMARK  3 active torsions:
REMARK  status: ('A' for Active; 'I' for Inactive)
REMARK    1  A    between atoms: C_2  and  C_1 
REMARK       I    between atoms: N_5  and  C_2 
REMARK    2  A    between atoms: C_10  and  N_8 
REMARK    3  A    between atoms: O_17  and  C_16 
ROOT
ATOM      1  C   UNL d   1      -0.083   2.292  -0.418  0.00  0.00     0.258 C 
ATOM      2  N   UNL d   1      -1.309   2.959  -0.481  0.00  0.00    -0.345 N 
ATOM      3  N   UNL d   1      -3.799   4.381  -0.434  0.00  0.00    -0.376 N 
ATOM      4  O   UNL d   1       0.206   1.564   0.532  0.00  0.00    -0.267 OA
ATOM      5  C   UNL d   1      -2.301   2.672   0.569  0.00  0.00     0.146 C 
ATOM      6  C   UNL d   1      -1.429   4.310  -1.048  0.00  0.00     0.146 C 
ATOM      7  C   UNL d   1      -3.749   3.017   0.140  0.00  0.00     0.143 C 
ATOM      8  C   UNL d   1      -2.855   4.575  -1.548  0.00  0.00     0.143 C 
ENDROOT
BRANCH   1   9
ATOM      9  C   UNL d   1       0.840   2.453  -1.524  0.00  0.00     0.087 A 
ATOM     10  C   UNL d   1       0.564   2.466  -2.877  0.00  0.00     0.090 A 
ATOM     11  O   UNL d   1       1.720   2.622  -3.575  0.00  0.00    -0.242 OA
ATOM     12  C   UNL d   1      -0.656   2.339  -3.699  0.00  0.00     0.080 C 
ATOM     13  N   UNL d   1       2.786   2.662  -2.701  0.00  0.00    -0.265 N 
ATOM     14  C   UNL d   1       2.261   2.520  -1.478  0.00  0.00     0.047 A 
ATOM     15  HN  UNL d   1       3.772   2.777  -2.938  1.00  0.00     0.194 HD
ATOM     16  C   UNL d   1       3.150   2.472  -0.292  0.00  0.00     0.071 C 
ENDBRANCH   1   9
BRANCH   3  17
ATOM     17  C   UNL d   1      -5.085   4.928  -0.578  0.00  0.00     0.064 A 
ATOM     18  C   UNL d   1      -5.841   5.358   0.535  0.00  0.00     0.094 A 
ATOM     19  C   UNL d   1      -7.093   5.968   0.371  0.00  0.00     0.039 A 
ATOM     20  C   UNL d   1      -7.617   6.177  -0.902  0.00  0.00     0.003 A 
ATOM     21  C   UNL d   1      -6.909   5.739  -2.012  0.00  0.00     0.002 A 
ATOM     22  C   UNL d   1      -5.665   5.119  -1.849  0.00  0.00     0.032 A 
BRANCH  18  23
ATOM     23  O   UNL d   1      -5.464   5.205   1.849  0.00  0.00    -0.354 OA
ATOM     24  C   UNL d   1      -4.177   5.728   2.155  0.00  0.00     0.210 C 
ENDBRANCH  18  23
ENDBRANCH   3  17
TORSDOF 3
