REMARK  6 active torsions:
REMARK  status: ('A' for Active; 'I' for Inactive)
REMARK    1  A    between atoms: N_3  and  C_1 
REMARK    2  A    between atoms: N_7  and  C_1 
REMARK    3  A    between atoms: C_2  and  C_5 
REMARK    4  A    between atoms: O_11  and  C_2 
REMARK    5  A    between atoms: C_10  and  N_3 
REMARK    6  A    between atoms: C_15  and  O_11 
ROOT
ATOM      1  C   UNL d   1       2.097   4.887  -1.756  0.00  0.00     0.039 A 
ATOM      2  C   UNL d   1       1.135   4.862  -0.741  0.00  0.00     0.020 A 
ATOM      3  C   UNL d   1       2.496   3.685  -2.352  0.00  0.00     0.020 A 
ATOM      4  C   UNL d   1       0.963   2.446  -0.934  0.00  0.00     0.034 A 
ATOM      5  C   UNL d   1       0.584   3.646  -0.322  0.00  0.00     0.030 A 
ATOM      6  C   UNL d   1       1.932   2.472  -1.938  0.00  0.00     0.030 A 
ENDROOT
BRANCH   4   7
ATOM      7  N   UNL d   1       0.401   1.250  -0.442  0.00  0.00    -0.333 N 
ATOM      8  H   UNL d   1      -0.122   1.342   0.419  0.00  0.00     0.168 HD
BRANCH   7   9
ATOM      9  C   UNL d   1       0.187   0.058  -1.083  0.00  0.00     0.171 C 
ATOM     10  S   UNL d   1       0.040  -0.212  -2.726  0.00  0.00    -0.041 SA
BRANCH   9  11
ATOM     11  N   UNL d   1       0.015  -1.026  -0.266  0.00  0.00    -0.371 N 
ATOM     12  C   UNL d   1       0.416  -1.172   1.119  0.00  0.00     0.148 C 
ATOM     13  H   UNL d   1      -0.119  -1.888  -0.785  0.00  0.00     0.161 HD
ENDBRANCH   9  11
ENDBRANCH   7   9
ENDBRANCH   4   7
BRANCH   1  14
ATOM     14  C   UNL d   1       2.633   6.203  -2.190  0.00  0.00     0.293 C 
ATOM     15  O   UNL d   1       2.210   7.273  -1.781  0.00  0.00    -0.259 OA
BRANCH  14  16
ATOM     16  O   UNL d   1       3.599   6.029  -3.125  0.00  0.00    -0.318 OA
BRANCH  16  17
ATOM     17  C   UNL d   1       4.009   7.211  -3.825  0.00  0.00     0.174 C 
ATOM     18  C   UNL d   1       3.091   7.403  -5.017  0.00  0.00     0.034 C 
ENDBRANCH  16  17
ENDBRANCH  14  16
ENDBRANCH   1  14
TORSDOF 6
