REMARK  4 active torsions:
REMARK  status: ('A' for Active; 'I' for Inactive)
REMARK    1  A    between atoms: C_12  and  N_3 
REMARK    2  A    between atoms: C_14  and  N_5 
REMARK    3  A    between atoms: N_11  and  C_7 
REMARK    4  A    between atoms: N_19  and  C_10 
ROOT
ATOM      1  C   UNL d   1      -0.048  -0.725   0.028  0.00  0.00     0.139 C 
ATOM      2  C   UNL d   1      -0.069   0.633  -0.027  0.00  0.00     0.101 C 
ATOM      3  N   UNL d   1       1.200  -1.397   0.012  0.00  0.00    -0.248 N 
ATOM      4  C   UNL d   1       2.442  -0.709   0.055  0.00  0.00     0.342 C 
ATOM      5  N   UNL d   1       2.390   0.682   0.037  0.00  0.00    -0.229 N 
ATOM      6  N   UNL d   1      -1.308  -1.387   0.120  0.00  0.00    -0.301 N 
ATOM      7  C   UNL d   1      -2.481   0.725  -0.057  0.00  0.00     0.192 C 
ATOM      8  C   UNL d   1       1.222   1.382  -0.165  0.00  0.00     0.272 C 
ATOM      9  C   UNL d   1      -2.531  -0.731  -0.123  0.00  0.00     0.283 C 
ATOM     10  C   UNL d   1      -1.335   1.415   0.046  0.00  0.00     0.064 C 
ATOM     11  O   UNL d   1       3.523  -1.310   0.017  0.00  0.00    -0.245 OA
ATOM     12  O   UNL d   1       1.177   2.591  -0.415  0.00  0.00    -0.266 OA
ATOM     13  O   UNL d   1      -3.582  -1.331  -0.343  0.00  0.00    -0.265 OA
ATOM     14  C   UNL d   1      -1.508  -2.785   0.475  0.00  0.00     0.161 C 
ENDROOT
BRANCH   3  15
ATOM     15  C   UNL d   1       1.354  -2.825  -0.111  0.00  0.00     0.045 A 
ATOM     16  C   UNL d   1       2.040  -3.536   0.890  0.00  0.00     0.030 A 
ATOM     17  C   UNL d   1       2.107  -4.929   0.855  0.00  0.00     0.002 A 
ATOM     18  C   UNL d   1       1.500  -5.625  -0.187  0.00  0.00     0.000 A 
ATOM     19  C   UNL d   1       0.870  -4.928  -1.218  0.00  0.00     0.002 A 
ATOM     20  C   UNL d   1       0.815  -3.530  -1.194  0.00  0.00     0.030 A 
ENDBRANCH   3  15
BRANCH   5  21
ATOM     21  C   UNL d   1       3.641   1.403   0.027  0.00  0.00     0.047 A 
ATOM     22  C   UNL d   1       3.910   2.389  -0.937  0.00  0.00     0.030 A 
ATOM     23  C   UNL d   1       5.120   3.087  -0.933  0.00  0.00     0.002 A 
ATOM     24  C   UNL d   1       6.074   2.823   0.045  0.00  0.00     0.000 A 
ATOM     25  C   UNL d   1       5.825   1.850   1.010  0.00  0.00     0.002 A 
ATOM     26  C   UNL d   1       4.622   1.136   0.995  0.00  0.00     0.030 A 
ENDBRANCH   5  21
BRANCH  10  27
ATOM     27  N   UNL d   1      -1.265   2.793   0.251  0.00  0.00    -0.300 NA
ATOM     28  H   UNL d   1      -0.364   3.210  -0.029  0.00  0.00     0.124 HD
ATOM     29  H   UNL d   1      -2.043   3.333  -0.137  0.00  0.00     0.124 HD
ENDBRANCH  10  27
BRANCH   7  30
ATOM     30  N   UNL d   1      -3.730   1.428   0.013  0.00  0.00    -0.108 N 
ATOM     31  O   UNL d   1      -3.940   2.288  -0.859  0.00  0.00    -0.532 OA
ATOM     32  O   UNL d   1      -4.482   1.173   0.958  0.00  0.00    -0.532 OA
ENDBRANCH   7  30
TORSDOF 4
