REMARK  6 active torsions:
REMARK  status: ('A' for Active; 'I' for Inactive)
REMARK    1  A    between atoms: C_6  and  C_1 
REMARK    2  A    between atoms: C_9  and  C_1 
REMARK    3  A    between atoms: C_2  and  C_8 
REMARK    4  A    between atoms: C_5  and  C_2 
REMARK    5  A    between atoms: S_7  and  C_9 
REMARK    6  A    between atoms: C_8  and  S_7 
ROOT
ATOM      1  S   UNL d   1       2.927  -0.562   1.763  0.00  0.00    -0.153 SA
ENDROOT
BRANCH   1   2
ATOM      2  C   UNL d   1       2.457  -0.179   0.037  0.00  0.00     0.158 C 
BRANCH   2   3
ATOM      3  C   UNL d   1       2.956  -1.202  -0.970  0.00  0.00     0.168 C 
ATOM      4  O   UNL d   1       3.555  -2.237  -0.675  0.00  0.00    -0.292 OA
BRANCH   3   5
ATOM      5  C   UNL d   1       2.710  -0.932  -2.412  0.00  0.00     0.010 A 
ATOM      6  C   UNL d   1       1.545  -0.297  -2.858  0.00  0.00     0.015 A 
ATOM      7  C   UNL d   1       1.336  -0.113  -4.228  0.00  0.00     0.001 A 
ATOM      8  C   UNL d   1       2.288  -0.551  -5.149  0.00  0.00     0.000 A 
ATOM      9  C   UNL d   1       3.452  -1.179  -4.706  0.00  0.00     0.001 A 
ATOM     10  C   UNL d   1       3.660  -1.375  -3.341  0.00  0.00     0.015 A 
ENDBRANCH   3   5
ENDBRANCH   2   3
ENDBRANCH   1   2
BRANCH   1  11
ATOM     11  C   UNL d   1       4.745  -0.525   1.631  0.00  0.00     0.158 C 
BRANCH  11  12
ATOM     12  C   UNL d   1       5.225   0.865   1.272  0.00  0.00     0.168 C 
ATOM     13  O   UNL d   1       5.348   1.204   0.093  0.00  0.00    -0.292 OA
BRANCH  12  14
ATOM     14  C   UNL d   1       5.524   1.856   2.353  0.00  0.00     0.010 A 
ATOM     15  C   UNL d   1       5.310   1.592   3.712  0.00  0.00     0.015 A 
ATOM     16  C   UNL d   1       5.617   2.559   4.673  0.00  0.00     0.001 A 
ATOM     17  C   UNL d   1       6.126   3.797   4.287  0.00  0.00     0.000 A 
ATOM     18  C   UNL d   1       6.329   4.074   2.937  0.00  0.00     0.001 A 
ATOM     19  C   UNL d   1       6.030   3.109   1.974  0.00  0.00     0.015 A 
ENDBRANCH  12  14
ENDBRANCH  11  12
ENDBRANCH   1  11
TORSDOF 6
