REMARK  7 active torsions:
REMARK  status: ('A' for Active; 'I' for Inactive)
REMARK    1  A    between atoms: N_3  and  C_1 
REMARK    2  A    between atoms: O_5  and  C_2 
REMARK    3  A    between atoms: C_14  and  C_4 
REMARK    4  A    between atoms: C_7  and  O_5 
REMARK    5  A    between atoms: C_6  and  C_11 
REMARK    6  A    between atoms: C_12  and  C_7 
REMARK    7  A    between atoms: C_16  and  C_9 
ROOT
ATOM      1  C   UNL d   1       1.092  -0.032  -0.431  0.00  0.00     0.137 C 
ATOM      2  C   UNL d   1       0.408  -1.234  -0.206  0.00  0.00     0.119 C 
ATOM      3  C   UNL d   1      -1.001  -1.222  -0.112  0.00  0.00    -0.013 C 
ATOM      4  C   UNL d   1       0.430   1.192  -0.570  0.00  0.00     0.047 C 
ATOM      5  C   UNL d   1      -0.921   1.280  -0.231  0.00  0.00    -0.048 C 
ATOM      6  C   UNL d   1      -1.628   0.065  -0.087  0.00  0.00     0.018 C 
ENDROOT
BRANCH   2   7
ATOM      7  O   UNL d   1       1.107  -2.380   0.266  0.00  0.00    -0.272 OA
BRANCH   7   8
ATOM      8  C   UNL d   1       2.299  -2.916  -0.259  0.00  0.00     0.298 C 
ATOM      9  O   UNL d   1       2.682  -2.806  -1.403  0.00  0.00    -0.259 OA
BRANCH   8  10
ATOM     10  C   UNL d   1       3.072  -3.532   0.873  0.00  0.00     0.040 A 
ATOM     11  C   UNL d   1       2.601  -3.431   2.191  0.00  0.00     0.033 A 
ATOM     12  C   UNL d   1       3.419  -3.754   3.283  0.00  0.00     0.048 A 
ATOM     13  C   UNL d   1       4.682  -4.311   3.044  0.00  0.00     0.016 A 
ATOM     14  C   UNL d   1       5.137  -4.485   1.734  0.00  0.00     0.002 A 
ATOM     15  C   UNL d   1       4.345  -4.072   0.652  0.00  0.00     0.017 A 
BRANCH  12  16
ATOM     16  C   UNL d   1       2.975  -3.405   4.681  0.00  0.00     0.417 C 
ATOM     17  F   UNL d   1       1.794  -2.722   4.714  0.00  0.00    -0.166 F 
ATOM     18  F   UNL d   1       2.794  -4.497   5.471  0.00  0.00    -0.166 F 
ATOM     19  F   UNL d   1       3.875  -2.613   5.326  0.00  0.00    -0.166 F 
ENDBRANCH  12  16
ENDBRANCH   8  10
ENDBRANCH   7   8
ENDBRANCH   2   7
BRANCH   1  20
ATOM     20  N   UNL d   1       2.484   0.098  -0.064  0.00  0.00    -0.113 N 
ATOM     21  O   UNL d   1       2.734   0.067   1.153  0.00  0.00    -0.532 OA
ATOM     22  O   UNL d   1       3.297   0.309  -0.962  0.00  0.00    -0.532 OA
ENDBRANCH   1  20
BRANCH   3  23
ATOM     23  C   UNL d   1      -1.892  -2.471   0.113  0.00  0.00    -0.021 C 
ATOM     24  C   UNL d   1      -1.190  -3.834  -0.076  0.00  0.00     0.019 C 
ATOM     25  C   UNL d   1      -2.458  -2.439   1.549  0.00  0.00     0.019 C 
ATOM     26  C   UNL d   1      -3.073  -2.473  -0.892  0.00  0.00     0.019 C 
ENDBRANCH   3  23
BRANCH   5  27
ATOM     27  C   UNL d   1      -1.471   2.656   0.215  0.00  0.00    -0.024 C 
ATOM     28  C   UNL d   1      -1.509   3.658  -0.954  0.00  0.00     0.019 C 
ATOM     29  C   UNL d   1      -2.877   2.609   0.852  0.00  0.00     0.019 C 
ATOM     30  C   UNL d   1      -0.521   3.214   1.314  0.00  0.00     0.019 C 
ENDBRANCH   5  27
TORSDOF 7
