REMARK  3 active torsions:
REMARK  status: ('A' for Active; 'I' for Inactive)
REMARK    1  A    between atoms: C_2  and  N_1 
REMARK    2  A    between atoms: O_14  and  C_9 
REMARK    3  A    between atoms: O_15  and  C_10 
ROOT
ATOM      1  C   UNL d   1       0.057   2.312  -0.008  0.00  0.00     0.051 A 
ATOM      2  C   UNL d   1      -0.677   2.995   0.973  0.00  0.00     0.067 A 
ATOM      3  C   UNL d   1       0.829   3.072  -0.898  0.00  0.00     0.067 A 
ATOM      4  C   UNL d   1      -0.611   4.387   1.088  0.00  0.00     0.073 A 
ATOM      5  C   UNL d   1       0.871   4.471  -0.821  0.00  0.00     0.073 A 
ATOM      6  C   UNL d   1       0.153   5.120   0.179  0.00  0.00     0.073 A 
ENDROOT
BRANCH   1   7
ATOM      7  N   UNL d   1       0.040   0.889  -0.071  0.00  0.00    -0.245 N 
ATOM      8  C   UNL d   1      -0.925   0.080   0.468  0.00  0.00     0.255 A 
ATOM      9  C   UNL d   1      -0.521  -1.310   0.228  0.00  0.00     0.080 A 
ATOM     10  O   UNL d   1      -1.973   0.343   1.032  0.00  0.00    -0.268 OA
ATOM     11  C   UNL d   1       0.637  -1.291  -0.425  0.00  0.00     0.080 A 
ATOM     12  C   UNL d   1       1.017   0.113  -0.630  0.00  0.00     0.255 A 
ATOM     13  O   UNL d   1       2.076   0.405  -1.160  0.00  0.00    -0.268 OA
ENDBRANCH   1   7
BRANCH   4  14
ATOM     14  O   UNL d   1      -1.229   5.139   2.052  0.00  0.00    -0.356 OA
ATOM     15  C   UNL d   1      -1.943   4.433   3.062  0.00  0.00     0.210 C 
ENDBRANCH   4  14
BRANCH   5  16
ATOM     16  O   UNL d   1       1.653   5.074  -1.769  0.00  0.00    -0.356 OA
ATOM     17  C   UNL d   1       1.726   6.494  -1.736  0.00  0.00     0.210 C 
ENDBRANCH   5  16
TORSDOF 3
