REMARK  3 active torsions:
REMARK  status: ('A' for Active; 'I' for Inactive)
REMARK    1  A    between atoms: C_2  and  C_1 
REMARK    2  A    between atoms: C_3  and  C_7 
REMARK    3  A    between atoms: C_12  and  C_5 
ROOT
ATOM      1  C   UNL d   1       0.917  -1.142   3.454  0.00  0.00     0.127 C 
ATOM      2  N   UNL d   1       0.020   1.124   4.316  0.00  0.00    -0.191 NA
ATOM      3  N   UNL d   1       1.763  -2.840   5.210  0.00  0.00    -0.191 NA
ATOM      4  C   UNL d   1       0.967  -1.508   2.158  0.00  0.00     0.071 C 
ATOM      5  C   UNL d   1       0.424   0.112   3.913  0.00  0.00     0.111 C 
ATOM      6  C   UNL d   1       1.380  -2.065   4.436  0.00  0.00     0.111 C 
ENDROOT
BRANCH   4   7
ATOM      7  C   UNL d   1       0.563  -0.693   1.063  0.00  0.00     0.078 A 
ATOM      8  O   UNL d   1       0.131   0.608   1.169  0.00  0.00    -0.310 OA
ATOM      9  C   UNL d   1      -0.134   1.104  -0.075  0.00  0.00     0.088 A 
ATOM     10  C   UNL d   1       0.088   0.112  -1.004  0.00  0.00     0.041 A 
ATOM     11  C   UNL d   1       0.541  -1.021  -0.286  0.00  0.00     0.040 A 
BRANCH   9  12
ATOM     12  C   UNL d   1      -0.551   2.508  -0.122  0.00  0.00     0.020 A 
ATOM     13  C   UNL d   1      -1.316   3.031   0.945  0.00  0.00     0.032 A 
ATOM     14  C   UNL d   1      -1.735   4.375   0.970  0.00  0.00     0.048 A 
ATOM     15  C   UNL d   1      -1.384   5.211  -0.096  0.00  0.00     0.018 A 
ATOM     16  C   UNL d   1      -0.631   4.716  -1.159  0.00  0.00     0.026 A 
ATOM     17  C   UNL d   1      -0.214   3.378  -1.175  0.00  0.00     0.047 A 
ATOM     18 CL   UNL d   1       0.765   2.908  -2.524  0.00  0.00    -0.083 Cl
BRANCH  14  19
ATOM     19  C   UNL d   1      -2.539   4.935   2.120  0.00  0.00     0.417 C 
ATOM     20  F   UNL d   1      -2.853   4.020   3.075  0.00  0.00    -0.166 F 
ATOM     21  F   UNL d   1      -1.889   5.946   2.761  0.00  0.00    -0.166 F 
ATOM     22  F   UNL d   1      -3.726   5.463   1.706  0.00  0.00    -0.166 F 
ENDBRANCH  14  19
ENDBRANCH   9  12
ENDBRANCH   4   7
TORSDOF 3
