REMARK  3 active torsions:
REMARK  status: ('A' for Active; 'I' for Inactive)
REMARK    1  A    between atoms: C_2  and  C_1 
REMARK       I    between atoms: N_6  and  C_1 
REMARK    2  A    between atoms: C_13  and  N_6 
REMARK    3  A    between atoms: C_14  and  N_6 
ROOT
ATOM      1  N   UNL d   1      -2.175  -0.297  -3.286  0.00  0.00    -0.196 NA
ATOM      2  C   UNL d   1      -1.810   0.112  -2.262  0.00  0.00     0.079 C 
ATOM      3  C   UNL d   1      -1.298   0.652  -0.990  0.00  0.00     0.251 C 
ENDROOT
BRANCH   3   4
ATOM      4  N   UNL d   1       0.179   0.690  -0.946  0.00  0.00    -0.323 N 
ATOM      5  C   UNL d   1       0.810  -0.117   0.010  0.00  0.00     0.262 C 
ATOM      6  O   UNL d   1       0.130  -0.663   0.880  0.00  0.00    -0.267 OA
BRANCH   5   7
ATOM      7  C   UNL d   1       2.258  -0.299  -0.038  0.00  0.00     0.072 A 
ATOM      8  S   UNL d   1       3.116  -0.320   1.453  0.00  0.00    -0.097 SA
ATOM      9  C   UNL d   1       4.607  -0.617   0.677  0.00  0.00     0.050 A 
ATOM     10  C   UNL d   1       4.468  -0.706  -0.689  0.00  0.00     0.009 A 
ATOM     11  C   UNL d   1       3.110  -0.545  -1.100  0.00  0.00     0.025 A 
ENDBRANCH   5   7
BRANCH   4  12
ATOM     12  C   UNL d   1       0.892   1.511  -1.944  0.00  0.00     0.251 C 
ATOM     13  C   UNL d   1       0.194   2.748  -2.347  0.00  0.00     0.079 C 
ATOM     14  N   UNL d   1      -0.389   3.702  -2.653  0.00  0.00    -0.196 NA
ENDBRANCH   4  12
ENDBRANCH   3   4
TORSDOF 3
