REMARK  5 active torsions:
REMARK  status: ('A' for Active; 'I' for Inactive)
REMARK    1  A    between atoms: C_12  and  C_3 
REMARK    2  A    between atoms: C_9  and  C_4 
REMARK    3  A    between atoms: C_8  and  C_13 
REMARK    4  A    between atoms: O_24  and  C_11 
REMARK    5  A    between atoms: O_25  and  C_14 
ROOT
ATOM      1  N   UNL d   1       0.787   0.051   0.684  0.00  0.00    -0.319 N 
ATOM      2  HN  UNL d   1       1.418   0.128   1.481  1.00  0.00     0.169 HD
ATOM      3  C   UNL d   1      -0.038   1.012   0.145  0.00  0.00     0.138 A 
ATOM      4  C   UNL d   1       0.558  -0.990  -0.083  0.00  0.00     0.182 A 
ATOM      5  N   UNL d   1      -0.744   0.592  -0.917  0.00  0.00    -0.242 N 
ATOM      6  HN  UNL d   1      -1.413   1.120  -1.479  1.00  0.00     0.196 HD
ATOM      7  O   UNL d   1      -0.348  -0.737  -1.071  0.00  0.00    -0.217 OA
ENDROOT
BRANCH   3   8
ATOM      8  C   UNL d   1      -0.118   2.356   0.707  0.00  0.00     0.010 A 
ATOM      9  C   UNL d   1       0.707   2.719   1.780  0.00  0.00     0.016 A 
ATOM     10  C   UNL d   1       0.647   4.003   2.328  0.00  0.00     0.017 A 
ATOM     11  C   UNL d   1      -0.246   4.954   1.814  0.00  0.00     0.048 A 
ATOM     12  C   UNL d   1      -1.077   4.590   0.744  0.00  0.00     0.017 A 
ATOM     13  C   UNL d   1      -1.014   3.305   0.196  0.00  0.00     0.016 A 
BRANCH  11  14
ATOM     14  C   UNL d   1      -0.320   6.348   2.387  0.00  0.00     0.417 C 
ATOM     15  F   UNL d   1       0.536   6.556   3.427  0.00  0.00    -0.166 F 
ATOM     16  F   UNL d   1      -0.025   7.305   1.465  0.00  0.00    -0.166 F 
ATOM     17  F   UNL d   1      -1.560   6.652   2.859  0.00  0.00    -0.166 F 
ENDBRANCH  11  14
ENDBRANCH   3   8
BRANCH   4  18
ATOM     18  C   UNL d   1       1.099  -2.339   0.011  0.00  0.00     0.020 A 
ATOM     19  C   UNL d   1       1.925  -2.665   1.102  0.00  0.00     0.055 A 
ATOM     20  C   UNL d   1       2.448  -3.955   1.279  0.00  0.00     0.102 A 
ATOM     21  C   UNL d   1       2.156  -4.939   0.319  0.00  0.00     0.101 A 
ATOM     22  C   UNL d   1       1.341  -4.610  -0.776  0.00  0.00     0.040 A 
ATOM     23  C   UNL d   1       0.814  -3.327  -0.931  0.00  0.00     0.019 A 
BRANCH  20  24
ATOM     24  O   UNL d   1       3.222  -4.299   2.355  0.00  0.00    -0.353 OA
ATOM     25  C   UNL d   1       3.509  -3.307   3.332  0.00  0.00     0.210 C 
ENDBRANCH  20  24
BRANCH  21  26
ATOM     26  O   UNL d   1       2.564  -6.246   0.276  0.00  0.00    -0.353 OA
ATOM     27  C   UNL d   1       3.395  -6.742   1.313  0.00  0.00     0.210 C 
ENDBRANCH  21  26
ENDBRANCH   4  18
TORSDOF 5
