REMARK  7 active torsions:
REMARK  status: ('A' for Active; 'I' for Inactive)
REMARK    1  A    between atoms: C_2  and  S_1 
REMARK    2  A    between atoms: C_6  and  S_1 
REMARK    3  A    between atoms: C_12  and  C_2 
REMARK    4  A    between atoms: C_3  and  C_11 
REMARK       I    between atoms: N_7  and  C_3 
REMARK    5  A    between atoms: C_9  and  N_7 
REMARK    6  A    between atoms: S_10  and  C_12 
REMARK    7  A    between atoms: C_11  and  S_10 
ROOT
ATOM      1  S   UNL d   1       1.478  -1.180  -4.157  0.00  0.00    -0.159 SA
ENDROOT
BRANCH   1   2
ATOM      2  C   UNL d   1       1.179  -0.083  -2.713  0.00  0.00     0.089 C 
BRANCH   2   3
ATOM      3  C   UNL d   1       0.560  -0.862  -1.565  0.00  0.00     0.156 C 
BRANCH   3   4
ATOM      4  S   UNL d   1       0.270   0.215  -0.174  0.00  0.00     0.176 S 
ATOM      5  O   UNL d   1      -0.671   1.240  -0.581  0.00  0.00    -0.223 OA
ATOM      6  O   UNL d   1       1.556   0.575   0.397  0.00  0.00    -0.223 OA
BRANCH   4   7
ATOM      7  C   UNL d   1      -0.561  -0.838   0.996  0.00  0.00     0.059 A 
ATOM      8  C   UNL d   1       0.182  -1.540   1.947  0.00  0.00     0.023 A 
ATOM      9  C   UNL d   1      -0.480  -2.362   2.862  0.00  0.00     0.002 A 
ATOM     10  C   UNL d   1      -1.872  -2.468   2.830  0.00  0.00     0.000 A 
ATOM     11  C   UNL d   1      -2.610  -1.745   1.891  0.00  0.00     0.002 A 
ATOM     12  C   UNL d   1      -1.957  -0.922   0.973  0.00  0.00     0.023 A 
ENDBRANCH   4   7
ENDBRANCH   3   4
ENDBRANCH   2   3
ENDBRANCH   1   2
BRANCH   1  13
ATOM     13  C   UNL d   1       2.235   0.059  -5.254  0.00  0.00     0.177 C 
BRANCH  13  14
ATOM     14  C   UNL d   1       2.672  -0.429  -6.631  0.00  0.00     0.231 C 
ATOM     15  N   UNL d   1       2.420  -1.750  -6.939  0.00  0.00    -0.327 N 
ATOM     16  H   UNL d   1       1.865  -2.265  -6.261  0.00  0.00     0.169 HD
ATOM     17  O   UNL d   1       3.195   0.389  -7.392  0.00  0.00    -0.272 OA
BRANCH  15  18
ATOM     18  C   UNL d   1       2.726  -2.403  -8.157  0.00  0.00     0.034 A 
ATOM     19  C   UNL d   1       3.594  -1.875  -9.119  0.00  0.00     0.029 A 
ATOM     20  C   UNL d   1       3.813  -2.538 -10.331  0.00  0.00     0.002 A 
ATOM     21  C   UNL d   1       3.169  -3.743 -10.594  0.00  0.00     0.000 A 
ATOM     22  C   UNL d   1       2.329  -4.298  -9.631  0.00  0.00     0.002 A 
ATOM     23  C   UNL d   1       2.119  -3.639  -8.413  0.00  0.00     0.029 A 
ENDBRANCH  15  18
ENDBRANCH  13  14
ENDBRANCH   1  13
TORSDOF 7
