REMARK  1 active torsions:
REMARK  status: ('A' for Active; 'I' for Inactive)
REMARK    1  A    between atoms: C_4  and  C_1 
ROOT
ATOM      1  C   UNL d   1      -0.365   1.103   0.046  0.00  0.00     0.066 A 
ATOM      2  N   UNL d   1       0.630   0.708  -0.763  0.00  0.00    -0.300 N 
ATOM      3  HN  UNL d   1       1.113   1.254  -1.476  1.00  0.00     0.187 HD
ATOM      4  N   UNL d   1       0.846  -0.572  -0.418  0.00  0.00    -0.311 N 
ATOM      5  C   UNL d   1      -0.786   0.049   0.893  0.00  0.00     0.051 A 
ATOM      6  C   UNL d   1       0.017  -1.018   0.567  0.00  0.00     0.109 A 
ATOM      7  H   UNL d   1       1.580  -1.081  -0.898  0.00  0.00     0.186 HD
ENDROOT
BRANCH   1   8
ATOM      8  C   UNL d   1      -0.911   2.499   0.014  0.00  0.00     0.033 A 
ATOM      9  S   UNL d   1      -2.132   3.084   1.059  0.00  0.00    -0.100 SA
ATOM     10  C   UNL d   1      -2.071   4.645   0.362  0.00  0.00     0.050 A 
ATOM     11  C   UNL d   1      -1.151   4.718  -0.660  0.00  0.00     0.008 A 
ATOM     12  C   UNL d   1      -0.480   3.475  -0.861  0.00  0.00     0.021 A 
ENDBRANCH   1   8
TORSDOF 1
