REMARK  7 active torsions:
REMARK  status: ('A' for Active; 'I' for Inactive)
REMARK    1  A    between atoms: C_7  and  C_1 
REMARK    2  A    between atoms: C_3  and  C_2 
REMARK    3  A    between atoms: S_11  and  C_6 
REMARK    4  A    between atoms: O_16  and  C_7 
REMARK    5  A    between atoms: C_17  and  S_11 
REMARK    6  A    between atoms: C_25  and  O_16 
REMARK    7  A    between atoms: C_19  and  C_17 
ROOT
ATOM      1  C   UNL d   1      -0.041  -1.438   0.027  0.00  0.00     0.086 A 
ATOM      2  C   UNL d   1       1.185  -0.801  -0.027  0.00  0.00     0.136 A 
ATOM      3  N   UNL d   1       1.261   0.567  -0.031  0.00  0.00    -0.332 N 
ATOM      4  HN  UNL d   1       2.169   1.033  -0.043  1.00  0.00     0.168 HD
ATOM      5  C   UNL d   1       0.130   1.288  -0.019  0.00  0.00     0.144 A 
ATOM      6  N   UNL d   1      -1.093   0.751   0.024  0.00  0.00    -0.346 N 
ATOM      7  HN  UNL d   1      -1.935   1.326   0.042  1.00  0.00     0.167 HD
ATOM      8  C   UNL d   1      -1.147  -0.602   0.041  0.00  0.00     0.110 A 
ENDROOT
BRANCH   5   9
ATOM      9  S   UNL d   1       0.338   3.033  -0.199  0.00  0.00    -0.089 SA
BRANCH   9  10
ATOM     10  C   UNL d   1      -1.192   3.645   0.566  0.00  0.00     0.121 C 
BRANCH  10  11
ATOM     11  C   UNL d   1      -1.200   5.159   0.563  0.00  0.00    -0.048 A 
ATOM     12  C   UNL d   1      -1.723   5.865  -0.533  0.00  0.00     0.009 A 
ATOM     13  C   UNL d   1      -1.673   7.261  -0.568  0.00  0.00     0.024 A 
ATOM     14  C   UNL d   1      -1.097   7.960   0.491  0.00  0.00     0.034 A 
ATOM     15  C   UNL d   1      -0.573   7.276   1.585  0.00  0.00     0.024 A 
ATOM     16 CL   UNL d   1      -1.024   9.679   0.441  0.00  0.00    -0.084 Cl
ATOM     17  C   UNL d   1      -0.622   5.880   1.620  0.00  0.00     0.009 A 
ENDBRANCH  10  11
ENDBRANCH   9  10
ENDBRANCH   5   9
BRANCH   2  18
ATOM     18  C   UNL d   1       2.515  -1.519  -0.127  0.00  0.00     0.433 C 
ATOM     19  F   UNL d   1       2.458  -2.811  -0.549  0.00  0.00    -0.165 F 
ATOM     20  F   UNL d   1       3.357  -0.916  -1.020  0.00  0.00    -0.165 F 
ATOM     21  F   UNL d   1       3.189  -1.534   1.057  0.00  0.00    -0.165 F 
ENDBRANCH   2  18
BRANCH   1  22
ATOM     22  C   UNL d   1      -0.302  -2.880   0.010  0.00  0.00     0.296 C 
ATOM     23  O   UNL d   1      -1.253  -3.363  -0.586  0.00  0.00    -0.259 OA
BRANCH  22  24
ATOM     24  O   UNL d   1       0.580  -3.546   0.789  0.00  0.00    -0.318 OA
BRANCH  24  25
ATOM     25  C   UNL d   1       0.431  -4.977   0.811  0.00  0.00     0.174 C 
ATOM     26  C   UNL d   1       0.963  -5.613  -0.465  0.00  0.00     0.034 C 
ENDBRANCH  24  25
ENDBRANCH  22  24
ENDBRANCH   1  22
TORSDOF 7
