REMARK  7 active torsions:
REMARK  status: ('A' for Active; 'I' for Inactive)
REMARK    1  A    between atoms: C_2  and  C_1 
REMARK       I    between atoms: N_4  and  C_1 
REMARK    2  A    between atoms: S_10  and  C_3 
REMARK    3  A    between atoms: C_9  and  N_4 
REMARK    4  A    between atoms: O_8  and  C_11 
REMARK    5  A    between atoms: C_12  and  O_8 
REMARK    6  A    between atoms: C_25  and  S_10 
REMARK    7  A    between atoms: C_27  and  C_25 
ROOT
ATOM      1  C   UNL d   1       1.058  -0.307  -0.030  0.00  0.00     0.259 C 
ATOM      2  N   UNL d   1       0.327  -0.536   1.132  0.00  0.00    -0.323 N 
ATOM      3  O   UNL d   1       0.598  -0.070  -1.141  0.00  0.00    -0.267 OA
ATOM      4  H   UNL d   1       0.827  -0.517   2.008  0.00  0.00     0.169 HD
ENDROOT
BRANCH   2   5
ATOM      5  C   UNL d   1      -1.085  -0.600   1.203  0.00  0.00     0.035 C 
ATOM      6  C   UNL d   1      -1.888  -0.761   0.074  0.00  0.00     0.032 C 
ATOM      7  C   UNL d   1      -3.277  -0.693   0.170  0.00  0.00     0.039 C 
ATOM      8  C   UNL d   1      -3.875  -0.411   1.398  0.00  0.00     0.076 C 
ATOM      9  C   UNL d   1      -3.096  -0.386   2.553  0.00  0.00     0.039 C 
ATOM     10  C   UNL d   1      -1.701  -0.494   2.458  0.00  0.00     0.032 C 
BRANCH   8  11
ATOM     11  O   UNL d   1      -5.223  -0.144   1.525  0.00  0.00    -0.311 OA
BRANCH  11  12
ATOM     12  C   UNL d   1      -5.819   0.603   0.526  0.00  0.00     0.076 A 
ATOM     13  C   UNL d   1      -7.119   0.246   0.165  0.00  0.00     0.039 A 
ATOM     14  C   UNL d   1      -7.753   0.899  -0.896  0.00  0.00     0.026 A 
ATOM     15  C   UNL d   1      -7.086   1.913  -1.587  0.00  0.00     0.034 A 
ATOM     16  C   UNL d   1      -5.810   2.311  -1.195  0.00  0.00     0.026 A 
ATOM     17 CL   UNL d   1      -7.839   2.670  -2.935  0.00  0.00    -0.084 Cl
ATOM     18  C   UNL d   1      -5.188   1.675  -0.119  0.00  0.00     0.039 A 
ENDBRANCH  11  12
ENDBRANCH   8  11
ENDBRANCH   2   5
BRANCH   1  19
ATOM     19  C   UNL d   1       2.527  -0.423   0.096  0.00  0.00     0.065 A 
ATOM     20  C   UNL d   1       3.424   0.452  -0.530  0.00  0.00     0.085 A 
ATOM     21  N   UNL d   1       4.766   0.222  -0.511  0.00  0.00    -0.360 N 
ATOM     22  C   UNL d   1       5.221  -0.885   0.107  0.00  0.00     0.089 A 
ATOM     23  HN  UNL d   1       5.413   0.874  -0.955  1.00  0.00     0.166 HD
ATOM     24  C   UNL d   1       4.404  -1.788   0.760  0.00  0.00     0.018 A 
ATOM     25  C   UNL d   1       3.035  -1.552   0.750  0.00  0.00     0.021 A 
BRANCH  20  26
ATOM     26  S   UNL d   1       2.947   2.001  -1.295  0.00  0.00    -0.111 SA
BRANCH  26  27
ATOM     27  C   UNL d   1       4.264   2.157  -2.555  0.00  0.00     0.080 C 
BRANCH  27  28
ATOM     28  C   UNL d   1       4.071   3.423  -3.390  0.00  0.00     0.006 C 
ATOM     29  C   UNL d   1       5.141   3.533  -4.469  0.00  0.00     0.006 C 
ENDBRANCH  27  28
ENDBRANCH  26  27
ENDBRANCH  20  26
ENDBRANCH   1  19
TORSDOF 7
