REMARK  5 active torsions:
REMARK  status: ('A' for Active; 'I' for Inactive)
REMARK    1  A    between atoms: O_6  and  C_1 
REMARK    2  A    between atoms: C_9  and  C_1 
REMARK    3  A    between atoms: C_3  and  O_6 
REMARK    4  A    between atoms: C_11  and  C_9 
REMARK    5  A    between atoms: C_14  and  C_9 
ROOT
ATOM      1  C   UNL d   1       0.663   0.075  -0.479  0.00  0.00     0.273 C 
ATOM      2  O   UNL d   1       1.682  -0.008  -1.152  0.00  0.00    -0.264 OA
ENDROOT
BRANCH   1   3
ATOM      3  O   UNL d   1      -0.518  -0.607  -0.765  0.00  0.00    -0.277 OA
BRANCH   3   4
ATOM      4  C   UNL d   1      -0.597  -1.407  -1.917  0.00  0.00     0.102 A 
ATOM      5  C   UNL d   1      -0.315  -2.775  -1.852  0.00  0.00     0.075 A 
ATOM      6  C   UNL d   1      -0.583  -3.595  -2.964  0.00  0.00    -0.015 A 
ATOM      7 CL   UNL d   1       0.286  -3.425  -0.361  0.00  0.00    -0.081 Cl
ATOM      8  C   UNL d   1      -0.275  -5.072  -2.956  0.00  0.00     0.052 C 
ATOM      9  C   UNL d   1      -1.181  -3.005  -4.109  0.00  0.00     0.047 A 
ATOM     10  C   UNL d   1      -1.465  -1.623  -4.166  0.00  0.00    -0.037 A 
ATOM     11 CL   UNL d   1      -1.615  -4.021  -5.454  0.00  0.00    -0.083 Cl
ATOM     12  C   UNL d   1      -1.169  -0.831  -3.049  0.00  0.00     0.047 A 
ATOM     13  C   UNL d   1      -2.144  -0.956  -5.333  0.00  0.00     0.050 C 
ENDBRANCH   3   4
ENDBRANCH   1   3
BRANCH   1  14
ATOM     14  C   UNL d   1       0.490   0.939   0.795  0.00  0.00     0.123 C 
BRANCH  14  15
ATOM     15  C   UNL d   1       0.969   2.389   0.645  0.00  0.00    -0.044 A 
ATOM     16  C   UNL d   1       1.012   3.047  -0.591  0.00  0.00     0.008 A 
ATOM     17  C   UNL d   1       1.303   4.412  -0.662  0.00  0.00     0.001 A 
ATOM     18  C   UNL d   1       1.547   5.142   0.499  0.00  0.00     0.000 A 
ATOM     19  C   UNL d   1       1.530   4.502   1.734  0.00  0.00     0.001 A 
ATOM     20  C   UNL d   1       1.256   3.135   1.807  0.00  0.00     0.008 A 
ENDBRANCH  14  15
BRANCH  14  21
ATOM     21  C   UNL d   1      -0.946   0.971   1.402  0.00  0.00     0.003 C 
ATOM     22  C   UNL d   1      -1.440  -0.381   1.930  0.00  0.00     0.006 C 
ATOM     23  C   UNL d   1      -2.874  -0.551   1.453  0.00  0.00     0.000 C 
ATOM     24  C   UNL d   1      -3.291   0.744   0.774  0.00  0.00     0.000 C 
ATOM     25  C   UNL d   1      -2.025   1.511   0.454  0.00  0.00     0.006 C 
ENDBRANCH  14  21
ENDBRANCH   1  14
TORSDOF 5
