REMARK  8 active torsions:
REMARK  status: ('A' for Active; 'I' for Inactive)
REMARK    1  A    between atoms: C_2  and  N_1 
REMARK    2  A    between atoms: C_3  and  C_9 
REMARK       I    between atoms: N_18  and  C_3 
REMARK    3  A    between atoms: N_4  and  C_12 
REMARK    4  A    between atoms: O_10  and  C_5 
REMARK    5  A    between atoms: C_20  and  O_10 
REMARK    6  A    between atoms: C_12  and  C_19 
REMARK    7  A    between atoms: C_19  and  C_20 
REMARK    8  A    between atoms: O_23  and  C_19 
ROOT
ATOM      1  C   UNL d   1      -1.121  -1.466  -3.062  0.00  0.00     0.170 C 
ENDROOT
BRANCH   1   2
ATOM      2  C   UNL d   1      -2.576  -0.929  -3.138  0.00  0.00     0.306 C 
BRANCH   2   3
ATOM      3  N   UNL d   1      -2.729   0.521  -2.849  0.00  0.00     0.091 N 
ATOM      4  C   UNL d   1      -2.155   1.340  -3.929  0.00  0.00     0.273 C 
ATOM      5  C   UNL d   1      -2.263   2.830  -3.609  0.00  0.00     0.044 C 
ATOM      6  C   UNL d   1      -3.715   3.253  -3.386  0.00  0.00     0.081 C 
ATOM      7  C   UNL d   1      -4.355   2.337  -2.338  0.00  0.00     0.044 C 
ATOM      8  C   UNL d   1      -4.154   0.851  -2.661  0.00  0.00     0.273 C 
BRANCH   6   9
ATOM      9  C   UNL d   1      -4.510   3.267  -4.689  0.00  0.00     0.219 C 
ATOM     10  O   UNL d   1      -5.565   2.664  -4.863  0.00  0.00    -0.273 OA
ATOM     11  N   UNL d   1      -4.002   4.048  -5.684  0.00  0.00    -0.370 N 
ATOM     12  H   UNL d   1      -3.221   4.677  -5.556  0.00  0.00     0.159 HD
ATOM     13  H   UNL d   1      -4.528   4.102  -6.546  0.00  0.00     0.159 HD
ENDBRANCH   6   9
ENDBRANCH   2   3
ENDBRANCH   1   2
BRANCH   1  14
ATOM     14  C   UNL d   1      -0.478  -1.091  -1.716  0.00  0.00     0.209 C 
BRANCH  14  15
ATOM     15  O   UNL d   1       0.880  -1.558  -1.662  0.00  0.00    -0.346 OA
BRANCH  15  16
ATOM     16  C   UNL d   1       1.519  -1.378  -0.460  0.00  0.00     0.101 A 
ATOM     17  C   UNL d   1       2.911  -1.221  -0.439  0.00  0.00     0.136 A 
ATOM     18  C   UNL d   1       3.638  -1.132   0.763  0.00  0.00     0.045 A 
ATOM     19  C   UNL d   1       2.962  -1.195   1.984  0.00  0.00    -0.059 A 
ATOM     20  C   UNL d   1       1.570  -1.333   1.975  0.00  0.00     0.009 A 
ATOM     21  C   UNL d   1       3.688  -1.122   3.293  0.00  0.00     0.048 C 
ATOM     22  C   UNL d   1       0.862  -1.432   0.777  0.00  0.00     0.040 A 
BRANCH  17  23
ATOM     23  N   UNL d   1       3.654  -1.112  -1.679  0.00  0.00    -0.113 N 
ATOM     24  O   UNL d   1       3.330  -0.205  -2.461  0.00  0.00    -0.532 OA
ATOM     25  O   UNL d   1       4.605  -1.890  -1.838  0.00  0.00    -0.532 OA
ENDBRANCH  17  23
ENDBRANCH  15  16
ENDBRANCH  14  15
ENDBRANCH   1  14
BRANCH   1  26
ATOM     26  O   UNL d   1      -0.354  -1.028  -4.188  0.00  0.00    -0.392 OA
ATOM     27  H   UNL d   1       0.471  -0.638  -3.846  0.00  0.00     0.210 HD
ENDBRANCH   1  26
TORSDOF 8
