REMARK  5 active torsions:
REMARK  status: ('A' for Active; 'I' for Inactive)
REMARK    1  A    between atoms: C_6  and  C_1 
REMARK    2  A    between atoms: C_4  and  C_6 
REMARK    3  A    between atoms: C_5  and  C_4 
REMARK    4  A    between atoms: N_10  and  C_4 
REMARK    5  A    between atoms: O_11  and  C_5 
ROOT
ATOM      1  C   UNL d   1      -1.414  -1.173   0.005  0.00  0.00    -0.027 A 
ATOM      2  N   UNL d   1      -0.853   0.807   0.874  0.00  0.00    -0.365 N 
ATOM      3  C   UNL d   1      -1.264  -0.460   1.179  0.00  0.00     0.096 A 
ATOM      4  C   UNL d   1      -1.089  -0.269  -1.065  0.00  0.00    -0.002 A 
ATOM      5  C   UNL d   1      -0.758   0.961  -0.488  0.00  0.00     0.042 A 
ATOM      6  C   UNL d   1      -1.057  -0.363  -2.474  0.00  0.00     0.014 A 
ATOM      7  C   UNL d   1      -0.409   2.090  -1.239  0.00  0.00     0.030 A 
ATOM      8  C   UNL d   1      -0.705   0.758  -3.241  0.00  0.00     0.001 A 
ATOM      9  C   UNL d   1      -0.391   1.967  -2.628  0.00  0.00     0.002 A 
ATOM     10  H   UNL d   1      -0.663   1.537   1.544  0.00  0.00     0.165 HD
ENDROOT
BRANCH   1  11
ATOM     11  C   UNL d   1      -1.894  -2.597  -0.091  0.00  0.00     0.092 C 
BRANCH  11  12
ATOM     12  C   UNL d   1      -0.812  -3.704  -0.005  0.00  0.00     0.241 C 
ATOM     13  C   UNL d   1      -0.010  -3.676   1.304  0.00  0.00     0.060 C 
BRANCH  12  14
ATOM     14  C   UNL d   1      -1.531  -5.081  -0.101  0.00  0.00     0.297 C 
ATOM     15  O   UNL d   1      -1.380  -5.871  -1.027  0.00  0.00    -0.262 OA
BRANCH  14  16
ATOM     16  O   UNL d   1      -2.320  -5.304   0.988  0.00  0.00    -0.324 OA
ATOM     17  C   UNL d   1      -2.912  -6.603   1.063  0.00  0.00     0.213 C 
ENDBRANCH  14  16
ENDBRANCH  12  14
BRANCH  12  18
ATOM     18  N   UNL d   1       0.172  -3.598  -1.122  0.00  0.00     0.098 N 
ATOM     19  H   UNL d   1      -0.317  -3.304  -1.967  0.00  0.00     0.314 HD
ATOM     20  H   UNL d   1       0.510  -4.541  -1.336  0.00  0.00     0.314 HD
ENDBRANCH  12  18
ENDBRANCH  11  12
ENDBRANCH   1  11
TORSDOF 5
