REMARK  5 active torsions:
REMARK  status: ('A' for Active; 'I' for Inactive)
REMARK    1  A    between atoms: N_2  and  C_1 
REMARK    2  A    between atoms: N_3  and  C_1 
REMARK    3  A    between atoms: C_4  and  N_2 
REMARK       I    between atoms: C_5  and  N_3 
REMARK    4  A    between atoms: O_14  and  C_5 
REMARK    5  A    between atoms: C_17  and  O_14 
ROOT
ATOM      1  N   UNL d   1       0.378   0.771  -0.894  0.00  0.00    -0.319 N 
ATOM      2  H   UNL d   1       0.688  -0.193  -0.977  0.00  0.00     0.169 HD
ENDROOT
BRANCH   1   3
ATOM      3  C   UNL d   1      -0.630   0.989   0.015  0.00  0.00     0.181 C 
ATOM      4  S   UNL d   1      -1.210   2.431   0.634  0.00  0.00    -0.040 SA
BRANCH   3   5
ATOM      5  N   UNL d   1      -1.244  -0.158   0.486  0.00  0.00    -0.279 N 
ATOM      6  C   UNL d   1      -1.135  -1.432  -0.002  0.00  0.00     0.366 C 
ATOM      7  O   UNL d   1      -0.238  -1.834  -0.733  0.00  0.00    -0.238 OA
ATOM      8  H   UNL d   1      -2.044   0.003   1.081  0.00  0.00     0.173 HD
BRANCH   6   9
ATOM      9  O   UNL d   1      -2.183  -2.169   0.441  0.00  0.00    -0.304 OA
BRANCH   9  10
ATOM     10  C   UNL d   1      -2.372  -3.433  -0.211  0.00  0.00     0.176 C 
ATOM     11  C   UNL d   1      -3.263  -3.223  -1.423  0.00  0.00     0.034 C 
ENDBRANCH   9  10
ENDBRANCH   6   9
ENDBRANCH   3   5
ENDBRANCH   1   3
BRANCH   1  12
ATOM     12  C   UNL d   1       0.986   1.672  -1.782  0.00  0.00     0.107 A 
ATOM     13  N   UNL d   1       0.485   2.905  -1.954  0.00  0.00    -0.346 N 
ATOM     14  C   UNL d   1       1.057   3.716  -2.870  0.00  0.00     0.007 A 
ATOM     15  HN  UNL d   1      -0.312   3.224  -1.404  1.00  0.00     0.167 HD
ATOM     16  C   UNL d   1       0.442   5.071  -3.053  0.00  0.00     0.068 C 
ATOM     17  C   UNL d   1       2.150   3.328  -3.636  0.00  0.00     0.031 A 
ATOM     18  C   UNL d   1       2.675   2.049  -3.457  0.00  0.00    -0.057 A 
ATOM     19  C   UNL d   1       2.071   1.207  -2.520  0.00  0.00     0.055 A 
ATOM     20  C   UNL d   1       3.851   1.598  -4.269  0.00  0.00     0.048 C 
ENDBRANCH   1  12
TORSDOF 5
