REMARK  7 active torsions:
REMARK  status: ('A' for Active; 'I' for Inactive)
REMARK    1  A    between atoms: C_2  and  C_1 
REMARK    2  A    between atoms: N_3  and  C_1 
REMARK    3  A    between atoms: C_4  and  C_1 
REMARK    4  A    between atoms: N_5  and  C_1 
REMARK       I    between atoms: C_6  and  N_3 
REMARK    5  A    between atoms: O_13  and  C_4 
REMARK    6  A    between atoms: C_12  and  N_5 
REMARK    7  A    between atoms: C_20  and  O_13 
ROOT
ATOM      1  C   UNL d   1       0.886   0.011   0.017  0.00  0.00     0.296 C 
ENDROOT
BRANCH   1   2
ATOM      2  C   UNL d   1       0.197  -1.239  -0.640  0.00  0.00     0.442 C 
ATOM      3  F   UNL d   1      -0.212  -2.145   0.287  0.00  0.00    -0.166 F 
ATOM      4  F   UNL d   1      -0.890  -0.932  -1.390  0.00  0.00    -0.166 F 
ATOM      5  F   UNL d   1       1.048  -1.904  -1.469  0.00  0.00    -0.166 F 
ENDBRANCH   1   2
BRANCH   1   6
ATOM      6  N   UNL d   1       0.516   0.333   1.387  0.00  0.00    -0.319 N 
ATOM      7  C   UNL d   1      -0.789   0.448   1.774  0.00  0.00     0.216 C 
ATOM      8  O   UNL d   1      -1.720   0.193   1.024  0.00  0.00    -0.274 OA
ATOM      9  C   UNL d   1      -0.979   0.912   3.189  0.00  0.00     0.117 C 
ATOM     10  H   UNL d   1       1.284   0.568   1.996  0.00  0.00     0.165 HD
ENDBRANCH   1   6
BRANCH   1  11
ATOM     11  C   UNL d   1       0.504   1.205  -0.916  0.00  0.00     0.318 C 
ATOM     12  O   UNL d   1       0.002   2.269  -0.547  0.00  0.00    -0.260 OA
BRANCH  11  13
ATOM     13  O   UNL d   1       0.927   0.971  -2.200  0.00  0.00    -0.318 OA
BRANCH  13  14
ATOM     14  C   UNL d   1       0.518   1.952  -3.169  0.00  0.00     0.174 C 
ATOM     15  C   UNL d   1       1.482   3.123  -3.194  0.00  0.00     0.034 C 
ENDBRANCH  13  14
ENDBRANCH  11  13
ENDBRANCH   1  11
BRANCH   1  16
ATOM     16  N   UNL d   1       2.382   0.010   0.128  0.00  0.00    -0.348 N 
ATOM     17  H   UNL d   1       2.804   0.517  -0.652  0.00  0.00     0.163 HD
BRANCH  16  18
ATOM     18  C   UNL d   1       3.174  -1.068   0.512  0.00  0.00     0.030 A 
ATOM     19  C   UNL d   1       2.722  -2.173   1.232  0.00  0.00     0.029 A 
ATOM     20  C   UNL d   1       3.598  -3.198   1.616  0.00  0.00     0.009 A 
ATOM     21  C   UNL d   1       4.964  -3.118   1.334  0.00  0.00    -0.062 A 
ATOM     22  C   UNL d   1       5.440  -1.985   0.675  0.00  0.00     0.009 A 
ATOM     23  C   UNL d   1       5.892  -4.217   1.755  0.00  0.00     0.048 C 
ATOM     24  C   UNL d   1       4.555  -0.977   0.280  0.00  0.00     0.029 A 
ENDBRANCH  16  18
ENDBRANCH   1  16
TORSDOF 7
