REMARK  4 active torsions:
REMARK  status: ('A' for Active; 'I' for Inactive)
REMARK    1  A    between atoms: N_2  and  C_1 
REMARK    2  A    between atoms: N_3  and  C_1 
REMARK    3  A    between atoms: C_7  and  N_2 
REMARK    4  A    between atoms: C_9  and  N_3 
ROOT
ATOM      1  N   UNL d   1       0.463   0.774   0.897  0.00  0.00    -0.333 N 
ATOM      2  H   UNL d   1      -0.333   0.357   1.358  0.00  0.00     0.168 HD
ENDROOT
BRANCH   1   3
ATOM      3  C   UNL d   1       1.035  -0.027  -0.049  0.00  0.00     0.172 C 
ATOM      4  S   UNL d   1       2.666  -0.362  -0.221  0.00  0.00    -0.041 SA
BRANCH   3   5
ATOM      5  N   UNL d   1       0.189  -0.655  -0.915  0.00  0.00    -0.359 N 
ATOM      6  H   UNL d   1       0.696  -1.270  -1.543  0.00  0.00     0.162 HD
BRANCH   5   7
ATOM      7  C   UNL d   1      -1.210  -0.363  -1.297  0.00  0.00     0.021 C 
ATOM      8  C   UNL d   1      -1.438   1.142  -1.521  0.00  0.00     0.037 C 
ATOM      9  C   UNL d   1      -1.474  -1.080  -2.638  0.00  0.00     0.037 C 
ATOM     10  C   UNL d   1      -2.204  -0.908  -0.263  0.00  0.00     0.037 C 
ENDBRANCH   5   7
ENDBRANCH   3   5
ENDBRANCH   1   3
BRANCH   1  11
ATOM     11  C   UNL d   1       1.004   1.922   1.512  0.00  0.00     0.034 A 
ATOM     12  C   UNL d   1       1.872   2.789   0.841  0.00  0.00     0.037 A 
ATOM     13  C   UNL d   1       2.349   3.966   1.449  0.00  0.00    -0.043 A 
ATOM     14  C   UNL d   1       3.256   4.875   0.670  0.00  0.00     0.049 C 
ATOM     15  C   UNL d   1       1.946   4.247   2.762  0.00  0.00     0.017 A 
ATOM     16  C   UNL d   1       1.061   3.395   3.430  0.00  0.00     0.022 A 
ATOM     17 BR   UNL d   1       2.557   5.785   3.694  0.00  0.00    -0.051 Br
ATOM     18  C   UNL d   1       0.576   2.248   2.799  0.00  0.00     0.031 A 
ENDBRANCH   1  11
TORSDOF 4
