REMARK  3 active torsions:
REMARK  status: ('A' for Active; 'I' for Inactive)
REMARK    1  A    between atoms: C_2  and  C_1 
REMARK    2  A    between atoms: O_11  and  C_1 
REMARK    3  A    between atoms: C_8  and  C_7 
ROOT
ATOM      1  C   UNL d   1      -1.131   0.156   0.567  0.00  0.00     0.291 C 
ATOM      2  N   UNL d   1       0.576  -0.148  -0.970  0.00  0.00    -0.266 N 
ATOM      3  HN  UNL d   1       1.048  -0.387  -1.842  1.00  0.00     0.194 HD
ATOM      4  C   UNL d   1       0.119   0.795   1.130  0.00  0.00     0.140 C 
ATOM      5  O   UNL d   1      -0.648  -0.688  -0.496  0.00  0.00    -0.230 OA
ATOM      6  C   UNL d   1       0.979   0.707  -0.085  0.00  0.00     0.048 C 
ENDROOT
BRANCH   6   7
ATOM      7  C   UNL d   1       2.220   1.508  -0.215  0.00  0.00    -0.011 A 
ATOM      8  C   UNL d   1       3.020   1.360  -1.355  0.00  0.00     0.025 A 
ATOM      9  C   UNL d   1       4.198   2.113  -1.509  0.00  0.00    -0.025 A 
ATOM     10  C   UNL d   1       5.015   1.979  -2.643  0.00  0.00     0.012 A 
ATOM     11  C   UNL d   1       4.574   3.032  -0.500  0.00  0.00    -0.026 A 
ATOM     12  C   UNL d   1       6.178   2.739  -2.779  0.00  0.00     0.001 A 
ATOM     13  C   UNL d   1       6.543   3.642  -1.785  0.00  0.00     0.001 A 
ATOM     14  C   UNL d   1       5.744   3.787  -0.651  0.00  0.00     0.012 A 
ATOM     15  C   UNL d   1       3.764   3.169   0.636  0.00  0.00     0.013 A 
ATOM     16  C   UNL d   1       2.601   2.412   0.781  0.00  0.00     0.014 A 
ENDBRANCH   6   7
BRANCH   1  17
ATOM     17  C   UNL d   1      -1.894  -0.682   1.626  0.00  0.00     0.447 C 
ATOM     18  F   UNL d   1      -1.360  -0.578   2.864  0.00  0.00    -0.165 F 
ATOM     19  F   UNL d   1      -3.180  -0.238   1.717  0.00  0.00    -0.165 F 
ATOM     20  F   UNL d   1      -1.962  -1.995   1.320  0.00  0.00    -0.165 F 
ENDBRANCH   1  17
BRANCH   1  21
ATOM     21  O   UNL d   1      -1.948   1.222   0.027  0.00  0.00    -0.357 OA
ATOM     22  H   UNL d   1      -2.877   0.945   0.136  0.00  0.00     0.213 HD
ENDBRANCH   1  21
TORSDOF 3
