REMARK  5 active torsions:
REMARK  status: ('A' for Active; 'I' for Inactive)
REMARK    1  A    between atoms: C_5  and  C_1 
REMARK    2  A    between atoms: C_14  and  C_2 
REMARK    3  A    between atoms: C_6  and  C_19 
REMARK    4  A    between atoms: O_21  and  C_14 
REMARK    5  A    between atoms: N_15  and  O_21 
ROOT
ATOM      1  C   UNL d   1       0.522  -2.779   0.814  0.00  0.00     0.320 C 
ATOM      2  O   UNL d   1      -0.081  -3.477   1.616  0.00  0.00    -0.257 OA
ENDROOT
BRANCH   1   3
ATOM      3  C   UNL d   1      -0.034  -1.542   0.306  0.00  0.00     0.102 A 
ATOM      4  C   UNL d   1      -0.810  -0.547   0.994  0.00  0.00     0.087 A 
ATOM      5  N   UNL d   1      -1.133   0.441   0.141  0.00  0.00    -0.259 N 
ATOM      6  O   UNL d   1      -0.646   0.086  -1.090  0.00  0.00    -0.241 OA
ATOM      7  HN  UNL d   1      -1.644   1.294   0.367  1.00  0.00     0.195 HD
ATOM      8  C   UNL d   1       0.025  -1.089  -0.997  0.00  0.00     0.091 A 
ATOM      9  C   UNL d   1       0.583  -1.588  -2.271  0.00  0.00     0.080 C 
BRANCH   4  10
ATOM     10  C   UNL d   1      -1.212  -0.453   2.409  0.00  0.00     0.037 A 
ATOM     11  C   UNL d   1      -0.289  -0.657   3.456  0.00  0.00     0.048 A 
ATOM     12 CL   UNL d   1       1.408  -0.909   3.201  0.00  0.00    -0.083 Cl
ATOM     13  C   UNL d   1      -0.682  -0.571   4.801  0.00  0.00     0.025 A 
ATOM     14  C   UNL d   1      -1.980  -0.205   5.138  0.00  0.00     0.003 A 
ATOM     15  C   UNL d   1      -2.896   0.053   4.127  0.00  0.00     0.025 A 
ATOM     16  C   UNL d   1      -2.530  -0.092   2.777  0.00  0.00     0.048 A 
ATOM     17 CL   UNL d   1      -3.807   0.186   1.635  0.00  0.00    -0.083 Cl
ENDBRANCH   4  10
ENDBRANCH   1   3
BRANCH   1  18
ATOM     18  O   UNL d   1       1.778  -3.044   0.286  0.00  0.00    -0.195 OA
BRANCH  18  19
ATOM     19  N   UNL d   1       2.180  -4.348   0.640  0.00  0.00    -0.268 N 
ATOM     20  C   UNL d   1       3.182  -4.737  -0.078  0.00  0.00     0.127 C 
ATOM     21  HN  UNL d   1       1.738  -4.910   1.367  1.00  0.00     0.194 HD
BRANCH  20  22
ATOM     22  C   UNL d   1       3.630  -6.160  -0.063  0.00  0.00    -0.006 A 
ATOM     23  C   UNL d   1       2.657  -7.186  -0.094  0.00  0.00    -0.043 A 
ATOM     24  C   UNL d   1       3.076  -8.538  -0.034  0.00  0.00    -0.049 A 
ATOM     25  C   UNL d   1       1.175  -6.883  -0.195  0.00  0.00     0.049 C 
ATOM     26  C   UNL d   1       2.058  -9.662   0.051  0.00  0.00     0.049 C 
ATOM     27  C   UNL d   1       4.463  -8.867  -0.068  0.00  0.00    -0.049 A 
ATOM     28  C   UNL d   1       5.433  -7.836  -0.130  0.00  0.00    -0.049 A 
ATOM     29  C   UNL d   1       4.830 -10.336  -0.058  0.00  0.00     0.049 C 
ATOM     30  C   UNL d   1       5.014  -6.467  -0.081  0.00  0.00    -0.043 A 
ATOM     31  C   UNL d   1       6.915  -8.126  -0.226  0.00  0.00     0.049 C 
ATOM     32  C   UNL d   1       6.073  -5.386  -0.032  0.00  0.00     0.049 C 
ENDBRANCH  20  22
ENDBRANCH  18  19
ENDBRANCH   1  18
TORSDOF 5
