REMARK  6 active torsions:
REMARK  status: ('A' for Active; 'I' for Inactive)
REMARK    1  A    between atoms: C_18  and  C_2 
REMARK    2  A    between atoms: C_7  and  C_10 
REMARK       I    between atoms: N_15  and  C_7 
REMARK    3  A    between atoms: C_10  and  O_11 
REMARK    4  A    between atoms: O_11  and  C_12 
REMARK    5  A    between atoms: N_17  and  N_15 
REMARK    6  A    between atoms: C_20  and  C_18 
ROOT
ATOM      1  C   UNL d   1       0.300   0.472  -0.432  0.00  0.00     0.092 A 
ATOM      2  C   UNL d   1      -0.563  -1.815  -0.114  0.00  0.00    -0.039 C 
ATOM      3  O   UNL d   1      -1.013   0.950  -0.585  0.00  0.00    -0.275 OA
ATOM      4  C   UNL d   1      -2.084   0.129  -0.288  0.00  0.00     0.288 C 
ATOM      5  C   UNL d   1       0.568  -0.875  -0.177  0.00  0.00     0.004 A 
ATOM      6  C   UNL d   1      -1.802  -1.305  -0.146  0.00  0.00     0.090 C 
ATOM      7  C   UNL d   1       1.301   1.444  -0.474  0.00  0.00     0.075 A 
ATOM      8  C   UNL d   1       1.902  -1.238   0.034  0.00  0.00     0.017 A 
ATOM      9  C   UNL d   1       2.607   1.079  -0.174  0.00  0.00     0.072 A 
ATOM     10  O   UNL d   1      -3.236   0.551  -0.221  0.00  0.00    -0.260 OA
ATOM     11  C   UNL d   1       2.912  -0.267   0.040  0.00  0.00     0.038 A 
ENDROOT
BRANCH   9  12
ATOM     12  O   UNL d   1       3.649   1.948   0.006  0.00  0.00    -0.337 OA
BRANCH  12  13
ATOM     13  C   UNL d   1       3.315   3.290   0.375  0.00  0.00     0.217 C 
ATOM     14  C   UNL d   1       4.632   4.044   0.530  0.00  0.00     0.050 C 
BRANCH  13  15
ATOM     15  C   UNL d   1       2.526   3.452   1.693  0.00  0.00     0.260 C 
ATOM     16  O   UNL d   1       1.766   4.400   1.897  0.00  0.00    -0.269 OA
ATOM     17  N   UNL d   1       2.808   2.490   2.659  0.00  0.00    -0.292 N 
ATOM     18  H   UNL d   1       3.246   1.623   2.345  0.00  0.00     0.183 HD
BRANCH  17  19
ATOM     19  N   UNL d   1       2.024   2.454   3.836  0.00  0.00    -0.247 NA
ATOM     20  H   UNL d   1       1.351   3.232   3.774  0.00  0.00     0.143 HD
ATOM     21  H   UNL d   1       2.625   2.703   4.626  0.00  0.00     0.143 HD
ENDBRANCH  17  19
ENDBRANCH  13  15
ENDBRANCH  12  13
ENDBRANCH   9  12
BRANCH   2  22
ATOM     22  C   UNL d   1      -0.342  -3.305  -0.062  0.00  0.00     0.039 C 
BRANCH  22  23
ATOM     23  C   UNL d   1      -0.147  -3.849   1.356  0.00  0.00     0.000 C 
ATOM     24  C   UNL d   1       0.095  -5.352   1.329  0.00  0.00     0.005 C 
ENDBRANCH  22  23
ENDBRANCH   2  22
TORSDOF 6
