REMARK  3 active torsions:
REMARK  status: ('A' for Active; 'I' for Inactive)
REMARK    1  A    between atoms: C_2  and  C_1 
REMARK    2  A    between atoms: C_15  and  N_3 
REMARK    3  A    between atoms: C_9  and  C_4 
ROOT
ATOM      1  C   UNL d   1      -0.128  -1.309  -0.041  0.00  0.00     0.153 C 
ATOM      2  N   UNL d   1       1.097  -0.729   0.234  0.00  0.00    -0.224 N 
ATOM      3  N   UNL d   1       0.890   0.577   0.513  0.00  0.00     0.001 NA
ATOM      4  N   UNL d   1      -0.371   0.815   0.178  0.00  0.00    -0.007 NA
ATOM      5  N   UNL d   1      -1.009  -0.341  -0.192  0.00  0.00    -0.269 N 
ATOM      6  HN  UNL d   1      -1.971  -0.432  -0.519  1.00  0.00     0.185 HD
ENDROOT
BRANCH   1   7
ATOM      7  C   UNL d   1      -0.461  -2.755  -0.039  0.00  0.00     0.065 A 
ATOM      8  C   UNL d   1      -1.442  -3.396  -0.772  0.00  0.00     0.131 A 
ATOM      9  O   UNL d   1      -1.431  -4.719  -0.394  0.00  0.00    -0.236 OA
ATOM     10  N   UNL d   1      -0.434  -4.951   0.535  0.00  0.00    -0.271 N 
ATOM     11  C   UNL d   1       0.138  -3.765   0.742  0.00  0.00     0.132 A 
ATOM     12  HN  UNL d   1      -0.189  -5.840   0.970  1.00  0.00     0.194 HD
BRANCH   8  13
ATOM     13  C   UNL d   1      -2.291  -2.917  -1.829  0.00  0.00     0.041 A 
ATOM     14  S   UNL d   1      -3.826  -3.622  -2.116  0.00  0.00    -0.099 SA
ATOM     15  C   UNL d   1      -4.125  -2.592  -3.448  0.00  0.00     0.050 A 
ATOM     16  C   UNL d   1      -3.074  -1.737  -3.687  0.00  0.00     0.008 A 
ATOM     17  C   UNL d   1      -2.014  -1.929  -2.755  0.00  0.00     0.022 A 
ENDBRANCH   8  13
ENDBRANCH   1   7
BRANCH   2  18
ATOM     18  C   UNL d   1       2.394  -1.274   0.127  0.00  0.00     0.056 A 
ATOM     19  C   UNL d   1       2.651  -2.321  -0.773  0.00  0.00     0.031 A 
ATOM     20  C   UNL d   1       3.931  -2.864  -0.865  0.00  0.00     0.002 A 
ATOM     21  C   UNL d   1       4.955  -2.366  -0.062  0.00  0.00     0.000 A 
ATOM     22  C   UNL d   1       4.709  -1.306   0.812  0.00  0.00     0.002 A 
ATOM     23  C   UNL d   1       3.435  -0.743   0.897  0.00  0.00     0.031 A 
ENDBRANCH   2  18
TORSDOF 3
