REMARK  1 active torsions:
REMARK  status: ('A' for Active; 'I' for Inactive)
REMARK    1  A    between atoms: C_6  and  N_1 
ROOT
ATOM      1  N   UNL d   1      -2.287   0.158   0.048  0.00  0.00    -0.252 N 
ATOM      2  C   UNL d   1      -1.606   1.207   0.635  0.00  0.00     0.236 A 
ATOM      3  C   UNL d   1      -1.454  -0.910  -0.229  0.00  0.00     0.236 A 
ATOM      4  C   UNL d   1      -0.192   0.779   0.924  0.00  0.00     0.100 A 
ATOM      5  C   UNL d   1      -0.080  -0.619   0.294  0.00  0.00     0.100 A 
ATOM      6  C   UNL d   1       0.864   1.597   0.154  0.00  0.00     0.022 C 
ATOM      7  C   UNL d   1       0.979  -0.419  -0.813  0.00  0.00     0.022 C 
ATOM      8  C   UNL d   1       2.222   1.012   0.491  0.00  0.00    -0.025 C 
ATOM      9  C   UNL d   1       2.295  -0.193  -0.099  0.00  0.00    -0.025 C 
ATOM     10  C   UNL d   1       0.730   1.028  -1.264  0.00  0.00     0.018 C 
ATOM     11  O   UNL d   1      -2.016   2.322   0.926  0.00  0.00    -0.272 OA
ATOM     12  O   UNL d   1      -1.704  -1.930  -0.857  0.00  0.00    -0.272 OA
ENDROOT
BRANCH   1  13
ATOM     13  C   UNL d   1      -3.673   0.185  -0.302  0.00  0.00     0.048 A 
ATOM     14  C   UNL d   1      -4.359   1.392  -0.511  0.00  0.00     0.054 A 
ATOM     15  C   UNL d   1      -5.715   1.398  -0.853  0.00  0.00     0.037 A 
ATOM     16 CL   UNL d   1      -6.515   2.895  -1.141  0.00  0.00    -0.084 Cl
ATOM     17  C   UNL d   1      -6.427   0.211  -0.975  0.00  0.00     0.048 A 
ATOM     18  C   UNL d   1      -5.765  -0.990  -0.757  0.00  0.00     0.037 A 
ATOM     19  C   UNL d   1      -4.405  -1.008  -0.434  0.00  0.00     0.054 A 
ATOM     20 CL   UNL d   1      -6.634  -2.471  -0.872  0.00  0.00    -0.084 Cl
ENDBRANCH   1  13
TORSDOF 1
