REMARK  2 active torsions:
REMARK  status: ('A' for Active; 'I' for Inactive)
REMARK    1  A    between atoms: C_9  and  C_4 
REMARK    2  A    between atoms: C_10  and  C_5 
ROOT
ATOM      1  C   UNL d   1       0.767  -0.209   0.174  0.00  0.00    -0.006 A 
ATOM      2  C   UNL d   1       0.288   2.109  -0.107  0.00  0.00    -0.006 A 
ATOM      3  C   UNL d   1       1.385   1.113  -0.089  0.00  0.00     0.184 A 
ATOM      4  C   UNL d   1       1.526  -1.306   0.306  0.00  0.00     0.022 C 
ATOM      5  C   UNL d   1       0.548   3.416  -0.244  0.00  0.00     0.022 C 
ATOM      6  C   UNL d   1      -1.028   1.419   0.067  0.00  0.00     0.047 A 
ATOM      7  C   UNL d   1      -0.718  -0.063   0.289  0.00  0.00     0.047 A 
ATOM      8  O   UNL d   1       2.569   1.339  -0.243  0.00  0.00    -0.287 OA
ENDROOT
BRANCH   4   9
ATOM      9  C   UNL d   1       0.982  -2.632   0.595  0.00  0.00    -0.035 A 
ATOM     10  C   UNL d   1       0.620  -3.486  -0.455  0.00  0.00     0.014 A 
ATOM     11  C   UNL d   1       0.118  -4.760  -0.180  0.00  0.00     0.043 A 
ATOM     12  C   UNL d   1      -0.015  -5.175   1.140  0.00  0.00     0.116 A 
ATOM     13  C   UNL d   1       0.332  -4.336   2.193  0.00  0.00     0.043 A 
ATOM     14  F   UNL d   1      -0.487  -6.401   1.401  0.00  0.00    -0.206 F 
ATOM     15  C   UNL d   1       0.828  -3.059   1.921  0.00  0.00     0.014 A 
ENDBRANCH   4   9
BRANCH   5  16
ATOM     16  C   UNL d   1      -0.487   4.448  -0.222  0.00  0.00    -0.035 A 
ATOM     17  C   UNL d   1      -0.849   5.050   0.991  0.00  0.00     0.014 A 
ATOM     18  C   UNL d   1      -1.826   6.047   1.014  0.00  0.00     0.043 A 
ATOM     19  C   UNL d   1      -2.433   6.439  -0.174  0.00  0.00     0.116 A 
ATOM     20  C   UNL d   1      -2.091   5.843  -1.383  0.00  0.00     0.043 A 
ATOM     21  F   UNL d   1      -3.360   7.405  -0.153  0.00  0.00    -0.206 F 
ATOM     22  C   UNL d   1      -1.120   4.840  -1.407  0.00  0.00     0.014 A 
ENDBRANCH   5  16
TORSDOF 2
