REMARK  8 active torsions:
REMARK  status: ('A' for Active; 'I' for Inactive)
REMARK       I    between atoms: N_2  and  C_1 
REMARK    1  A    between atoms: C_6  and  C_1 
REMARK    2  A    between atoms: C_7  and  N_2 
REMARK    3  A    between atoms: C_19  and  N_2 
REMARK    4  A    between atoms: N_3  and  C_4 
REMARK       I    between atoms: C_5  and  N_3 
REMARK    5  A    between atoms: C_14  and  C_7 
REMARK    6  A    between atoms: C_9  and  O_17 
REMARK    7  A    between atoms: O_17  and  C_20 
REMARK    8  A    between atoms: C_20  and  C_19 
ROOT
ATOM      1  C   UNL d   1       1.211  -0.121  -0.038  0.00  0.00     0.254 C 
ATOM      2  N   UNL d   1       0.413  -1.042  -0.742  0.00  0.00    -0.342 N 
ATOM      3  O   UNL d   1       0.782   0.926   0.433  0.00  0.00    -0.267 OA
ENDROOT
BRANCH   2   4
ATOM      4  C   UNL d   1      -1.003  -0.728  -0.946  0.00  0.00     0.164 C 
BRANCH   4   5
ATOM      5  C   UNL d   1      -1.937  -0.477   0.216  0.00  0.00    -0.040 A 
ATOM      6  C   UNL d   1      -3.114   0.250  -0.057  0.00  0.00     0.009 A 
ATOM      7  C   UNL d   1      -4.108   0.417   0.907  0.00  0.00     0.001 A 
ATOM      8  C   UNL d   1      -3.943  -0.145   2.166  0.00  0.00     0.000 A 
ATOM      9  C   UNL d   1      -2.785  -0.873   2.456  0.00  0.00     0.001 A 
ATOM     10  C   UNL d   1      -1.790  -1.046   1.485  0.00  0.00     0.009 A 
ENDBRANCH   4   5
ENDBRANCH   2   4
BRANCH   2  11
ATOM     11  C   UNL d   1       1.048  -1.854  -1.801  0.00  0.00     0.153 C 
BRANCH  11  12
ATOM     12  C   UNL d   1       0.474  -1.735  -3.221  0.00  0.00     0.195 C 
BRANCH  12  13
ATOM     13  O   UNL d   1       0.514  -0.384  -3.693  0.00  0.00    -0.347 OA
BRANCH  13  14
ATOM     14  C   UNL d   1       0.562  -0.240  -5.055  0.00  0.00     0.095 A 
ATOM     15  C   UNL d   1       1.113   0.921  -5.630  0.00  0.00     0.068 A 
ATOM     16  C   UNL d   1       1.134   1.026  -7.035  0.00  0.00     0.032 A 
ATOM     17  C   UNL d   1       0.638   0.010  -7.853  0.00  0.00     0.002 A 
ATOM     18  C   UNL d   1       0.056  -1.108  -7.283  0.00  0.00     0.003 A 
ATOM     19  C   UNL d   1      -0.004  -1.218  -5.897  0.00  0.00     0.039 A 
BRANCH  15  20
ATOM     20  N   UNL d   1       1.638   2.053  -4.957  0.00  0.00    -0.325 N 
ATOM     21  C   UNL d   1       2.094   2.176  -3.659  0.00  0.00     0.218 C 
ATOM     22  O   UNL d   1       2.298   1.282  -2.849  0.00  0.00    -0.274 OA
ATOM     23  C   UNL d   1       2.470   3.608  -3.341  0.00  0.00     0.117 C 
ATOM     24  H   UNL d   1       1.818   2.856  -5.545  0.00  0.00     0.169 HD
ENDBRANCH  15  20
ENDBRANCH  13  14
ENDBRANCH  12  13
ENDBRANCH  11  12
ENDBRANCH   2  11
BRANCH   1  25
ATOM     25  C   UNL d   1       2.650  -0.456   0.222  0.00  0.00     0.032 A 
ATOM     26  C   UNL d   1       3.603   0.572   0.181  0.00  0.00     0.018 A 
ATOM     27  C   UNL d   1       4.943   0.308   0.491  0.00  0.00     0.025 A 
ATOM     28  C   UNL d   1       5.330  -0.984   0.842  0.00  0.00     0.034 A 
ATOM     29  C   UNL d   1       4.398  -2.020   0.864  0.00  0.00     0.025 A 
ATOM     30 CL   UNL d   1       6.965  -1.300   1.282  0.00  0.00    -0.084 Cl
ATOM     31  C   UNL d   1       3.056  -1.754   0.568  0.00  0.00     0.018 A 
ENDBRANCH   1  25
TORSDOF 8
