REMARK  4 active torsions:
REMARK  status: ('A' for Active; 'I' for Inactive)
REMARK    1  A    between atoms: C_2  and  S_1 
REMARK    2  A    between atoms: C_6  and  S_1 
REMARK    3  A    between atoms: C_7  and  C_2 
REMARK    4  A    between atoms: N_3  and  C_7 
ROOT
ATOM      1  S   UNL d   1       0.896   0.300   0.006  0.00  0.00     0.177 S 
ATOM      2  O   UNL d   1       0.471   1.678  -0.161  0.00  0.00    -0.223 OA
ATOM      3  O   UNL d   1       2.300  -0.014   0.198  0.00  0.00    -0.223 OA
ENDROOT
BRANCH   1   4
ATOM      4  C   UNL d   1       0.302  -0.647  -1.381  0.00  0.00     0.176 C 
BRANCH   4   5
ATOM      5  C   UNL d   1       0.910  -0.103  -2.676  0.00  0.00     0.287 C 
BRANCH   5   6
ATOM      6  N   UNL d   1       0.471  -0.816  -3.896  0.00  0.00     0.089 N 
ATOM      7  C   UNL d   1       0.852  -2.237  -3.935  0.00  0.00     0.276 C 
ATOM      8  C   UNL d   1       2.365  -2.464  -4.085  0.00  0.00     0.010 C 
ATOM      9  C   UNL d   1       2.692  -3.955  -4.088  0.00  0.00     0.011 C 
ATOM     10  C   UNL d   1       2.867  -1.783  -5.363  0.00  0.00     0.007 C 
ATOM     11  C   UNL d   1       2.449  -0.314  -5.395  0.00  0.00     0.031 C 
ATOM     12  C   UNL d   1       0.951  -0.140  -5.119  0.00  0.00     0.272 C 
ENDBRANCH   5   6
ENDBRANCH   4   5
ENDBRANCH   1   4
BRANCH   1  13
ATOM     13  C   UNL d   1       0.019  -0.359   1.409  0.00  0.00     0.059 A 
ATOM     14  C   UNL d   1       0.561  -1.433   2.121  0.00  0.00     0.023 A 
ATOM     15  C   UNL d   1      -0.075  -1.880   3.283  0.00  0.00     0.002 A 
ATOM     16  C   UNL d   1      -1.236  -1.248   3.732  0.00  0.00     0.000 A 
ATOM     17  C   UNL d   1      -1.770  -0.173   3.020  0.00  0.00     0.002 A 
ATOM     18  C   UNL d   1      -1.142   0.278   1.858  0.00  0.00     0.023 A 
ENDBRANCH   1  13
TORSDOF 4
