REMARK  8 active torsions:
REMARK  status: ('A' for Active; 'I' for Inactive)
REMARK    1  A    between atoms: C_2  and  S_1 
REMARK    2  A    between atoms: C_3  and  S_1 
REMARK    3  A    between atoms: C_24  and  C_3 
REMARK    4  A    between atoms: C_6  and  C_23 
REMARK    5  A    between atoms: S_7  and  C_6 
REMARK    6  A    between atoms: C_11  and  S_7 
REMARK    7  A    between atoms: S_16  and  C_24 
REMARK    8  A    between atoms: C_23  and  S_16 
ROOT
ATOM      1  S   UNL d   1       1.486  -2.372  -3.411  0.00  0.00    -0.160 SA
ENDROOT
BRANCH   1   2
ATOM      2  C   UNL d   1       1.209  -0.820  -2.476  0.00  0.00     0.089 C 
BRANCH   2   3
ATOM      3  C   UNL d   1       0.689  -1.102  -1.079  0.00  0.00     0.156 C 
BRANCH   3   4
ATOM      4  S   UNL d   1       0.478   0.404  -0.159  0.00  0.00     0.176 S 
ATOM      5  O   UNL d   1       1.786   0.954   0.140  0.00  0.00    -0.223 OA
ATOM      6  O   UNL d   1      -0.535   1.200  -0.824  0.00  0.00    -0.223 OA
BRANCH   4   7
ATOM      7  C   UNL d   1      -0.225  -0.173   1.373  0.00  0.00     0.059 A 
ATOM      8  C   UNL d   1       0.617  -0.507   2.439  0.00  0.00     0.025 A 
ATOM      9  C   UNL d   1       0.059  -0.956   3.639  0.00  0.00     0.025 A 
ATOM     10  C   UNL d   1      -1.328  -1.057   3.767  0.00  0.00     0.034 A 
ATOM     11  C   UNL d   1      -2.166  -0.710   2.706  0.00  0.00     0.025 A 
ATOM     12 CL   UNL d   1      -2.012  -1.609   5.246  0.00  0.00    -0.084 Cl
ATOM     13  C   UNL d   1      -1.615  -0.260   1.504  0.00  0.00     0.025 A 
ENDBRANCH   4   7
ENDBRANCH   3   4
ENDBRANCH   2   3
ENDBRANCH   1   2
BRANCH   1  14
ATOM     14  C   UNL d   1      -0.235  -2.950  -3.605  0.00  0.00     0.164 C 
BRANCH  14  15
ATOM     15  C   UNL d   1      -0.336  -4.279  -4.343  0.00  0.00     0.200 C 
ATOM     16  O   UNL d   1       0.569  -4.840  -4.945  0.00  0.00    -0.284 OA
BRANCH  15  17
ATOM     17  S   UNL d   1      -1.987  -4.913  -4.353  0.00  0.00    -0.052 SA
BRANCH  17  18
ATOM     18  C   UNL d   1      -1.884  -6.580  -3.721  0.00  0.00     0.008 A 
ATOM     19  C   UNL d   1      -3.083  -7.152  -3.262  0.00  0.00     0.021 A 
ATOM     20  C   UNL d   1      -3.127  -8.474  -2.803  0.00  0.00     0.025 A 
ATOM     21  C   UNL d   1      -1.967  -9.239  -2.799  0.00  0.00     0.034 A 
ATOM     22  C   UNL d   1      -0.767  -8.689  -3.239  0.00  0.00     0.025 A 
ATOM     23 CL   UNL d   1      -2.020 -10.873  -2.266  0.00  0.00    -0.084 Cl
ATOM     24  C   UNL d   1      -0.727  -7.365  -3.701  0.00  0.00     0.021 A 
ENDBRANCH  17  18
ENDBRANCH  15  17
ENDBRANCH  14  15
ENDBRANCH   1  14
TORSDOF 8
