REMARK  9 active torsions:
REMARK  status: ('A' for Active; 'I' for Inactive)
REMARK    1  A    between atoms: C_27  and  C_2 
REMARK    2  A    between atoms: C_9  and  C_21 
REMARK    3  A    between atoms: O_13  and  C_9 
REMARK    4  A    between atoms: C_10  and  C_14 
REMARK    5  A    between atoms: C_11  and  C_10 
REMARK    6  A    between atoms: C_14  and  O_13 
REMARK    7  A    between atoms: O_20  and  C_17 
REMARK    8  A    between atoms: C_21  and  O_20 
REMARK    9  A    between atoms: C_28  and  C_27 
ROOT
ATOM      1  O   UNL d   1       3.704   1.983  -0.017  0.00  0.00    -0.341 OA
ENDROOT
BRANCH   1   2
ATOM      2  C   UNL d   1       2.609   1.163  -0.009  0.00  0.00     0.072 A 
ATOM      3  C   UNL d   1       1.275   1.557  -0.054  0.00  0.00     0.075 A 
ATOM      4  C   UNL d   1       0.267   0.580  -0.043  0.00  0.00     0.092 A 
ATOM      5  O   UNL d   1      -1.060   1.061  -0.078  0.00  0.00    -0.275 OA
ATOM      6  C   UNL d   1       0.541  -0.790   0.004  0.00  0.00     0.004 A 
ATOM      7  C   UNL d   1      -2.139   0.194  -0.064  0.00  0.00     0.288 A 
ATOM      8  O   UNL d   1      -3.301   0.590  -0.067  0.00  0.00    -0.260 OA
ATOM      9  C   UNL d   1      -1.830  -1.246  -0.065  0.00  0.00     0.090 A 
ATOM     10  C   UNL d   1      -0.584  -1.742  -0.028  0.00  0.00    -0.039 A 
ATOM     11  C   UNL d   1       1.884  -1.168   0.065  0.00  0.00     0.017 A 
ATOM     12  C   UNL d   1       2.903  -0.202   0.058  0.00  0.00     0.038 A 
BRANCH  10  13
ATOM     13  C   UNL d   1      -0.353  -3.236  -0.078  0.00  0.00     0.039 C 
BRANCH  13  14
ATOM     14  C   UNL d   1      -0.234  -3.861   1.314  0.00  0.00     0.000 C 
ATOM     15  C   UNL d   1       0.036  -5.357   1.231  0.00  0.00     0.005 C 
ENDBRANCH  13  14
ENDBRANCH  10  13
ENDBRANCH   1   2
BRANCH   1  16
ATOM     16  C   UNL d   1       3.473   3.383  -0.062  0.00  0.00     0.286 C 
BRANCH  16  17
ATOM     17  C   UNL d   1       4.776   4.164   0.069  0.00  0.00     0.283 C 
ATOM     18  O   UNL d   1       5.237   4.543   1.139  0.00  0.00    -0.263 OA
BRANCH  17  19
ATOM     19  O   UNL d   1       5.319   4.436  -1.150  0.00  0.00    -0.312 OA
BRANCH  19  20
ATOM     20  C   UNL d   1       6.487   5.271  -1.164  0.00  0.00     0.262 C 
BRANCH  20  21
ATOM     21  C   UNL d   1       7.684   4.585  -1.818  0.00  0.00     0.183 C 
ATOM     22  O   UNL d   1       7.652   3.425  -2.224  0.00  0.00    -0.290 OA
BRANCH  21  23
ATOM     23  C   UNL d   1       8.963   5.353  -1.940  0.00  0.00     0.012 A 
ATOM     24  C   UNL d   1      10.169   4.636  -1.946  0.00  0.00     0.017 A 
ATOM     25  C   UNL d   1      11.391   5.302  -2.082  0.00  0.00     0.025 A 
ATOM     26  C   UNL d   1      11.411   6.687  -2.228  0.00  0.00     0.034 A 
ATOM     27  C   UNL d   1      10.219   7.410  -2.226  0.00  0.00     0.025 A 
ATOM     28 CL   UNL d   1      12.910   7.508  -2.421  0.00  0.00    -0.084 Cl
ATOM     29  C   UNL d   1       8.993   6.747  -2.078  0.00  0.00     0.017 A 
ENDBRANCH  21  23
ENDBRANCH  20  21
ENDBRANCH  19  20
ENDBRANCH  17  19
ENDBRANCH  16  17
ENDBRANCH   1  16
TORSDOF 9
