REMARK  2 active torsions:
REMARK  status: ('A' for Active; 'I' for Inactive)
REMARK    1  A    between atoms: C_9  and  C_7 
REMARK    2  A    between atoms: O_16  and  C_12 
ROOT
ATOM      1  C   UNL d   1       0.817  -5.068  -1.257  0.00  0.00     0.045 A 
ATOM      2  C   UNL d   1       1.574  -3.103  -0.013  0.00  0.00    -0.032 A 
ATOM      3  C   UNL d   1       0.990  -3.673  -1.146  0.00  0.00     0.033 A 
ATOM      4  C   UNL d   1       1.238  -5.907  -0.216  0.00  0.00     0.085 A 
ATOM      5  C   UNL d   1       1.841  -5.314   0.909  0.00  0.00     0.039 A 
ATOM      6 BR   UNL d   1      -0.003  -5.612  -2.885  0.00  0.00    -0.048 Br
ATOM      7  C   UNL d   1       2.008  -3.932   1.016  0.00  0.00     0.014 A 
ENDROOT
BRANCH   2   8
ATOM      8  C   UNL d   1       1.720  -1.655   0.110  0.00  0.00     0.047 C 
ATOM      9  C   UNL d   1       2.756  -0.934  -0.333  0.00  0.00     0.111 A 
ATOM     10  N   UNL d   1       2.879   0.417  -0.126  0.00  0.00    -0.335 N 
ATOM     11  C   UNL d   1       3.952  -1.450  -1.065  0.00  0.00     0.316 A 
ATOM     12  C   UNL d   1       4.033   0.679  -0.647  0.00  0.00     0.124 A 
ATOM     13  HN  UNL d   1       2.223   1.055   0.325  1.00  0.00     0.168 HD
ATOM     14  C   UNL d   1       4.698   2.004  -0.676  0.00  0.00     0.098 C 
ATOM     15  O   UNL d   1       4.720  -0.334  -1.212  0.00  0.00    -0.261 OA
ATOM     16  O   UNL d   1       4.215  -2.566  -1.458  0.00  0.00    -0.257 OA
ENDBRANCH   2   8
BRANCH   4  17
ATOM     17  O   UNL d   1       1.180  -7.262  -0.062  0.00  0.00    -0.355 OA
ATOM     18  C   UNL d   1       0.559  -8.089  -1.026  0.00  0.00     0.210 C 
ENDBRANCH   4  17
TORSDOF 2
