REMARK  1 active torsions:
REMARK  status: ('A' for Active; 'I' for Inactive)
REMARK       I    between atoms: C_2  and  N_1 
REMARK    1  A    between atoms: C_6  and  C_2 
ROOT
ATOM      1  N   UNL d   1       2.452   0.509  -0.034  0.00  0.00    -0.302 N 
ATOM      2  C   UNL d   1       3.688   1.159  -0.190  0.00  0.00     0.254 C 
ATOM      3  C   UNL d   1       1.256   1.422   0.039  0.00  0.00     0.233 A 
ATOM      4  C   UNL d   1       2.242  -0.857  -0.027  0.00  0.00     0.097 A 
ATOM      5  C   UNL d   1      -0.102   0.701  -0.029  0.00  0.00    -0.011 A 
ATOM      6  C   UNL d   1       1.058  -1.461   0.029  0.00  0.00     0.029 A 
ATOM      7  C   UNL d   1       1.308   2.294   1.269  0.00  0.00     0.090 C 
ATOM      8  N   UNL d   1       1.313   2.974   2.219  0.00  0.00    -0.195 NA
ATOM      9  C   UNL d   1      -0.165  -0.697   0.007  0.00  0.00    -0.026 A 
ATOM     10  O   UNL d   1       3.711   2.383  -0.372  0.00  0.00    -0.267 OA
ATOM     11  C   UNL d   1      -1.313   1.410  -0.095  0.00  0.00     0.011 A 
ATOM     12  C   UNL d   1      -1.389  -1.376  -0.003  0.00  0.00     0.012 A 
ATOM     13  C   UNL d   1      -2.538   0.731  -0.093  0.00  0.00     0.001 A 
ATOM     14  C   UNL d   1      -2.576  -0.660  -0.045  0.00  0.00     0.001 A 
ENDROOT
BRANCH   2  15
ATOM     15  C   UNL d   1       5.018   0.422  -0.146  0.00  0.00     0.006 C 
ATOM     16  C   UNL d   1       6.091   1.071  -0.650  0.00  0.00    -0.014 C 
ATOM     17  C   UNL d   1       7.478   0.487  -0.712  0.00  0.00     0.028 C 
ATOM     18  C   UNL d   1       7.514  -1.011  -0.416  0.00  0.00     0.004 C 
ATOM     19  C   UNL d   1       6.651  -1.321   0.797  0.00  0.00     0.005 C 
ATOM     20  C   UNL d   1       5.208  -0.928   0.491  0.00  0.00     0.044 C 
ENDBRANCH   2  15
TORSDOF 1
