REMARK  6 active torsions:
REMARK  status: ('A' for Active; 'I' for Inactive)
REMARK       I    between atoms: C_3  and  N_1 
REMARK    1  A    between atoms: N_2  and  C_4 
REMARK    2  A    between atoms: C_18  and  C_3 
REMARK    3  A    between atoms: C_11  and  C_19 
REMARK    4  A    between atoms: O_17  and  C_11 
REMARK    5  A    between atoms: S_16  and  C_18 
REMARK    6  A    between atoms: C_19  and  S_16 
ROOT
ATOM      1  N   UNL d   1       1.385  -0.066   0.516  0.00  0.00    -0.351 N 
ATOM      2  C   UNL d   1       2.598  -0.032   1.192  0.00  0.00     0.229 C 
ATOM      3  C   UNL d   1      -1.402   0.011  -0.340  0.00  0.00     0.091 C 
ATOM      4  C   UNL d   1      -0.678   1.262   0.172  0.00  0.00     0.045 C 
ATOM      5  C   UNL d   1      -0.729  -1.279   0.144  0.00  0.00     0.045 C 
ATOM      6  C   UNL d   1       0.781  -1.275  -0.053  0.00  0.00     0.128 C 
ATOM      7  C   UNL d   1       0.836   1.198   0.020  0.00  0.00     0.128 C 
ATOM      8  O   UNL d   1       3.166   1.033   1.477  0.00  0.00    -0.273 OA
ENDROOT
BRANCH   2   9
ATOM      9  C   UNL d   1       3.298  -1.333   1.561  0.00  0.00     0.177 C 
BRANCH   9  10
ATOM     10  S   UNL d   1       4.488  -1.794   0.257  0.00  0.00    -0.149 SA
BRANCH  10  11
ATOM     11  C   UNL d   1       5.589  -0.336   0.259  0.00  0.00     0.184 C 
BRANCH  11  12
ATOM     12  C   UNL d   1       6.247  -0.106   1.602  0.00  0.00     0.149 C 
ATOM     13  O   UNL d   1       7.265  -0.675   1.971  0.00  0.00    -0.649 OA
BRANCH  12  14
ATOM     14  O   UNL d   1       5.599   0.779   2.397  0.00  0.00    -0.776 OA
ATOM     15  H   UNL d   1       4.755   1.133   2.025  0.00  0.00     0.167 HD
ENDBRANCH  12  14
ENDBRANCH  11  12
ENDBRANCH  10  11
ENDBRANCH   9  10
ENDBRANCH   2   9
BRANCH   3  16
ATOM     16  N   UNL d   1      -1.668   0.019  -1.779  0.00  0.00    -0.362 N 
ATOM     17  C   UNL d   1      -0.758   0.067  -2.801  0.00  0.00     0.091 A 
ATOM     18  C   UNL d   1      -1.444   0.044  -3.997  0.00  0.00     0.019 A 
ATOM     19  C   UNL d   1      -2.819  -0.023  -3.691  0.00  0.00     0.019 A 
ATOM     20  C   UNL d   1      -2.932  -0.040  -2.318  0.00  0.00     0.091 A 
ENDBRANCH   3  16
TORSDOF 6
