REMARK  6 active torsions:
REMARK  status: ('A' for Active; 'I' for Inactive)
REMARK    1  A    between atoms: C_4  and  C_1 
REMARK    2  A    between atoms: C_6  and  C_1 
REMARK    3  A    between atoms: N_5  and  N_2 
REMARK    4  A    between atoms: O_11  and  C_4 
REMARK    5  A    between atoms: C_7  and  N_5 
REMARK    6  A    between atoms: C_16  and  O_11 
ROOT
ATOM      1  C   UNL d   1       1.055   0.041   0.087  0.00  0.00     0.169 C 
ATOM      2  N   UNL d   1       0.334  -0.642  -0.763  0.00  0.00    -0.292 N 
ATOM      3  HN  UNL d   1      -0.685  -0.611  -0.731  1.00  0.00     0.187 HD
ENDROOT
BRANCH   2   4
ATOM      4  N   UNL d   1       0.981  -1.396  -1.692  0.00  0.00    -0.298 N 
ATOM      5  H   UNL d   1       1.957  -1.188  -1.950  0.00  0.00     0.187 HD
BRANCH   4   6
ATOM      6  C   UNL d   1       0.240  -1.980  -2.746  0.00  0.00     0.069 A 
ATOM      7  C   UNL d   1       0.882  -2.776  -3.715  0.00  0.00     0.062 A 
ATOM      8 CL   UNL d   1       2.600  -2.990  -3.692  0.00  0.00    -0.082 Cl
ATOM      9  C   UNL d   1       0.154  -3.421  -4.721  0.00  0.00     0.026 A 
ATOM     10  C   UNL d   1      -1.232  -3.291  -4.769  0.00  0.00     0.002 A 
ATOM     11  C   UNL d   1      -1.889  -2.526  -3.809  0.00  0.00     0.002 A 
ATOM     12  C   UNL d   1      -1.159  -1.891  -2.799  0.00  0.00     0.033 A 
ENDBRANCH   4   6
ENDBRANCH   2   4
BRANCH   1  13
ATOM     13  C   UNL d   1       0.315   0.809   1.165  0.00  0.00     0.315 C 
ATOM     14  O   UNL d   1       0.797   1.801   1.687  0.00  0.00    -0.257 OA
BRANCH  13  15
ATOM     15  O   UNL d   1      -0.787   0.131   1.544  0.00  0.00    -0.317 OA
BRANCH  15  16
ATOM     16  C   UNL d   1      -1.313   0.452   2.837  0.00  0.00     0.175 C 
ATOM     17  C   UNL d   1      -0.680  -0.501   3.836  0.00  0.00     0.034 C 
ENDBRANCH  15  16
ENDBRANCH  13  15
ENDBRANCH   1  13
BRANCH   1  18
ATOM     18  C   UNL d   1       2.574   0.065   0.055  0.00  0.00     0.179 C 
ATOM     19  O   UNL d   1       3.159   0.038  -1.026  0.00  0.00    -0.291 OA
ATOM     20  C   UNL d   1       3.310   0.099   1.364  0.00  0.00     0.099 C 
ENDBRANCH   1  18
TORSDOF 6
