REMARK  7 active torsions:
REMARK  status: ('A' for Active; 'I' for Inactive)
REMARK    1  A    between atoms: N_2  and  S_1 
REMARK    2  A    between atoms: C_12  and  S_1 
REMARK       I    between atoms: N_6  and  C_4 
REMARK       I    between atoms: N_8  and  C_4 
REMARK    3  A    between atoms: C_5  and  C_9 
REMARK    4  A    between atoms: C_7  and  N_13 
REMARK    5  A    between atoms: N_14  and  C_7 
REMARK    6  A    between atoms: N_13  and  N_8 
REMARK    7  A    between atoms: C_17  and  N_14 
ROOT
ATOM      1  N   UNL d   1       0.141  -1.100  -1.389  0.00  0.00    -0.255 N 
ATOM      2  HN  UNL d   1      -0.094  -0.236  -0.901  1.00  0.00     0.181 HD
ATOM      3  C   UNL d   1       0.920  -0.932  -2.404  0.00  0.00     0.183 C 
ATOM      4  N   UNL d   1       1.537   0.306  -2.526  0.00  0.00    -0.356 N 
ATOM      5  N   UNL d   1       1.270  -1.833  -3.374  0.00  0.00    -0.173 NA
ATOM      6  C   UNL d   1       1.538   1.272  -1.419  0.00  0.00     0.125 C 
ATOM      7  C   UNL d   1       2.203   0.879  -3.692  0.00  0.00     0.125 C 
ATOM      8  C   UNL d   1       2.663   2.272  -3.248  0.00  0.00     0.021 C 
ATOM      9  C   UNL d   1       1.735   2.616  -2.098  0.00  0.00     0.021 C 
ATOM     10  H   UNL d   1       2.180  -1.643  -3.787  0.00  0.00     0.156 HD
ENDROOT
BRANCH   5  11
ATOM     11  N   UNL d   1       0.314  -2.007  -4.426  0.00  0.00    -0.291 N 
ATOM     12  H   UNL d   1      -0.642  -1.763  -4.172  0.00  0.00     0.183 HD
BRANCH  11  13
ATOM     13  C   UNL d   1       0.464  -3.143  -5.207  0.00  0.00     0.187 C 
ATOM     14  S   UNL d   1       1.889  -3.998  -5.426  0.00  0.00    -0.040 SA
BRANCH  13  15
ATOM     15  N   UNL d   1      -0.702  -3.622  -5.745  0.00  0.00    -0.332 N 
ATOM     16  H   UNL d   1      -0.729  -4.635  -5.796  0.00  0.00     0.168 HD
BRANCH  15  17
ATOM     17  C   UNL d   1      -1.474  -2.997  -6.748  0.00  0.00     0.035 A 
ATOM     18  C   UNL d   1      -2.606  -3.686  -7.202  0.00  0.00     0.045 A 
ATOM     19  C   UNL d   1      -3.339  -3.221  -8.306  0.00  0.00     0.050 A 
ATOM     20  C   UNL d   1      -2.905  -2.060  -8.962  0.00  0.00     0.016 A 
ATOM     21  C   UNL d   1      -1.791  -1.360  -8.496  0.00  0.00     0.003 A 
ATOM     22  C   UNL d   1      -1.085  -1.817  -7.381  0.00  0.00     0.029 A 
BRANCH  19  23
ATOM     23  C   UNL d   1      -4.534  -3.988  -8.818  0.00  0.00     0.417 C 
ATOM     24  F   UNL d   1      -5.018  -4.893  -7.922  0.00  0.00    -0.166 F 
ATOM     25  F   UNL d   1      -5.583  -3.182  -9.136  0.00  0.00    -0.166 F 
ATOM     26  F   UNL d   1      -4.248  -4.696  -9.945  0.00  0.00    -0.166 F 
ENDBRANCH  19  23
ENDBRANCH  15  17
ENDBRANCH  13  15
ENDBRANCH  11  13
ENDBRANCH   5  11
BRANCH   1  27
ATOM     27  S   UNL d   1      -0.525  -2.405  -0.753  0.00  0.00     0.265 S 
ATOM     28  O   UNL d   1      -1.876  -2.037  -0.362  0.00  0.00    -0.200 OA
ATOM     29  O   UNL d   1       0.372  -2.909   0.277  0.00  0.00    -0.200 OA
BRANCH  27  30
ATOM     30  C   UNL d   1      -0.732  -3.756  -1.899  0.00  0.00     0.079 A 
ATOM     31  C   UNL d   1       0.274  -4.723  -2.009  0.00  0.00     0.025 A 
ATOM     32  C   UNL d   1       0.036  -5.896  -2.731  0.00  0.00     0.002 A 
ATOM     33  C   UNL d   1      -1.209  -6.117  -3.320  0.00  0.00     0.000 A 
ATOM     34  C   UNL d   1      -2.224  -5.167  -3.185  0.00  0.00     0.002 A 
ATOM     35  C   UNL d   1      -1.990  -3.989  -2.472  0.00  0.00     0.025 A 
ENDBRANCH  27  30
ENDBRANCH   1  27
TORSDOF 7
