REMARK  3 active torsions:
REMARK  status: ('A' for Active; 'I' for Inactive)
REMARK    1  A    between atoms: C_4  and  N_1 
REMARK    2  A    between atoms: S_7  and  C_5 
REMARK    3  A    between atoms: C_10  and  S_7 
ROOT
ATOM      1  N   UNL d   1       0.003   0.845  -0.092  0.00  0.00    -0.251 N 
ATOM      2  C   UNL d   1      -1.137   0.085   0.028  0.00  0.00     0.232 C 
ATOM      3  C   UNL d   1       1.128   0.049  -0.147  0.00  0.00     0.246 C 
ATOM      4  C   UNL d   1       0.712  -1.399  -0.218  0.00  0.00     0.157 C 
ATOM      5  C   UNL d   1      -0.779  -1.369   0.040  0.00  0.00     0.129 C 
ATOM      6  O   UNL d   1      -2.302   0.455   0.103  0.00  0.00    -0.273 OA
ATOM      7  O   UNL d   1       2.301   0.399  -0.113  0.00  0.00    -0.271 OA
ENDROOT
BRANCH   1   8
ATOM      8  C   UNL d   1       0.022   2.274  -0.145  0.00  0.00     0.048 A 
ATOM      9  C   UNL d   1      -1.048   3.043   0.343  0.00  0.00     0.054 A 
ATOM     10  C   UNL d   1      -1.030   4.439   0.260  0.00  0.00     0.037 A 
ATOM     11 CL   UNL d   1      -2.352   5.347   0.887  0.00  0.00    -0.084 Cl
ATOM     12  C   UNL d   1       0.042   5.105  -0.319  0.00  0.00     0.048 A 
ATOM     13  C   UNL d   1       1.106   4.359  -0.807  0.00  0.00     0.037 A 
ATOM     14  C   UNL d   1       1.105   2.963  -0.716  0.00  0.00     0.054 A 
ATOM     15 CL   UNL d   1       2.433   5.163  -1.553  0.00  0.00    -0.084 Cl
ENDBRANCH   1   8
BRANCH   4  16
ATOM     16  S   UNL d   1       1.137  -2.052  -1.869  0.00  0.00    -0.078 SA
BRANCH  16  17
ATOM     17  C   UNL d   1       0.779  -3.753  -1.597  0.00  0.00     0.182 C 
ATOM     18  O   UNL d   1       0.322  -4.150  -0.531  0.00  0.00    -0.286 OA
ATOM     19  C   UNL d   1       1.016  -4.650  -2.776  0.00  0.00     0.104 C 
ENDBRANCH  16  17
ENDBRANCH   4  16
TORSDOF 3
