REMARK  6 active torsions:
REMARK  status: ('A' for Active; 'I' for Inactive)
REMARK    1  A    between atoms: N_4  and  S_1 
REMARK    2  A    between atoms: C_9  and  S_1 
REMARK    3  A    between atoms: N_2  and  C_8 
REMARK    4  A    between atoms: C_3  and  C_5 
REMARK    5  A    between atoms: N_7  and  N_4 
REMARK       I    between atoms: C_5  and  N_7 
REMARK    6  A    between atoms: N_20  and  C_10 
ROOT
ATOM      1  C   UNL d   1       0.591  -0.862  -3.763  0.00  0.00     0.272 C 
ATOM      2  N   UNL d   1       1.065  -0.278  -2.610  0.00  0.00    -0.256 N 
ATOM      3  O   UNL d   1      -0.125  -1.859  -3.787  0.00  0.00    -0.266 OA
ATOM      4  H   UNL d   1       1.683   0.538  -2.643  0.00  0.00     0.191 HD
ENDROOT
BRANCH   1   5
ATOM      5  C   UNL d   1       1.022  -0.189  -5.021  0.00  0.00     0.057 A 
ATOM      6  C   UNL d   1       1.314  -1.007  -6.125  0.00  0.00     0.055 A 
ATOM      7  C   UNL d   1       1.796  -0.424  -7.303  0.00  0.00     0.103 A 
ATOM      8  C   UNL d   1       1.989   0.959  -7.384  0.00  0.00     0.038 A 
ATOM      9  C   UNL d   1       1.679   1.765  -6.286  0.00  0.00     0.027 A 
ATOM     10  C   UNL d   1       1.139   1.218  -5.113  0.00  0.00     0.021 A 
BRANCH   7  11
ATOM     11  N   UNL d   1       2.135  -1.270  -8.456  0.00  0.00    -0.116 N 
ATOM     12  O   UNL d   1       2.029  -2.496  -8.322  0.00  0.00    -0.532 OA
ATOM     13  O   UNL d   1       2.512  -0.704  -9.492  0.00  0.00    -0.532 OA
ENDBRANCH   7  11
BRANCH  10  14
ATOM     14  N   UNL d   1       0.940   2.074  -4.013  0.00  0.00    -0.302 NA
ATOM     15  H   UNL d   1       0.182   1.787  -3.390  0.00  0.00     0.124 HD
ATOM     16  H   UNL d   1       0.820   3.053  -4.268  0.00  0.00     0.124 HD
ENDBRANCH  10  14
ENDBRANCH   1   5
BRANCH   2  17
ATOM     17  N   UNL d   1       0.599  -0.724  -1.323  0.00  0.00    -0.220 N 
ATOM     18  H   UNL d   1      -0.093  -1.476  -1.265  0.00  0.00     0.200 HD
BRANCH  17  19
ATOM     19  S   UNL d   1       1.057   0.161   0.039  0.00  0.00     0.276 S 
ATOM     20  O   UNL d   1       0.441   1.466  -0.098  0.00  0.00    -0.199 OA
ATOM     21  O   UNL d   1       2.488   0.025   0.197  0.00  0.00    -0.199 OA
BRANCH  19  22
ATOM     22  C   UNL d   1       0.273  -0.701   1.369  0.00  0.00     0.081 A 
ATOM     23  C   UNL d   1       0.635  -2.025   1.631  0.00  0.00     0.026 A 
ATOM     24  C   UNL d   1       0.039  -2.701   2.697  0.00  0.00     0.008 A 
ATOM     25  C   UNL d   1      -0.909  -2.058   3.507  0.00  0.00    -0.062 A 
ATOM     26  C   UNL d   1      -1.249  -0.725   3.241  0.00  0.00     0.008 A 
ATOM     27  C   UNL d   1      -1.543  -2.800   4.647  0.00  0.00     0.048 C 
ATOM     28  C   UNL d   1      -0.661  -0.044   2.173  0.00  0.00     0.026 A 
ENDBRANCH  19  22
ENDBRANCH  17  19
ENDBRANCH   2  17
TORSDOF 6
