REMARK  4 active torsions:
REMARK  status: ('A' for Active; 'I' for Inactive)
REMARK    1  A    between atoms: N_2  and  C_1 
REMARK    2  A    between atoms: N_4  and  C_1 
REMARK    3  A    between atoms: C_7  and  N_2 
REMARK    4  A    between atoms: C_5  and  C_6 
ROOT
ATOM      1  C   UNL d   1       1.936   4.166  -2.919  0.00  0.00    -0.051 A 
ATOM      2  C   UNL d   1       0.821   2.054  -1.365  0.00  0.00     0.034 A 
ATOM      3  C   UNL d   1       0.935   4.408  -1.961  0.00  0.00     0.010 A 
ATOM      4  C   UNL d   1       2.330   2.832  -3.103  0.00  0.00     0.010 A 
ATOM      5  C   UNL d   1       0.398   3.371  -1.183  0.00  0.00     0.030 A 
ATOM      6  C   UNL d   1       1.787   1.795  -2.332  0.00  0.00     0.030 A 
ENDROOT
BRANCH   2   7
ATOM      7  N   UNL d   1       0.324   1.065  -0.484  0.00  0.00    -0.333 N 
ATOM      8  H   UNL d   1      -0.213   1.411   0.299  0.00  0.00     0.168 HD
BRANCH   7   9
ATOM      9  C   UNL d   1       0.247  -0.308  -0.665  0.00  0.00     0.173 C 
ATOM     10  S   UNL d   1      -0.088  -1.007  -2.164  0.00  0.00    -0.041 SA
BRANCH   9  11
ATOM     11  N   UNL d   1       0.386  -1.042   0.533  0.00  0.00    -0.367 N 
ATOM     12  C   UNL d   1       0.183  -2.494   0.594  0.00  0.00     0.151 C 
ATOM     13  C   UNL d   1       0.702  -0.444   1.830  0.00  0.00     0.151 C 
ENDBRANCH   9  11
ENDBRANCH   7   9
ENDBRANCH   2   7
BRANCH   1  14
ATOM     14  C   UNL d   1       2.592   5.336  -3.676  0.00  0.00    -0.024 C 
ATOM     15  C   UNL d   1       3.737   4.902  -4.620  0.00  0.00     0.019 C 
ATOM     16  C   UNL d   1       1.545   6.078  -4.533  0.00  0.00     0.019 C 
ATOM     17  C   UNL d   1       3.202   6.325  -2.658  0.00  0.00     0.019 C 
ENDBRANCH   1  14
TORSDOF 4
