REMARK  2 active torsions:
REMARK  status: ('A' for Active; 'I' for Inactive)
REMARK       I    between atoms: C_3  and  N_1 
REMARK    1  A    between atoms: C_9  and  C_3 
REMARK    2  A    between atoms: C_10  and  C_9 
ROOT
ATOM      1  N   UNL d   1       0.875  -0.756  -0.297  0.00  0.00    -0.223 N 
ATOM      2  C   UNL d   1      -0.410  -1.244  -0.047  0.00  0.00     0.078 A 
ATOM      3  C   UNL d   1       2.104  -1.442  -0.365  0.00  0.00     0.247 C 
ATOM      4  N   UNL d   1       0.852   0.589  -0.552  0.00  0.00    -0.302 N 
ATOM      5  HN  UNL d   1       1.649   1.212  -0.681  1.00  0.00     0.186 HD
ATOM      6  C   UNL d   1      -0.756  -2.561   0.432  0.00  0.00     0.033 A 
ATOM      7  C   UNL d   1      -1.266  -0.185  -0.294  0.00  0.00     0.051 A 
ATOM      8  S   UNL d   1      -2.247  -3.303  -0.002  0.00  0.00    -0.100 SA
ATOM      9  C   UNL d   1      -0.441   0.904  -0.594  0.00  0.00     0.110 A 
ATOM     10  O   UNL d   1       2.134  -2.667  -0.465  0.00  0.00    -0.271 OA
ATOM     11  C   UNL d   1      -0.054  -3.367   1.308  0.00  0.00     0.021 A 
ATOM     12  C   UNL d   1      -1.930  -4.680   0.957  0.00  0.00     0.050 A 
ATOM     13  C   UNL d   1      -0.716  -4.595   1.597  0.00  0.00     0.008 A 
ENDROOT
BRANCH   3  14
ATOM     14  C   UNL d   1       3.339  -0.585  -0.220  0.00  0.00     0.144 C 
BRANCH  14  15
ATOM     15  C   UNL d   1       3.686  -0.232   1.213  0.00  0.00    -0.043 A 
ATOM     16  C   UNL d   1       3.379  -1.075   2.292  0.00  0.00     0.050 A 
ATOM     17  C   UNL d   1       3.716  -0.710   3.596  0.00  0.00     0.119 A 
ATOM     18  F   UNL d   1       3.380  -1.518   4.610  0.00  0.00    -0.206 F 
ATOM     19  C   UNL d   1       4.395   0.469   3.858  0.00  0.00     0.084 A 
ATOM     20  C   UNL d   1       4.742   1.282   2.790  0.00  0.00     0.119 A 
ATOM     21  C   UNL d   1       4.398   0.947   1.480  0.00  0.00     0.050 A 
ATOM     22  F   UNL d   1       5.426   2.410   3.019  0.00  0.00    -0.206 F 
ENDBRANCH  14  15
ENDBRANCH   3  14
TORSDOF 2
