REMARK  4 active torsions:
REMARK  status: ('A' for Active; 'I' for Inactive)
REMARK    1  A    between atoms: C_9  and  C_3 
REMARK    2  A    between atoms: C_4  and  O_6 
REMARK       I    between atoms: N_13  and  C_4 
REMARK    3  A    between atoms: O_6  and  C_5 
REMARK    4  A    between atoms: C_23  and  C_14 
ROOT
ATOM      1  N   UNL d   1       1.212   0.581  -0.004  0.00  0.00    -0.322 N 
ATOM      2  HN  UNL d   1       2.150   0.972  -0.081  1.00  0.00     0.169 HD
ATOM      3  C   UNL d   1       0.117   1.360  -0.011  0.00  0.00     0.117 A 
ATOM      4  C   UNL d   1       1.002  -0.744   0.113  0.00  0.00     0.156 A 
ATOM      5  N   UNL d   1      -1.146   0.897   0.055  0.00  0.00    -0.345 N 
ATOM      6  HN  UNL d   1      -1.943   1.533   0.037  1.00  0.00     0.167 HD
ATOM      7  C   UNL d   1      -0.254  -1.308   0.194  0.00  0.00     0.081 A 
ATOM      8  C   UNL d   1      -1.320  -0.435   0.145  0.00  0.00     0.014 A 
ENDROOT
BRANCH   3   9
ATOM      9  C   UNL d   1       0.290   2.829  -0.042  0.00  0.00     0.010 A 
ATOM     10  C   UNL d   1      -0.828   3.692  -0.078  0.00  0.00     0.042 A 
ATOM     11  C   UNL d   1      -0.678   5.080  -0.032  0.00  0.00     0.073 A 
ATOM     12 CL   UNL d   1      -2.078   6.083  -0.046  0.00  0.00    -0.081 Cl
ATOM     13  C   UNL d   1       0.593   5.637   0.040  0.00  0.00     0.138 A 
ATOM     14  C   UNL d   1       1.716   4.819   0.049  0.00  0.00     0.045 A 
ATOM     15  F   UNL d   1       0.759   6.966   0.108  0.00  0.00    -0.204 F 
ATOM     16  C   UNL d   1       1.565   3.428   0.005  0.00  0.00     0.018 A 
ENDBRANCH   3   9
BRANCH   4  17
ATOM     17  O   UNL d   1       2.184  -1.517   0.021  0.00  0.00    -0.244 OA
BRANCH  17  18
ATOM     18  C   UNL d   1       2.289  -2.858   0.397  0.00  0.00     0.368 C 
ATOM     19  N   UNL d   1       3.503  -3.425   0.023  0.00  0.00    -0.336 N 
ATOM     20  C   UNL d   1       3.700  -4.855   0.183  0.00  0.00     0.154 C 
ATOM     21  C   UNL d   1       4.532  -2.701  -0.707  0.00  0.00     0.154 C 
ATOM     22  O   UNL d   1       1.409  -3.483   0.978  0.00  0.00    -0.238 OA
ENDBRANCH  17  18
ENDBRANCH   4  17
BRANCH   8  23
ATOM     23  C   UNL d   1      -2.728  -0.976   0.230  0.00  0.00     0.053 C 
ATOM     24  C   UNL d   1      -3.796  -0.020  -0.287  0.00  0.00     0.011 C 
ENDBRANCH   8  23
TORSDOF 4
