REMARK  3 active torsions:
REMARK  status: ('A' for Active; 'I' for Inactive)
REMARK    1  A    between atoms: N_3  and  C_1 
REMARK    2  A    between atoms: C_7  and  C_2 
REMARK       I    between atoms: N_13  and  C_7 
REMARK    3  A    between atoms: N_14  and  N_13 
ROOT
ATOM      1  C   UNL d   1      -2.050  -0.970   0.015  0.00  0.00     0.098 C 
ATOM      2  C   UNL d   1      -0.921  -1.777  -0.111  0.00  0.00     0.074 C 
ATOM      3  S   UNL d   1      -1.663   0.676   0.244  0.00  0.00    -0.075 SA
ATOM      4  C   UNL d   1       0.294  -0.969   0.005  0.00  0.00    -0.026 C 
ATOM      5  C   UNL d   1      -0.005   0.380   0.091  0.00  0.00    -0.008 C 
ATOM      6  C   UNL d   1       1.732  -1.421  -0.078  0.00  0.00     0.041 C 
ATOM      7  C   UNL d   1       0.981   1.510   0.093  0.00  0.00     0.047 C 
ATOM      8  C   UNL d   1       2.711  -0.313   0.358  0.00  0.00     0.005 C 
ATOM      9  C   UNL d   1       2.377   1.021  -0.311  0.00  0.00     0.005 C 
ENDROOT
BRANCH   1  10
ATOM     10  N   UNL d   1      -3.424  -1.312   0.081  0.00  0.00    -0.313 N 
ATOM     11  C   UNL d   1      -4.505  -0.610  -0.484  0.00  0.00     0.013 A 
ATOM     12  C   UNL d   1      -5.687  -1.222  -0.116  0.00  0.00     0.027 A 
ATOM     13  C   UNL d   1      -4.402   0.568  -1.398  0.00  0.00     0.068 C 
ATOM     14  C   UNL d   1      -5.366  -2.338   0.660  0.00  0.00     0.027 A 
ATOM     15  C   UNL d   1      -3.991  -2.382   0.797  0.00  0.00     0.013 A 
ATOM     16  C   UNL d   1      -3.258  -3.358   1.650  0.00  0.00     0.068 C 
ENDBRANCH   1  10
BRANCH   2  17
ATOM     17  C   UNL d   1      -0.987  -3.211  -0.419  0.00  0.00     0.269 C 
ATOM     18  O   UNL d   1      -1.797  -3.692  -1.204  0.00  0.00    -0.266 OA
ATOM     19  N   UNL d   1      -0.093  -4.002   0.302  0.00  0.00    -0.290 N 
ATOM     20  H   UNL d   1       0.499  -3.585   1.010  0.00  0.00     0.183 HD
BRANCH  19  21
ATOM     21  N   UNL d   1      -0.122  -5.411   0.176  0.00  0.00    -0.247 NA
ATOM     22  H   UNL d   1      -0.858  -5.635  -0.511  0.00  0.00     0.143 HD
ATOM     23  H   UNL d   1      -0.465  -5.808   1.054  0.00  0.00     0.143 HD
ENDBRANCH  19  21
ENDBRANCH   2  17
TORSDOF 3
