REMARK  5 active torsions:
REMARK  status: ('A' for Active; 'I' for Inactive)
REMARK    1  A    between atoms: N_3  and  C_1 
REMARK    2  A    between atoms: N_5  and  C_1 
REMARK    3  A    between atoms: C_4  and  C_8 
REMARK    4  A    between atoms: C_7  and  N_5 
REMARK    5  A    between atoms: C_8  and  C_7 
ROOT
ATOM      1  C   UNL d   1       3.233  -0.132   1.251  0.00  0.00     0.126 C 
ENDROOT
BRANCH   1   2
ATOM      2  N   UNL d   1       2.406  -0.063   0.044  0.00  0.00    -0.367 N 
ATOM      3  H   UNL d   1       2.843   0.410  -0.728  0.00  0.00     0.161 HD
BRANCH   2   4
ATOM      4  C   UNL d   1       1.020  -0.098   0.044  0.00  0.00     0.169 C 
ATOM      5  S   UNL d   1       0.148  -0.313   1.474  0.00  0.00    -0.041 SA
BRANCH   4   6
ATOM      6  N   UNL d   1       0.423   0.034  -1.221  0.00  0.00    -0.367 N 
ATOM      7  C   UNL d   1       1.136   0.118  -2.497  0.00  0.00     0.151 C 
ATOM      8  C   UNL d   1      -1.035   0.028  -1.401  0.00  0.00     0.151 C 
ENDBRANCH   4   6
ENDBRANCH   2   4
ENDBRANCH   1   2
BRANCH   1   9
ATOM      9  C   UNL d   1       4.736  -0.083   0.960  0.00  0.00     0.053 C 
BRANCH   9  10
ATOM     10  C   UNL d   1       5.569  -0.165   2.226  0.00  0.00    -0.082 C 
ATOM     11  C   UNL d   1       6.440  -1.172   2.438  0.00  0.00    -0.024 C 
ATOM     12  C   UNL d   1       7.262  -1.316   3.689  0.00  0.00     0.027 C 
ATOM     13  C   UNL d   1       6.808  -0.398   4.824  0.00  0.00     0.004 C 
ATOM     14  C   UNL d   1       6.483   0.996   4.301  0.00  0.00     0.005 C 
ATOM     15  C   UNL d   1       5.383   0.941   3.239  0.00  0.00     0.034 C 
ENDBRANCH   9  10
ENDBRANCH   1   9
TORSDOF 5
