REMARK  4 active torsions:
REMARK  status: ('A' for Active; 'I' for Inactive)
REMARK    1  A    between atoms: C_3  and  C_1 
REMARK       I    between atoms: N_8  and  C_3 
REMARK    2  A    between atoms: C_11  and  C_5 
REMARK    3  A    between atoms: C_7  and  C_9 
REMARK    4  A    between atoms: C_12  and  N_8 
ROOT
ATOM      1  C   UNL d   1       0.282  -2.620   0.236  0.00  0.00     0.258 C 
ATOM      2  N   UNL d   1      -0.739  -3.551   0.359  0.00  0.00    -0.323 N 
ATOM      3  O   UNL d   1       1.467  -2.902   0.097  0.00  0.00    -0.267 OA
ATOM      4  H   UNL d   1      -1.683  -3.200   0.402  0.00  0.00     0.169 HD
ENDROOT
BRANCH   1   5
ATOM      5  C   UNL d   1      -0.152  -1.224   0.240  0.00  0.00     0.064 A 
ATOM      6  C   UNL d   1      -1.452  -0.654   0.406  0.00  0.00     0.057 A 
ATOM      7  C   UNL d   1      -1.321   0.717   0.301  0.00  0.00     0.087 A 
ATOM      8  O   UNL d   1      -0.011   1.027   0.096  0.00  0.00    -0.314 OA
ATOM      9  C   UNL d   1       0.693  -0.137   0.057  0.00  0.00     0.065 A 
ATOM     10  C   UNL d   1       2.147   0.032  -0.172  0.00  0.00     0.077 C 
BRANCH   7  11
ATOM     11  C   UNL d   1      -2.252   1.838   0.352  0.00  0.00    -0.002 A 
ATOM     12  C   UNL d   1      -1.795   3.155   0.516  0.00  0.00     0.014 A 
ATOM     13  C   UNL d   1      -2.694   4.223   0.580  0.00  0.00     0.001 A 
ATOM     14  C   UNL d   1      -4.063   3.989   0.475  0.00  0.00     0.000 A 
ATOM     15  C   UNL d   1      -4.533   2.689   0.302  0.00  0.00     0.001 A 
ATOM     16  C   UNL d   1      -3.634   1.622   0.240  0.00  0.00     0.014 A 
ENDBRANCH   7  11
ENDBRANCH   1   5
BRANCH   2  17
ATOM     17  C   UNL d   1      -0.602  -4.955   0.279  0.00  0.00     0.035 A 
ATOM     18  C   UNL d   1       0.633  -5.610   0.258  0.00  0.00     0.045 A 
ATOM     19  C   UNL d   1       0.722  -6.998   0.071  0.00  0.00     0.050 A 
ATOM     20  C   UNL d   1      -0.458  -7.740  -0.062  0.00  0.00     0.016 A 
ATOM     21  C   UNL d   1      -1.698  -7.105   0.005  0.00  0.00     0.003 A 
ATOM     22  C   UNL d   1      -1.769  -5.720   0.179  0.00  0.00     0.029 A 
BRANCH  19  23
ATOM     23  C   UNL d   1       2.069  -7.670  -0.022  0.00  0.00     0.417 C 
ATOM     24  F   UNL d   1       3.123  -6.835   0.193  0.00  0.00    -0.166 F 
ATOM     25  F   UNL d   1       2.209  -8.684   0.877  0.00  0.00    -0.166 F 
ATOM     26  F   UNL d   1       2.283  -8.228  -1.248  0.00  0.00    -0.166 F 
ENDBRANCH  19  23
ENDBRANCH   2  17
TORSDOF 4
