REMARK  1 active torsions:
REMARK  status: ('A' for Active; 'I' for Inactive)
REMARK    1  A    between atoms: C_4  and  N_1 
ROOT
ATOM      1  N   UNL d   1       0.687   1.092  -0.507  0.00  0.00    -0.251 N 
ATOM      2  C   UNL d   1       1.424  -0.048  -0.144  0.00  0.00     0.240 C 
ATOM      3  C   UNL d   1      -0.582   1.304   0.053  0.00  0.00     0.240 C 
ATOM      4  S   UNL d   1      -0.838  -1.309   0.815  0.00  0.00    -0.150 SA
ATOM      5  O   UNL d   1      -0.993   2.352   0.548  0.00  0.00    -0.272 OA
ATOM      6  O   UNL d   1       2.632  -0.037   0.114  0.00  0.00    -0.272 OA
ATOM      7  C   UNL d   1       0.687  -1.373  -0.128  0.00  0.00     0.178 C 
ATOM      8  C   UNL d   1      -1.523   0.118  -0.032  0.00  0.00     0.178 C 
ENDROOT
BRANCH   1   9
ATOM      9  C   UNL d   1       1.416   2.181  -1.131  0.00  0.00     0.045 A 
ATOM     10  C   UNL d   1       1.060   3.534  -1.015  0.00  0.00     0.031 A 
ATOM     11  C   UNL d   1       1.739   4.534  -1.728  0.00  0.00     0.021 A 
ATOM     12  C   UNL d   1       2.773   4.195  -2.591  0.00  0.00     0.011 A 
ATOM     13  C   UNL d   1       3.148   2.867  -2.735  0.00  0.00     0.021 A 
ATOM     14 BR   UNL d   1       3.657   5.537  -3.582  0.00  0.00    -0.051 Br
ATOM     15  C   UNL d   1       2.477   1.875  -2.009  0.00  0.00     0.031 A 
ENDBRANCH   1   9
TORSDOF 1
