REMARK  6 active torsions:
REMARK  status: ('A' for Active; 'I' for Inactive)
REMARK    1  A    between atoms: C_3  and  C_1 
REMARK    2  A    between atoms: N_4  and  C_1 
REMARK    3  A    between atoms: C_5  and  C_2 
REMARK    4  A    between atoms: O_15  and  C_3 
REMARK    5  A    between atoms: C_8  and  N_4 
REMARK    6  A    between atoms: O_17  and  C_5 
ROOT
ATOM      1  C   UNL d   1       1.024  -0.052  -0.090  0.00  0.00     0.094 C 
ATOM      2  C   UNL d   1       0.477  -0.372  -1.276  0.00  0.00     0.112 C 
ENDROOT
BRANCH   1   3
ATOM      3  C   UNL d   1       2.502  -0.093   0.180  0.00  0.00     0.304 C 
ATOM      4  O   UNL d   1       2.940  -0.363   1.291  0.00  0.00    -0.258 OA
BRANCH   3   5
ATOM      5  O   UNL d   1       3.222   0.356  -0.875  0.00  0.00    -0.322 OA
ATOM      6  C   UNL d   1       4.635   0.270  -0.689  0.00  0.00     0.213 C 
ENDBRANCH   3   5
ENDBRANCH   1   3
BRANCH   1   7
ATOM      7  N   UNL d   1       0.245   0.260   1.035  0.00  0.00    -0.254 NA
ATOM      8  H   UNL d   1       0.792   0.097   1.889  0.00  0.00     0.134 HD
BRANCH   7   9
ATOM      9  C   UNL d   1      -0.528   1.440   1.179  0.00  0.00     0.014 A 
ATOM     10  C   UNL d   1      -0.783   2.335   0.131  0.00  0.00     0.049 A 
ATOM     11  C   UNL d   1      -1.570   3.477   0.330  0.00  0.00     0.057 A 
ATOM     12 CL   UNL d   1      -1.798   4.537  -1.018  0.00  0.00    -0.082 Cl
ATOM     13  C   UNL d   1      -2.135   3.728   1.582  0.00  0.00     0.055 A 
ATOM     14  C   UNL d   1      -1.926   2.823   2.623  0.00  0.00     0.027 A 
ATOM     15 CL   UNL d   1      -3.093   5.127   1.907  0.00  0.00    -0.083 Cl
ATOM     16  C   UNL d   1      -1.140   1.684   2.417  0.00  0.00     0.025 A 
ENDBRANCH   7   9
ENDBRANCH   1   7
BRANCH   2  17
ATOM     17  C   UNL d   1       1.171  -0.820  -2.497  0.00  0.00     0.284 C 
ATOM     18  O   UNL d   1       2.191  -1.481  -2.546  0.00  0.00    -0.260 OA
BRANCH  17  19
ATOM     19  O   UNL d   1       0.428  -0.385  -3.545  0.00  0.00    -0.323 OA
ATOM     20  C   UNL d   1       0.949  -0.735  -4.827  0.00  0.00     0.213 C 
ENDBRANCH  17  19
ENDBRANCH   2  17
TORSDOF 6
