REMARK  2 active torsions:
REMARK  status: ('A' for Active; 'I' for Inactive)
REMARK    1  A    between atoms: S_11  and  C_3 
REMARK    2  A    between atoms: S_12  and  C_4 
ROOT
ATOM      1  N   UNL d   1       0.030   0.664   0.024  0.00  0.00    -0.241 N 
ATOM      2  N   UNL d   1      -0.036  -0.658   0.054  0.00  0.00    -0.241 N 
ATOM      3  C   UNL d   1       1.323   1.063   0.016  0.00  0.00     0.160 A 
ATOM      4  C   UNL d   1      -1.326  -1.061  -0.004  0.00  0.00     0.160 A 
ATOM      5  N   UNL d   1       2.210   0.081   0.004  0.00  0.00    -0.347 N 
ATOM      6  HN  UNL d   1       3.229   0.134  -0.007  1.00  0.00     0.163 HD
ATOM      7  N   UNL d   1      -2.215  -0.082  -0.020  0.00  0.00    -0.347 N 
ATOM      8  HN  UNL d   1      -3.234  -0.136  -0.042  1.00  0.00     0.163 HD
ATOM      9  C   UNL d   1      -1.312   1.157   0.005  0.00  0.00     0.206 A 
ATOM     10  C   UNL d   1       1.304  -1.154   0.010  0.00  0.00     0.206 A 
ATOM     11  C   UNL d   1      -1.614   1.976  -1.239  0.00  0.00     0.057 C 
ATOM     12  C   UNL d   1       1.640  -1.982   1.240  0.00  0.00     0.057 C 
ENDROOT
BRANCH   3  13
ATOM     13  S   UNL d   1       1.751   2.741   0.041  0.00  0.00    -0.097 SA
ATOM     14  C   UNL d   1       3.551   2.634   0.031  0.00  0.00     0.099 C 
ENDBRANCH   3  13
BRANCH   4  15
ATOM     15  S   UNL d   1      -1.749  -2.739  -0.061  0.00  0.00    -0.097 SA
ATOM     16  C   UNL d   1      -3.549  -2.635  -0.066  0.00  0.00     0.099 C 
ENDBRANCH   4  15
TORSDOF 2
