REMARK  8 active torsions:
REMARK  status: ('A' for Active; 'I' for Inactive)
REMARK    1  A    between atoms: CA_2  and  CB_1 
REMARK    2  A    between atoms: CG_5  and  CB_1 
REMARK    3  A    between atoms: N_3  and  CA_2 
REMARK    4  A    between atoms: C_4  and  CA_2 
REMARK       I    between atoms: C3_13  and  N_3 
REMARK    5  A    between atoms: OXT_8  and  C_4 
REMARK    6  A    between atoms: OD2_9  and  CG_5 
REMARK    7  A    between atoms: C7_15  and  C3_13 
REMARK    8  A    between atoms: C5_14  and  C7_15 
ROOT
ATOM      1  N   ASP d   1       2.398   3.256   0.493  0.00  0.00    -0.346 N 
ATOM      2  H   ASP d   1       3.265   3.211  -0.043  0.00  0.00     0.163 HD
ATOM      3  C3  <1> d   1       2.262   2.459   1.608  0.00  0.00     0.222 C 
ATOM      4  O1  <1> d   1       1.312   2.639   2.370  0.00  0.00    -0.273 OA
ENDROOT
BRANCH   3   5
ATOM      5  C7  <1> d   1       3.425   1.526   1.895  0.00  0.00     0.142 C 
BRANCH   5   6
ATOM      6  C5  <1> d   1       3.078   0.064   2.109  0.00  0.00    -0.038 A 
ATOM      7  C8  <1> d   1       2.675  -0.465   3.371  0.00  0.00    -0.019 A 
ATOM      8  C9  <1> d   1       2.559  -1.874   3.516  0.00  0.00    -0.025 A 
ATOM      9  C12 <1> d   1       2.395   0.324   4.511  0.00  0.00     0.013 A 
ATOM     10  C14 <1> d   1       2.216  -2.435   4.758  0.00  0.00     0.012 A 
ATOM     11  C13 <1> d   1       2.797  -2.714   2.420  0.00  0.00     0.012 A 
ATOM     12  C16 <1> d   1       1.956  -1.628   5.862  0.00  0.00     0.001 A 
ATOM     13  C15 <1> d   1       2.035  -0.248   5.736  0.00  0.00     0.001 A 
ATOM     14  C11 <1> d   1       3.132  -2.187   1.178  0.00  0.00     0.001 A 
ATOM     15  C10 <1> d   1       3.269  -0.811   1.022  0.00  0.00     0.008 A 
ENDBRANCH   5   6
ENDBRANCH   3   5
BRANCH   1  16
ATOM     16  CA  ASP d   1       1.394   4.257   0.097  0.00  0.00     0.192 C 
BRANCH  16  17
ATOM     17  CB  ASP d   1       1.536   4.678  -1.366  0.00  0.00     0.146 C 
BRANCH  17  18
ATOM     18  CG  ASP d   1       2.882   5.295  -1.620  0.00  0.00     0.141 C 
ATOM     19  OD1 ASP d   1       3.870   4.621  -1.881  0.00  0.00    -0.650 OA
BRANCH  18  20
ATOM     20  OD2 ASP d   1       2.936   6.633  -1.473  0.00  0.00    -0.776 OA
ATOM     21  HD2 ASP d   1       2.143   7.031  -1.039  0.00  0.00     0.167 HD
ENDBRANCH  18  20
ENDBRANCH  17  18
ENDBRANCH  16  17
BRANCH  16  22
ATOM     22  C   ASP d   1       1.368   5.521   0.977  0.00  0.00     0.164 C 
ATOM     23  O   ASP d   1       1.230   6.653   0.513  0.00  0.00    -0.648 OA
BRANCH  22  24
ATOM     24  OXT ASP d   1       1.402   5.296   2.305  0.00  0.00    -0.775 OA
ATOM     25  HXT ASP d   1       1.327   4.336   2.534  0.00  0.00     0.167 HD
ENDBRANCH  22  24
ENDBRANCH  16  22
ENDBRANCH   1  16
TORSDOF 8
