REMARK  6 active torsions:
REMARK  status: ('A' for Active; 'I' for Inactive)
REMARK    1  A    between atoms: C_4  and  N_1 
REMARK    2  A    between atoms: C_2  and  C_4 
REMARK    3  A    between atoms: C_3  and  C_2 
REMARK    4  A    between atoms: S_5  and  C_2 
REMARK    5  A    between atoms: C_6  and  S_5 
REMARK    6  A    between atoms: N_12  and  C_11 
ROOT
ATOM      1  C   UNL d   1       1.157   2.173  -0.863  0.00  0.00     0.114 C 
ENDROOT
BRANCH   1   2
ATOM      2  C   UNL d   1       0.175   1.206  -0.186  0.00  0.00     0.221 C 
BRANCH   2   3
ATOM      3  N   UNL d   1      -1.139   1.049  -0.906  0.00  0.00    -0.154 N 
ATOM      4  O   UNL d   1      -1.985   0.351  -0.326  0.00  0.00    -0.536 OA
ATOM      5  O   UNL d   1      -1.314   1.587  -2.004  0.00  0.00    -0.536 OA
ENDBRANCH   2   3
ENDBRANCH   1   2
BRANCH   1   6
ATOM      6  C   UNL d   1       1.633   1.889  -2.302  0.00  0.00     0.018 C 
ATOM      7  C   UNL d   1       1.469   0.680  -3.008  0.00  0.00     0.044 C 
ATOM      8 CL   UNL d   1       1.185  -0.856  -2.266  0.00  0.00    -0.084 Cl
ATOM      9  C   UNL d   1       1.634   0.622  -4.401  0.00  0.00     0.024 C 
ATOM     10  C   UNL d   1       2.093   1.725  -5.107  0.00  0.00     0.005 C 
ATOM     11  C   UNL d   1       2.483   2.852  -4.402  0.00  0.00     0.043 C 
ATOM     12  C   UNL d   1       2.277   2.913  -3.024  0.00  0.00     0.125 C 
ATOM     13  F   UNL d   1       2.741   4.000  -2.388  0.00  0.00    -0.205 F 
ENDBRANCH   1   6
BRANCH   1  14
ATOM     14  S   UNL d   1       0.424   3.931  -0.717  0.00  0.00    -0.117 SA
BRANCH  14  15
ATOM     15  C   UNL d   1       0.194   4.078   1.054  0.00  0.00     0.022 A 
ATOM     16  C   UNL d   1       1.282   4.183   1.941  0.00  0.00     0.022 A 
ATOM     17  C   UNL d   1       1.033   4.133   3.317  0.00  0.00     0.024 A 
ATOM     18  C   UNL d   1      -0.276   4.105   3.806  0.00  0.00     0.002 A 
ATOM     19  C   UNL d   1      -1.351   4.098   2.922  0.00  0.00     0.001 A 
ATOM     20  C   UNL d   1      -1.118   4.084   1.547  0.00  0.00     0.020 A 
BRANCH  16  21
ATOM     21  N   UNL d   1       2.614   4.112   1.480  0.00  0.00    -0.302 NA
ATOM     22  H   UNL d   1       2.686   4.488   0.532  0.00  0.00     0.124 HD
ATOM     23  H   UNL d   1       3.270   4.571   2.106  0.00  0.00     0.124 HD
ENDBRANCH  16  21
ENDBRANCH  14  15
ENDBRANCH   1  14
TORSDOF 6
