REMARK  4 active torsions:
REMARK  status: ('A' for Active; 'I' for Inactive)
REMARK    1  A    between atoms: C_10  and  N_3 
REMARK    2  A    between atoms: C_9  and  C_4 
REMARK    3  A    between atoms: C_8  and  C_11 
REMARK    4  A    between atoms: O_21  and  C_9 
ROOT
ATOM      1  N   UNL d   1       2.341  -0.692  -0.124  0.00  0.00    -0.284 N 
ATOM      2  HN  UNL d   1       3.233  -1.179  -0.217  1.00  0.00     0.188 HD
ATOM      3  N   UNL d   1       2.309   0.685  -0.035  0.00  0.00    -0.219 N 
ATOM      4  C   UNL d   1       1.224  -1.366  -0.089  0.00  0.00     0.133 A 
ATOM      5  C   UNL d   1       1.119   1.421   0.050  0.00  0.00     0.278 A 
ATOM      6  C   UNL d   1      -0.108  -0.742  -0.015  0.00  0.00     0.015 A 
ATOM      7  C   UNL d   1      -0.137   0.648   0.027  0.00  0.00     0.046 A 
ATOM      8  O   UNL d   1       1.019   2.645   0.103  0.00  0.00    -0.265 OA
ATOM      9  C   UNL d   1      -1.320  -1.445  -0.023  0.00  0.00     0.015 A 
ATOM     10  C   UNL d   1      -1.363   1.336   0.032  0.00  0.00     0.018 A 
ATOM     11  C   UNL d   1      -2.539  -0.758  -0.013  0.00  0.00     0.001 A 
ATOM     12  C   UNL d   1      -2.562   0.632   0.005  0.00  0.00     0.001 A 
ENDROOT
BRANCH   3  13
ATOM     13  C   UNL d   1       3.603   1.312  -0.050  0.00  0.00     0.060 A 
ATOM     14  C   UNL d   1       3.816   2.585   0.497  0.00  0.00     0.032 A 
ATOM     15  C   UNL d   1       5.065   3.213   0.431  0.00  0.00     0.018 A 
ATOM     16  C   UNL d   1       6.147   2.583  -0.190  0.00  0.00     0.048 A 
ATOM     17  C   UNL d   1       5.958   1.297  -0.714  0.00  0.00     0.018 A 
ATOM     18  C   UNL d   1       4.707   0.666  -0.633  0.00  0.00     0.032 A 
BRANCH  16  19
ATOM     19  C   UNL d   1       7.484   3.272  -0.307  0.00  0.00     0.417 C 
ATOM     20  F   UNL d   1       7.505   4.519   0.243  0.00  0.00    -0.166 F 
ATOM     21  F   UNL d   1       8.484   2.579   0.305  0.00  0.00    -0.166 F 
ATOM     22  F   UNL d   1       7.877   3.431  -1.601  0.00  0.00    -0.166 F 
ENDBRANCH  16  19
ENDBRANCH   3  13
BRANCH   4  23
ATOM     23  C   UNL d   1       1.413  -2.896  -0.141  0.00  0.00     0.196 C 
ATOM     24  O   UNL d   1       0.524  -3.717  -0.092  0.00  0.00    -0.645 OA
BRANCH  23  25
ATOM     25  O   UNL d   1       2.724  -3.200  -0.244  0.00  0.00    -0.772 OA
ATOM     26  H   UNL d   1       3.244  -2.365  -0.234  0.00  0.00     0.167 HD
ENDBRANCH  23  25
ENDBRANCH   4  23
TORSDOF 4
