REMARK  5 active torsions:
REMARK  status: ('A' for Active; 'I' for Inactive)
REMARK    1  A    between atoms: C_2  and  N_1 
REMARK    2  A    between atoms: N_11  and  N_3 
REMARK    3  A    between atoms: C_13  and  C_5 
REMARK       I    between atoms: C_7  and  N_11 
REMARK    4  A    between atoms: C_16  and  C_7 
REMARK    5  A    between atoms: C_12  and  C_16 
ROOT
ATOM      1  C   UNL d   1       4.282  -2.118  -1.308  0.00  0.00     0.240 C 
ATOM      2  N   UNL d   1       4.370  -0.881  -0.682  0.00  0.00    -0.270 N 
ATOM      3  O   UNL d   1       3.236  -2.752  -1.441  0.00  0.00    -0.272 OA
ATOM      4  H   UNL d   1       5.232  -0.349  -0.676  0.00  0.00     0.190 HD
ENDROOT
BRANCH   2   5
ATOM      5  N   UNL d   1       3.270  -0.382  -0.066  0.00  0.00    -0.308 N 
ATOM      6  C   UNL d   1       3.328   0.857   0.295  0.00  0.00     0.121 C 
ATOM      7  HN  UNL d   1       2.443  -0.954   0.104  1.00  0.00     0.186 HD
BRANCH   6   8
ATOM      8  C   UNL d   1       2.189   1.454   1.016  0.00  0.00     0.014 A 
ATOM      9  C   UNL d   1       1.794   2.782   0.877  0.00  0.00     0.114 A 
ATOM     10  C   UNL d   1       0.674   3.283   1.557  0.00  0.00     0.037 A 
ATOM     11  C   UNL d   1      -0.046   2.437   2.405  0.00  0.00     0.002 A 
ATOM     12  C   UNL d   1       0.339   1.104   2.554  0.00  0.00     0.001 A 
ATOM     13  C   UNL d   1       1.444   0.613   1.859  0.00  0.00     0.015 A 
BRANCH   9  14
ATOM     14  N   UNL d   1       2.487   3.680  -0.024  0.00  0.00    -0.115 N 
ATOM     15  O   UNL d   1       3.708   3.812   0.128  0.00  0.00    -0.532 OA
ATOM     16  O   UNL d   1       1.803   4.279  -0.866  0.00  0.00    -0.532 OA
ENDBRANCH   9  14
ENDBRANCH   6   8
ENDBRANCH   2   5
BRANCH   1  17
ATOM     17  C   UNL d   1       5.606  -2.580  -1.884  0.00  0.00     0.143 C 
BRANCH  17  18
ATOM     18  C   UNL d   1       6.086  -3.954  -1.471  0.00  0.00    -0.049 A 
ATOM     19  C   UNL d   1       7.466  -4.173  -1.330  0.00  0.00     0.020 A 
ATOM     20  C   UNL d   1       7.994  -5.472  -1.253  0.00  0.00    -0.025 A 
ATOM     21  C   UNL d   1       9.379  -5.695  -1.222  0.00  0.00     0.012 A 
ATOM     22  C   UNL d   1       7.116  -6.577  -1.279  0.00  0.00    -0.026 A 
ATOM     23  C   UNL d   1       9.891  -6.991  -1.292  0.00  0.00     0.001 A 
ATOM     24  C   UNL d   1       9.025  -8.078  -1.365  0.00  0.00     0.001 A 
ATOM     25  C   UNL d   1       7.646  -7.875  -1.332  0.00  0.00     0.012 A 
ATOM     26  C   UNL d   1       5.734  -6.353  -1.300  0.00  0.00     0.013 A 
ATOM     27  C   UNL d   1       5.226  -5.057  -1.411  0.00  0.00     0.008 A 
ENDBRANCH  17  18
ENDBRANCH   1  17
TORSDOF 5
