REMARK  2 active torsions:
REMARK  status: ('A' for Active; 'I' for Inactive)
REMARK    1  A    between atoms: N_7  and  C_4 
REMARK    2  A    between atoms: C_15  and  N_7 
ROOT
ATOM      1  C   UNL d   1      -2.549  -1.153   1.148  0.00  0.00     0.098 A 
ATOM      2  C   UNL d   1      -1.383  -2.051   0.980  0.00  0.00     0.199 A 
ATOM      3  C   UNL d   1      -2.285  -0.251   2.306  0.00  0.00     0.199 A 
ATOM      4  C   UNL d   1      -3.648  -1.126   0.386  0.00  0.00     0.112 C 
ATOM      5  C   UNL d   1      -0.412  -1.629   1.993  0.00  0.00     0.029 A 
ATOM      6  C   UNL d   1      -0.927  -0.584   2.752  0.00  0.00     0.029 A 
ATOM      7  C   UNL d   1      -3.866  -2.096  -0.658  0.00  0.00     0.113 C 
ATOM      8  N   UNL d   1      -4.116  -2.846  -1.500  0.00  0.00    -0.190 NA
ATOM      9  O   UNL d   1      -3.007   0.567   2.834  0.00  0.00    -0.286 OA
ATOM     10  O   UNL d   1      -1.222  -2.941   0.175  0.00  0.00    -0.286 OA
ATOM     11  C   UNL d   1      -0.193   0.006   3.763  0.00  0.00     0.016 A 
ATOM     12  C   UNL d   1       0.855  -2.135   2.209  0.00  0.00     0.016 A 
ATOM     13  C   UNL d   1       1.096  -0.485   3.993  0.00  0.00     0.001 A 
ATOM     14  C   UNL d   1       1.614  -1.547   3.225  0.00  0.00     0.001 A 
ENDROOT
BRANCH   4  15
ATOM     15  N   UNL d   1      -4.707  -0.241   0.540  0.00  0.00    -0.250 NA
ATOM     16  H   UNL d   1      -5.598  -0.747   0.592  0.00  0.00     0.134 HD
BRANCH  15  17
ATOM     17  C   UNL d   1      -4.928   0.839  -0.363  0.00  0.00     0.016 A 
ATOM     18  C   UNL d   1      -6.192   1.440  -0.361  0.00  0.00     0.063 A 
ATOM     19  C   UNL d   1      -6.513   2.437  -1.279  0.00  0.00     0.103 A 
ATOM     20  O   UNL d   1      -7.824   2.802  -1.325  0.00  0.00    -0.346 OA
ATOM     21  C   UNL d   1      -5.541   2.938  -2.132  0.00  0.00     0.102 A 
ATOM     22  C   UNL d   1      -8.018   4.075  -1.920  0.00  0.00     0.202 C 
ATOM     23  C   UNL d   1      -7.102   4.409  -3.093  0.00  0.00     0.202 C 
ATOM     24  O   UNL d   1      -5.758   3.941  -3.025  0.00  0.00    -0.346 OA
ATOM     25  C   UNL d   1      -4.252   2.404  -2.094  0.00  0.00     0.041 A 
ATOM     26  C   UNL d   1      -3.942   1.363  -1.209  0.00  0.00     0.027 A 
ENDBRANCH  15  17
ENDBRANCH   4  15
TORSDOF 2
