REMARK  5 active torsions:
REMARK  status: ('A' for Active; 'I' for Inactive)
REMARK    1  A    between atoms: N_2  and  C_1 
REMARK    2  A    between atoms: N_3  and  C_1 
REMARK    3  A    between atoms: C_13  and  N_3 
REMARK    4  A    between atoms: C_4  and  C_9 
REMARK    5  A    between atoms: C_6  and  C_4 
ROOT
ATOM      1  N   UNL d   1      -0.164   1.103  -0.077  0.00  0.00    -0.358 N 
ATOM      2  C   UNL d   1      -0.779   1.514   1.180  0.00  0.00     0.126 C 
ATOM      3  C   UNL d   1       0.324   2.222  -0.885  0.00  0.00     0.126 C 
ATOM      4  C   UNL d   1      -1.577   3.656   0.070  0.00  0.00     0.064 C 
ATOM      5  C   UNL d   1      -1.969   2.429   0.904  0.00  0.00     0.032 C 
ATOM      6  C   UNL d   1      -0.762   3.253  -1.169  0.00  0.00     0.032 C 
ENDROOT
BRANCH   1   7
ATOM      7  C   UNL d   1       0.624  -0.048  -0.136  0.00  0.00     0.174 C 
ATOM      8  S   UNL d   1       1.768  -0.496   0.999  0.00  0.00    -0.041 SA
BRANCH   7   9
ATOM      9  N   UNL d   1       0.515  -0.770  -1.303  0.00  0.00    -0.333 N 
ATOM     10  H   UNL d   1       1.322  -1.339  -1.534  0.00  0.00     0.168 HD
BRANCH   9  11
ATOM     11  C   UNL d   1      -0.675  -1.067  -2.002  0.00  0.00     0.034 A 
ATOM     12  C   UNL d   1      -0.570  -1.581  -3.299  0.00  0.00     0.032 A 
ATOM     13  C   UNL d   1      -1.720  -1.949  -4.004  0.00  0.00     0.044 A 
ATOM     14  C   UNL d   1      -2.965  -1.838  -3.397  0.00  0.00     0.116 A 
ATOM     15  C   UNL d   1      -3.084  -1.357  -2.100  0.00  0.00     0.044 A 
ATOM     16  F   UNL d   1      -4.063  -2.213  -4.064  0.00  0.00    -0.206 F 
ATOM     17  C   UNL d   1      -1.938  -0.964  -1.406  0.00  0.00     0.032 A 
ENDBRANCH   9  11
ENDBRANCH   7   9
ENDBRANCH   1   7
BRANCH   4  18
ATOM     18  C   UNL d   1      -0.853   4.689   0.935  0.00  0.00     0.163 C 
ATOM     19  O   UNL d   1       0.377   4.775   0.939  0.00  0.00    -0.292 OA
BRANCH  18  20
ATOM     20  C   UNL d   1      -1.648   5.612   1.813  0.00  0.00     0.010 A 
ATOM     21  C   UNL d   1      -3.048   5.579   1.878  0.00  0.00     0.015 A 
ATOM     22  C   UNL d   1      -3.741   6.469   2.705  0.00  0.00     0.007 A 
ATOM     23  C   UNL d   1      -3.052   7.407   3.481  0.00  0.00    -0.062 A 
ATOM     24  C   UNL d   1      -1.655   7.437   3.424  0.00  0.00     0.007 A 
ATOM     25  C   UNL d   1      -3.816   8.354   4.357  0.00  0.00     0.048 C 
ATOM     26  C   UNL d   1      -0.961   6.548   2.597  0.00  0.00     0.015 A 
ENDBRANCH  18  20
ENDBRANCH   4  18
TORSDOF 5
