REMARK  3 active torsions:
REMARK  status: ('A' for Active; 'I' for Inactive)
REMARK    1  A    between atoms: C_2  and  C_1 
REMARK    2  A    between atoms: S_11  and  C_6 
REMARK    3  A    between atoms: S_12  and  C_6 
ROOT
ATOM      1  C   UNL d   1      -3.338  -1.435  -0.034  0.00  0.00     0.101 C 
ATOM      2  C   UNL d   1      -3.559  -2.774  -0.086  0.00  0.00     0.059 C 
ATOM      3  C   UNL d   1      -4.402  -0.482   0.032  0.00  0.00     0.104 C 
ATOM      4  N   UNL d   1      -5.253   0.307   0.090  0.00  0.00    -0.191 NA
ENDROOT
BRANCH   1   5
ATOM      5  C   UNL d   1      -2.016  -0.891  -0.046  0.00  0.00     0.098 A 
ATOM      6  N   UNL d   1      -1.315  -0.562  -1.113  0.00  0.00    -0.348 N 
ATOM      7  C   UNL d   1      -0.078  -0.050  -0.751  0.00  0.00     0.050 A 
ATOM      8  HN  UNL d   1      -1.638  -0.670  -2.075  1.00  0.00     0.166 HD
ATOM      9  C   UNL d   1       0.927   0.390  -1.637  0.00  0.00     0.031 A 
ATOM     10  C   UNL d   1       0.159   0.027   0.620  0.00  0.00     0.033 A 
ATOM     11  C   UNL d   1       2.133   0.889  -1.133  0.00  0.00     0.002 A 
ATOM     12  C   UNL d   1       2.348   0.957   0.239  0.00  0.00     0.002 A 
ATOM     13  C   UNL d   1       1.365   0.528   1.139  0.00  0.00     0.021 A 
ATOM     14  S   UNL d   1      -1.220  -0.564   1.460  0.00  0.00    -0.069 SA
ENDBRANCH   1   5
BRANCH   2  15
ATOM     15  S   UNL d   1      -5.199  -3.422   0.018  0.00  0.00    -0.126 SA
ATOM     16  C   UNL d   1      -5.316  -4.388  -1.506  0.00  0.00     0.096 C 
ENDBRANCH   2  15
BRANCH   2  17
ATOM     17  S   UNL d   1      -2.233  -3.931  -0.222  0.00  0.00    -0.126 SA
ATOM     18  C   UNL d   1      -2.430  -4.882   1.303  0.00  0.00     0.096 C 
ENDBRANCH   2  17
TORSDOF 3
