REMARK  8 active torsions:
REMARK  status: ('A' for Active; 'I' for Inactive)
REMARK    1  A    between atoms: C_7  and  S_1 
REMARK    2  A    between atoms: C_8  and  S_1 
REMARK    3  A    between atoms: C_14  and  C_6 
REMARK    4  A    between atoms: C_11  and  N_21 
REMARK    5  A    between atoms: C_15  and  C_12 
REMARK    6  A    between atoms: S_25  and  C_13 
REMARK    7  A    between atoms: O_26  and  C_15 
REMARK    8  A    between atoms: N_21  and  C_16 
ROOT
ATOM      1  C   UNL d   1       0.511  -0.383  -1.490  0.00  0.00     0.160 C 
ATOM      2  C   UNL d   1      -0.133  -1.535  -1.745  0.00  0.00     0.141 C 
ATOM      3  C   UNL d   1       0.817   0.050  -0.182  0.00  0.00     0.113 C 
ATOM      4  N   UNL d   1       1.102   0.383   0.893  0.00  0.00    -0.191 NA
ENDROOT
BRANCH   1   5
ATOM      5  S   UNL d   1       0.965   0.631  -2.822  0.00  0.00     0.219 S 
ATOM      6  O   UNL d   1      -0.196   1.463  -3.112  0.00  0.00    -0.216 OA
ATOM      7  O   UNL d   1       1.558  -0.117  -3.914  0.00  0.00    -0.216 OA
BRANCH   5   8
ATOM      8  C   UNL d   1       2.238   1.753  -2.238  0.00  0.00     0.081 A 
ATOM      9  C   UNL d   1       3.517   1.325  -1.839  0.00  0.00     0.061 A 
ATOM     10  C   UNL d   1       4.440   2.301  -1.409  0.00  0.00     0.019 A 
ATOM     11  C   UNL d   1       4.113   3.659  -1.396  0.00  0.00     0.001 A 
ATOM     12  C   UNL d   1       2.857   4.073  -1.818  0.00  0.00     0.002 A 
ATOM     13  C   UNL d   1       1.923   3.128  -2.241  0.00  0.00     0.025 A 
BRANCH   9  14
ATOM     14  C   UNL d   1       3.919  -0.112  -1.781  0.00  0.00     0.294 C 
ATOM     15  O   UNL d   1       3.131  -1.039  -1.808  0.00  0.00    -0.259 OA
BRANCH  14  16
ATOM     16  O   UNL d   1       5.259  -0.234  -1.617  0.00  0.00    -0.322 OA
ATOM     17  C   UNL d   1       5.724  -1.574  -1.428  0.00  0.00     0.213 C 
ENDBRANCH  14  16
ENDBRANCH   9  14
ENDBRANCH   5   8
ENDBRANCH   1   5
BRANCH   2  18
ATOM     18  N   UNL d   1      -0.689  -2.416  -0.848  0.00  0.00    -0.199 N 
ATOM     19  H   UNL d   1      -0.828  -2.143   0.117  0.00  0.00     0.183 HD
BRANCH  18  20
ATOM     20  C   UNL d   1      -1.108  -3.724  -1.083  0.00  0.00     0.685 A 
ATOM     21  N   UNL d   1      -0.672  -4.385  -2.144  0.00  0.00    -0.180 N 
ATOM     22  C   UNL d   1      -1.038  -5.665  -2.246  0.00  0.00     0.103 A 
ATOM     23  HN  UNL d   1      -0.087  -3.937  -2.849  1.00  0.00     0.185 HD
ATOM     24  N   UNL d   1      -1.879  -6.249  -1.397  0.00  0.00    -0.325 N 
ATOM     25  C   UNL d   1      -2.295  -5.494  -0.388  0.00  0.00     0.160 A 
ATOM     26  HN  UNL d   1      -2.185  -7.215  -1.515  1.00  0.00     0.169 HD
ATOM     27  N   UNL d   1      -1.907  -4.247  -0.156  0.00  0.00    -0.170 N 
ATOM     28  HN  UNL d   1      -2.201  -3.727   0.671  1.00  0.00     0.186 HD
BRANCH  22  29
ATOM     29  C   UNL d   1      -0.467  -6.500  -3.367  0.00  0.00     0.054 A 
ATOM     30  C   UNL d   1       0.237  -7.804  -3.054  0.00  0.00     0.013 A 
ATOM     31  C   UNL d   1       1.030  -6.630  -3.540  0.00  0.00     0.013 A 
ENDBRANCH  22  29
BRANCH  25  32
ATOM     32  S   UNL d   1      -3.480  -6.259   0.699  0.00  0.00    -0.098 SA
ATOM     33  C   UNL d   1      -3.829  -4.906   1.846  0.00  0.00     0.099 C 
ENDBRANCH  25  32
ENDBRANCH  18  20
ENDBRANCH   2  18
TORSDOF 8
