REMARK  3 active torsions:
REMARK  status: ('A' for Active; 'I' for Inactive)
REMARK    1  A    between atoms: C_8  and  C_1 
REMARK    2  A    between atoms: N_6  and  C_2 
REMARK       I    between atoms: N_12  and  C_8 
REMARK    3  A    between atoms: N_15  and  N_12 
ROOT
ATOM      1  C   UNL d   1       1.459  -0.816  -0.040  0.00  0.00     0.096 A 
ATOM      2  C   UNL d   1       0.139  -1.264  -0.063  0.00  0.00     0.145 A 
ATOM      3  N   UNL d   1       0.073   1.006  -0.115  0.00  0.00    -0.307 N 
ATOM      4  HN  UNL d   1      -0.271   1.965  -0.168  1.00  0.00     0.186 HD
ATOM      5  N   UNL d   1      -0.647  -0.136  -0.111  0.00  0.00    -0.280 N 
ATOM      6  C   UNL d   1       1.335   0.593  -0.032  0.00  0.00     0.128 A 
ATOM      7  C   UNL d   1      -2.081   0.022  -0.008  0.00  0.00     0.179 C 
ENDROOT
BRANCH   1   8
ATOM      8  C   UNL d   1       2.739  -1.502  -0.075  0.00  0.00     0.271 C 
ATOM      9  O   UNL d   1       3.751  -1.018   0.430  0.00  0.00    -0.266 OA
ATOM     10  N   UNL d   1       2.778  -2.689  -0.800  0.00  0.00    -0.290 N 
ATOM     11  H   UNL d   1       1.934  -3.074  -1.217  0.00  0.00     0.183 HD
BRANCH  10  12
ATOM     12  N   UNL d   1       3.978  -3.436  -0.869  0.00  0.00    -0.247 NA
ATOM     13  H   UNL d   1       4.692  -2.907  -0.346  0.00  0.00     0.143 HD
ATOM     14  H   UNL d   1       4.311  -3.422  -1.837  0.00  0.00     0.143 HD
ENDBRANCH  10  12
ENDBRANCH   1   8
BRANCH   2  15
ATOM     15  N   UNL d   1      -0.345  -2.574   0.013  0.00  0.00    -0.317 N 
ATOM     16  C   UNL d   1      -1.491  -3.074  -0.575  0.00  0.00     0.098 A 
ATOM     17  C   UNL d   1      -1.599  -4.420  -0.305  0.00  0.00     0.019 A 
ATOM     18  C   UNL d   1      -0.484  -4.777   0.477  0.00  0.00     0.019 A 
ATOM     19  C   UNL d   1       0.258  -3.632   0.666  0.00  0.00     0.098 A 
ENDBRANCH   2  15
TORSDOF 3
