REMARK  7 active torsions:
REMARK  status: ('A' for Active; 'I' for Inactive)
REMARK    1  A    between atoms: C_2  and  N_1 
REMARK    2  A    between atoms: C_3  and  C_2 
REMARK    3  A    between atoms: C_4  and  C_2 
REMARK    4  A    between atoms: N_5  and  C_3 
REMARK    5  A    between atoms: C_9  and  C_3 
REMARK    6  A    between atoms: O_12  and  C_4 
REMARK       I    between atoms: C_6  and  N_5 
REMARK    7  A    between atoms: C_16  and  O_12 
ROOT
ATOM      1  C   UNL d   1      -0.596  -1.153  -1.405  0.00  0.00     0.156 C 
ENDROOT
BRANCH   1   2
ATOM      2  C   UNL d   1       0.405  -1.542  -0.296  0.00  0.00     0.282 C 
BRANCH   2   3
ATOM      3  N   UNL d   1      -0.268  -2.160   0.894  0.00  0.00    -0.138 N 
ATOM      4  O   UNL d   1       0.467  -2.603   1.787  0.00  0.00    -0.536 OA
ATOM      5  O   UNL d   1      -1.503  -2.284   0.892  0.00  0.00    -0.536 OA
ENDBRANCH   2   3
BRANCH   2   6
ATOM      6  C   UNL d   1       1.201  -0.353   0.163  0.00  0.00     0.290 C 
ATOM      7  O   UNL d   1       1.171   0.165   1.274  0.00  0.00    -0.263 OA
BRANCH   6   8
ATOM      8  O   UNL d   1       1.920   0.145  -0.887  0.00  0.00    -0.320 OA
BRANCH   8   9
ATOM      9  C   UNL d   1       2.450   1.472  -0.730  0.00  0.00     0.174 C 
ATOM     10  C   UNL d   1       1.432   2.465  -1.263  0.00  0.00     0.034 C 
ENDBRANCH   8   9
ENDBRANCH   6   8
ENDBRANCH   2   6
ENDBRANCH   1   2
BRANCH   1  11
ATOM     11  N   UNL d   1      -1.353  -2.306  -1.912  0.00  0.00    -0.350 N 
ATOM     12  C   UNL d   1      -0.785  -3.275  -2.700  0.00  0.00     0.214 C 
ATOM     13  O   UNL d   1       0.373  -3.216  -3.093  0.00  0.00    -0.274 OA
ATOM     14  C   UNL d   1      -1.694  -4.440  -2.980  0.00  0.00     0.117 C 
ATOM     15  H   UNL d   1      -2.234  -2.506  -1.448  0.00  0.00     0.163 HD
ENDBRANCH   1  11
BRANCH   1  16
ATOM     16  C   UNL d   1      -1.563   0.020  -1.197  0.00  0.00    -0.033 A 
ATOM     17  C   UNL d   1      -1.740   0.701   0.018  0.00  0.00     0.009 A 
ATOM     18  C   UNL d   1      -2.616   1.783   0.123  0.00  0.00     0.001 A 
ATOM     19  C   UNL d   1      -3.359   2.193  -0.977  0.00  0.00     0.000 A 
ATOM     20  C   UNL d   1      -3.216   1.527  -2.189  0.00  0.00     0.001 A 
ATOM     21  C   UNL d   1      -2.320   0.461  -2.301  0.00  0.00     0.009 A 
ENDBRANCH   1  16
TORSDOF 7
