REMARK  2 active torsions:
REMARK  status: ('A' for Active; 'I' for Inactive)
REMARK    1  A    between atoms: C_13  and  C_4 
REMARK    2  A    between atoms: N_14  and  C_7 
ROOT
ATOM      1  N   UNL d   1       1.636  -1.217  -0.054  0.00  0.00    -0.329 N 
ATOM      2  HN  UNL d   1       1.989  -2.173  -0.103  1.00  0.00     0.168 HD
ATOM      3  C   UNL d   1       0.328  -0.788  -0.035  0.00  0.00     0.130 A 
ATOM      4  C   UNL d   1       2.324  -0.088   0.006  0.00  0.00     0.161 A 
ATOM      5  C   UNL d   1       0.274   0.590   0.067  0.00  0.00     0.181 A 
ATOM      6  O   UNL d   1       1.558   1.047   0.098  0.00  0.00    -0.274 OA
ATOM      7  C   UNL d   1      -0.900  -1.453  -0.097  0.00  0.00     0.131 A 
ATOM      8  N   UNL d   1      -0.814   1.370   0.118  0.00  0.00    -0.331 N 
ATOM      9  HN  UNL d   1      -0.796   2.387   0.194  1.00  0.00     0.168 HD
ATOM     10  N   UNL d   1      -2.034  -0.719  -0.038  0.00  0.00    -0.337 N 
ATOM     11  HN  UNL d   1      -2.948  -1.170  -0.065  1.00  0.00     0.168 HD
ATOM     12  C   UNL d   1      -1.930   0.626   0.056  0.00  0.00     0.184 A 
ENDROOT
BRANCH   4  13
ATOM     13  C   UNL d   1       3.771   0.106  -0.056  0.00  0.00     0.015 A 
ATOM     14  C   UNL d   1       4.615  -1.006  -0.204  0.00  0.00     0.016 A 
ATOM     15  C   UNL d   1       5.998  -0.844  -0.313  0.00  0.00     0.001 A 
ATOM     16  C   UNL d   1       6.556   0.431  -0.272  0.00  0.00     0.000 A 
ATOM     17  C   UNL d   1       5.733   1.545  -0.113  0.00  0.00     0.001 A 
ATOM     18  C   UNL d   1       4.350   1.383  -0.004  0.00  0.00     0.016 A 
ENDBRANCH   4  13
BRANCH   7  19
ATOM     19  N   UNL d   1      -1.017  -2.831  -0.210  0.00  0.00    -0.383 N 
ATOM     20  H   UNL d   1      -0.196  -3.347   0.084  0.00  0.00     0.157 HD
ATOM     21  H   UNL d   1      -1.920  -3.171   0.092  0.00  0.00     0.157 HD
ENDBRANCH   7  19
TORSDOF 2
