REMARK  5 active torsions:
REMARK  status: ('A' for Active; 'I' for Inactive)
REMARK    1  A    between atoms: C_2  and  N_1 
REMARK    2  A    between atoms: C_7  and  C_3 
REMARK    3  A    between atoms: O_18  and  C_7 
REMARK    4  A    between atoms: C_11  and  C_10 
REMARK    5  A    between atoms: O_19  and  C_11 
ROOT
ATOM      1  C   UNL d   1       0.017   2.292  -0.027  0.00  0.00     0.063 A 
ATOM      2  C   UNL d   1      -0.705   2.996   0.958  0.00  0.00     0.067 A 
ATOM      3  C   UNL d   1       0.829   3.006  -0.928  0.00  0.00     0.049 A 
ATOM      4  C   UNL d   1       0.922   4.403  -0.866  0.00  0.00     0.041 A 
ATOM      5  C   UNL d   1      -0.585   4.395   1.031  0.00  0.00     0.021 A 
ATOM      6  C   UNL d   1       0.215   5.093   0.124  0.00  0.00     0.019 A 
ENDROOT
BRANCH   1   7
ATOM      7  N   UNL d   1      -0.015   0.889  -0.131  0.00  0.00    -0.244 N 
ATOM      8  C   UNL d   1       1.086   0.089  -0.029  0.00  0.00     0.255 A 
ATOM      9  C   UNL d   1       0.609  -1.298  -0.078  0.00  0.00     0.080 A 
ATOM     10  O   UNL d   1       2.256   0.388   0.114  0.00  0.00    -0.268 OA
ATOM     11  C   UNL d   1      -0.713  -1.274  -0.244  0.00  0.00     0.080 A 
ATOM     12  C   UNL d   1      -1.138   0.133  -0.287  0.00  0.00     0.255 A 
ATOM     13  O   UNL d   1      -2.286   0.482  -0.504  0.00  0.00    -0.268 OA
ENDBRANCH   1   7
BRANCH   2  14
ATOM     14  C   UNL d   1      -1.452   2.282   2.031  0.00  0.00     0.295 C 
ATOM     15  O   UNL d   1      -1.165   1.174   2.450  0.00  0.00    -0.259 OA
BRANCH  14  16
ATOM     16  O   UNL d   1      -2.472   3.068   2.469  0.00  0.00    -0.322 OA
ATOM     17  C   UNL d   1      -3.260   2.505   3.518  0.00  0.00     0.213 C 
ENDBRANCH  14  16
ENDBRANCH   2  14
BRANCH   4  18
ATOM     18  C   UNL d   1       1.787   5.100  -1.859  0.00  0.00     0.293 C 
ATOM     19  O   UNL d   1       2.373   4.524  -2.760  0.00  0.00    -0.259 OA
BRANCH  18  20
ATOM     20  O   UNL d   1       1.823   6.432  -1.608  0.00  0.00    -0.323 OA
ATOM     21  C   UNL d   1       2.665   7.169  -2.496  0.00  0.00     0.213 C 
ENDBRANCH  18  20
ENDBRANCH   4  18
TORSDOF 5
