REMARK  6 active torsions:
REMARK  status: ('A' for Active; 'I' for Inactive)
REMARK    1  A    between atoms: C_19  and  C_7 
REMARK    2  A    between atoms: S_26  and  C_8 
REMARK    3  A    between atoms: C_14  and  C_20 
REMARK    4  A    between atoms: C_15  and  C_21 
REMARK    5  A    between atoms: C_18  and  C_27 
REMARK    6  A    between atoms: C_27  and  S_26 
ROOT
ATOM      1  N   UNL d   1      -7.269  -1.221  -0.852  0.00  0.00    -0.322 N 
ATOM      2  HN  UNL d   1      -7.139  -0.758  -1.752  1.00  0.00     0.169 HD
ATOM      3  C   UNL d   1      -8.452  -1.554  -0.217  0.00  0.00     0.137 A 
ATOM      4  N   UNL d   1      -8.270  -2.175   0.960  0.00  0.00    -0.242 N 
ATOM      5  HN  UNL d   1      -8.982  -2.521   1.603  1.00  0.00     0.196 HD
ATOM      6  C   UNL d   1      -6.350  -1.651  -0.008  0.00  0.00     0.158 A 
ATOM      7  O   UNL d   1      -6.888  -2.240   1.100  0.00  0.00    -0.222 OA
ENDROOT
BRANCH   6   8
ATOM      8  C   UNL d   1      -4.858  -1.617  -0.076  0.00  0.00     0.169 C 
BRANCH   8   9
ATOM      9  S   UNL d   1      -4.250   0.091   0.005  0.00  0.00    -0.086 SA
BRANCH   9  10
ATOM     10  C   UNL d   1      -2.537  -0.107  -0.013  0.00  0.00     0.145 A 
ATOM     11  N   UNL d   1      -1.811  -1.196  -0.012  0.00  0.00    -0.334 N 
ATOM     12  C   UNL d   1      -0.491  -0.749  -0.010  0.00  0.00     0.068 A 
ATOM     13  HN  UNL d   1      -2.140  -2.162  -0.013  1.00  0.00     0.168 HD
ATOM     14  C   UNL d   1      -0.444   0.642  -0.011  0.00  0.00     0.068 A 
ATOM     15  C   UNL d   1       0.717  -1.485  -0.007  0.00  0.00    -0.026 A 
ATOM     16  N   UNL d   1      -1.765   1.015  -0.015  0.00  0.00    -0.334 N 
ATOM     17  C   UNL d   1       0.735   1.402  -0.008  0.00  0.00    -0.026 A 
ATOM     18  H   UNL d   1      -2.123   1.958  -0.014  0.00  0.00     0.168 HD
ATOM     19  C   UNL d   1       0.726   2.907  -0.007  0.00  0.00     0.051 C 
ATOM     20  C   UNL d   1       1.952   0.667  -0.004  0.00  0.00    -0.047 A 
ATOM     21  C   UNL d   1       1.948  -0.757  -0.005  0.00  0.00    -0.047 A 
ATOM     22  C   UNL d   1       3.251   1.453   0.003  0.00  0.00     0.049 C 
ATOM     23  C   UNL d   1       3.271  -1.496  -0.004  0.00  0.00     0.049 C 
ATOM     24  C   UNL d   1       0.697  -2.989  -0.004  0.00  0.00     0.051 C 
ENDBRANCH   9  10
ENDBRANCH   8   9
ENDBRANCH   6   8
BRANCH   3  25
ATOM     25  C   UNL d   1      -9.775  -1.254  -0.774  0.00  0.00     0.011 A 
ATOM     26  C   UNL d   1      -9.905  -0.563  -1.990  0.00  0.00     0.031 A 
ATOM     27  C   UNL d   1     -11.173  -0.268  -2.533  0.00  0.00     0.049 A 
ATOM     28  C   UNL d   1     -12.323  -0.676  -1.839  0.00  0.00     0.032 A 
ATOM     29  C   UNL d   1     -12.225  -1.369  -0.624  0.00  0.00     0.049 A 
ATOM     30  C   UNL d   1     -10.948  -1.650  -0.104  0.00  0.00     0.031 A 
BRANCH  27  31
ATOM     31  C   UNL d   1     -11.284   0.482  -3.841  0.00  0.00     0.417 C 
ATOM     32  F   UNL d   1     -12.570   0.662  -4.252  0.00  0.00    -0.166 F 
ATOM     33  F   UNL d   1     -10.737   1.726  -3.776  0.00  0.00    -0.166 F 
ATOM     34  F   UNL d   1     -10.653  -0.157  -4.863  0.00  0.00    -0.166 F 
ENDBRANCH  27  31
BRANCH  29  35
ATOM     35  C   UNL d   1     -13.463  -1.810   0.125  0.00  0.00     0.417 C 
ATOM     36  F   UNL d   1     -14.624  -1.468  -0.500  0.00  0.00    -0.166 F 
ATOM     37  F   UNL d   1     -13.515  -3.159   0.295  0.00  0.00    -0.166 F 
ATOM     38  F   UNL d   1     -13.539  -1.269   1.372  0.00  0.00    -0.166 F 
ENDBRANCH  29  35
ENDBRANCH   3  25
TORSDOF 6
