REMARK  4 active torsions:
REMARK  status: ('A' for Active; 'I' for Inactive)
REMARK    1  A    between atoms: C_7  and  C_1 
REMARK    2  A    between atoms: C_10  and  N_2 
REMARK    3  A    between atoms: C_9  and  C_7 
REMARK    4  A    between atoms: O_11  and  C_7 
ROOT
ATOM      1  C   UNL d   1       0.891  -0.653   0.034  0.00  0.00     0.134 A 
ATOM      2  N   UNL d   1       0.855   0.623  -0.418  0.00  0.00    -0.309 N 
ATOM      3  N   UNL d   1      -0.244  -1.085   0.525  0.00  0.00    -0.284 N 
ATOM      4  HN  UNL d   1      -0.447  -2.005   0.918  1.00  0.00     0.188 HD
ATOM      5  C   UNL d   1      -0.434   1.045  -0.183  0.00  0.00     0.194 A 
ATOM      6  N   UNL d   1      -1.091  -0.028   0.394  0.00  0.00    -0.275 N 
ATOM      7  S   UNL d   1      -1.159   2.502  -0.488  0.00  0.00    -0.039 SA
ATOM      8  H   UNL d   1      -2.061  -0.067   0.683  0.00  0.00     0.189 HD
ENDROOT
BRANCH   1   9
ATOM      9  C   UNL d   1       2.132  -1.543   0.019  0.00  0.00     0.220 C 
BRANCH   9  10
ATOM     10  C   UNL d   1       2.988  -1.429   1.267  0.00  0.00    -0.022 A 
ATOM     11  C   UNL d   1       2.442  -1.145   2.529  0.00  0.00     0.010 A 
ATOM     12  C   UNL d   1       3.262  -1.039   3.654  0.00  0.00     0.001 A 
ATOM     13  C   UNL d   1       4.635  -1.236   3.540  0.00  0.00     0.000 A 
ATOM     14  C   UNL d   1       5.188  -1.558   2.303  0.00  0.00     0.001 A 
ATOM     15  C   UNL d   1       4.370  -1.661   1.176  0.00  0.00     0.010 A 
ENDBRANCH   9  10
BRANCH   9  16
ATOM     16  O   UNL d   1       1.762  -2.910  -0.138  0.00  0.00    -0.383 OA
ATOM     17  H   UNL d   1       0.989  -3.038   0.446  0.00  0.00     0.211 HD
ENDBRANCH   9  16
ENDBRANCH   1   9
BRANCH   2  18
ATOM     18  C   UNL d   1       1.924   1.400  -1.040  0.00  0.00     0.128 C 
ATOM     19  C   UNL d   1       2.656   2.293  -0.051  0.00  0.00     0.027 C 
ENDBRANCH   2  18
TORSDOF 4
