REMARK  2 active torsions:
REMARK  status: ('A' for Active; 'I' for Inactive)
REMARK    1  A    between atoms: C_7  and  N_1 
REMARK    2  A    between atoms: C_13  and  C_7 
ROOT
ATOM      1  N   UNL d   1       2.258  -0.123   0.168  0.00  0.00    -0.276 N 
ATOM      2  C   UNL d   1       1.541  -1.319   0.213  0.00  0.00     0.261 A 
ATOM      3  C   UNL d   1       1.685   1.143   0.062  0.00  0.00     0.261 A 
ATOM      4  C   UNL d   1       0.066  -1.225   0.112  0.00  0.00     0.044 A 
ATOM      5  C   UNL d   1       0.206   1.210   0.007  0.00  0.00     0.044 A 
ATOM      6  C   UNL d   1      -0.546   0.031   0.035  0.00  0.00     0.005 A 
ATOM      7  O   UNL d   1       2.055  -2.425   0.359  0.00  0.00    -0.267 OA
ATOM      8  O   UNL d   1       2.328   2.190   0.035  0.00  0.00    -0.267 OA
ATOM      9  C   UNL d   1      -1.959   0.110  -0.007  0.00  0.00    -0.024 A 
ATOM     10  C   UNL d   1      -0.427   2.459  -0.055  0.00  0.00     0.018 A 
ATOM     11  C   UNL d   1      -0.705  -2.395   0.126  0.00  0.00     0.018 A 
ATOM     12  C   UNL d   1      -1.817   2.537  -0.086  0.00  0.00     0.002 A 
ATOM     13  C   UNL d   1      -2.094  -2.317   0.075  0.00  0.00     0.002 A 
ATOM     14  C   UNL d   1      -2.717  -1.071   0.015  0.00  0.00     0.012 A 
ATOM     15  C   UNL d   1      -2.578   1.368  -0.062  0.00  0.00     0.012 A 
ENDROOT
BRANCH   1  16
ATOM     16  C   UNL d   1       3.709  -0.199   0.298  0.00  0.00     0.174 C 
BRANCH  16  17
ATOM     17  C   UNL d   1       4.413  -0.386  -1.028  0.00  0.00    -0.040 A 
ATOM     18  C   UNL d   1       4.792   0.723  -1.799  0.00  0.00     0.009 A 
ATOM     19  C   UNL d   1       5.441   0.547  -3.023  0.00  0.00     0.001 A 
ATOM     20  C   UNL d   1       5.713  -0.737  -3.491  0.00  0.00     0.000 A 
ATOM     21  C   UNL d   1       5.340  -1.846  -2.736  0.00  0.00     0.001 A 
ATOM     22  C   UNL d   1       4.691  -1.673  -1.512  0.00  0.00     0.009 A 
ENDBRANCH  16  17
ENDBRANCH   1  16
TORSDOF 2
