REMARK  4 active torsions:
REMARK  status: ('A' for Active; 'I' for Inactive)
REMARK    1  A    between atoms: N_5  and  S_1 
REMARK    2  A    between atoms: C_6  and  S_1 
REMARK    3  A    between atoms: N_3  and  C_2 
REMARK    4  A    between atoms: C_4  and  N_5 
ROOT
ATOM      1  N   UNL d   1       0.565   0.079   1.647  0.00  0.00    -0.179 NA
ATOM      2  H   UNL d   1      -0.158   0.652   2.086  0.00  0.00     0.146 HD
ENDROOT
BRANCH   1   3
ATOM      3  C   UNL d   1       0.864  -1.106   2.417  0.00  0.00     0.056 A 
ATOM      4  C   UNL d   1       2.110  -1.731   2.451  0.00  0.00     0.125 A 
ATOM      5  C   UNL d   1       2.309  -2.907   3.195  0.00  0.00     0.045 A 
ATOM      6  C   UNL d   1       1.257  -3.484   3.932  0.00  0.00    -0.054 A 
ATOM      7  C   UNL d   1      -0.011  -2.872   3.894  0.00  0.00    -0.054 A 
ATOM      8  C   UNL d   1       1.587  -4.716   4.735  0.00  0.00     0.049 C 
ATOM      9  C   UNL d   1      -0.192  -1.706   3.116  0.00  0.00     0.034 A 
ATOM     10  C   UNL d   1      -1.221  -3.368   4.643  0.00  0.00     0.049 C 
BRANCH   4  11
ATOM     11  N   UNL d   1       3.271  -1.134   1.819  0.00  0.00    -0.114 N 
ATOM     12  O   UNL d   1       3.490   0.067   2.038  0.00  0.00    -0.532 OA
ATOM     13  O   UNL d   1       4.014  -1.886   1.169  0.00  0.00    -0.532 OA
ENDBRANCH   4  11
ENDBRANCH   1   3
BRANCH   1  14
ATOM     14  S   UNL d   1       0.137  -0.226   0.026  0.00  0.00     0.246 S 
ATOM     15  O   UNL d   1      -1.156  -0.876   0.057  0.00  0.00    -0.206 OA
ATOM     16  O   UNL d   1       1.271  -0.799  -0.660  0.00  0.00    -0.206 OA
BRANCH  14  17
ATOM     17  C   UNL d   1      -0.105   1.421  -0.598  0.00  0.00     0.076 A 
ATOM     18  C   UNL d   1      -1.361   1.802  -1.082  0.00  0.00     0.050 A 
ATOM     19  C   UNL d   1      -1.547   3.094  -1.585  0.00  0.00     0.057 A 
ATOM     20 CL   UNL d   1      -3.120   3.508  -2.167  0.00  0.00    -0.083 Cl
ATOM     21  C   UNL d   1      -0.478   4.000  -1.600  0.00  0.00     0.055 A 
ATOM     22  C   UNL d   1       0.775   3.609  -1.113  0.00  0.00     0.027 A 
ATOM     23 CL   UNL d   1      -0.641   5.610  -2.206  0.00  0.00    -0.083 Cl
ATOM     24  C   UNL d   1       0.968   2.318  -0.613  0.00  0.00     0.026 A 
ENDBRANCH  14  17
ENDBRANCH   1  14
TORSDOF 4
