REMARK  4 active torsions:
REMARK  status: ('A' for Active; 'I' for Inactive)
REMARK    1  A    between atoms: N_2  and  C_1 
REMARK    2  A    between atoms: N_3  and  C_1 
REMARK    3  A    between atoms: C_10  and  N_2 
REMARK    4  A    between atoms: C_9  and  N_3 
ROOT
ATOM      1  C   UNL d   1       1.116   0.079  -0.127  0.00  0.00     0.176 C 
ATOM      2  S   UNL d   1       2.745  -0.108  -0.476  0.00  0.00    -0.041 SA
ENDROOT
BRANCH   1   3
ATOM      3  N   UNL d   1       0.589   0.877   0.853  0.00  0.00    -0.333 N 
ATOM      4  H   UNL d   1      -0.115   0.411   1.417  0.00  0.00     0.168 HD
BRANCH   3   5
ATOM      5  C   UNL d   1       1.073   2.109   1.335  0.00  0.00     0.036 A 
ATOM      6  C   UNL d   1       0.755   2.482   2.645  0.00  0.00     0.056 A 
ATOM      7  C   UNL d   1       1.184   3.716   3.142  0.00  0.00     0.074 A 
ATOM      8 CL   UNL d   1       0.822   4.142   4.771  0.00  0.00    -0.081 Cl
ATOM      9  C   UNL d   1       1.895   4.589   2.322  0.00  0.00     0.138 A 
ATOM     10  C   UNL d   1       2.183   4.243   1.008  0.00  0.00     0.046 A 
ATOM     11  F   UNL d   1       2.300   5.784   2.779  0.00  0.00    -0.204 F 
ATOM     12  C   UNL d   1       1.773   3.003   0.514  0.00  0.00     0.032 A 
ENDBRANCH   3   5
ENDBRANCH   1   3
BRANCH   1  13
ATOM     13  N   UNL d   1       0.242  -0.736  -0.796  0.00  0.00    -0.333 N 
ATOM     14  H   UNL d   1       0.720  -1.469  -1.315  0.00  0.00     0.168 HD
BRANCH  13  15
ATOM     15  C   UNL d   1      -1.140  -0.606  -1.047  0.00  0.00     0.036 A 
ATOM     16  C   UNL d   1      -1.763  -1.671  -1.714  0.00  0.00     0.056 A 
ATOM     17  C   UNL d   1      -3.117  -1.600  -2.052  0.00  0.00     0.074 A 
ATOM     18 CL   UNL d   1      -3.853  -2.919  -2.877  0.00  0.00    -0.081 Cl
ATOM     19  C   UNL d   1      -3.853  -0.463  -1.734  0.00  0.00     0.138 A 
ATOM     20  C   UNL d   1      -3.245   0.606  -1.085  0.00  0.00     0.046 A 
ATOM     21  F   UNL d   1      -5.149  -0.369  -2.058  0.00  0.00    -0.204 F 
ATOM     22  C   UNL d   1      -1.889   0.537  -0.750  0.00  0.00     0.032 A 
ENDBRANCH  13  15
ENDBRANCH   1  13
TORSDOF 4
