REMARK  5 active torsions:
REMARK  status: ('A' for Active; 'I' for Inactive)
REMARK    1  A    between atoms: C_2  and  S_1 
REMARK    2  A    between atoms: O_3  and  S_1 
REMARK    3  A    between atoms: C_13  and  O_3 
REMARK    4  A    between atoms: O_15  and  C_6 
REMARK    5  A    between atoms: O_20  and  C_10 
ROOT
ATOM      1  N   UNL d   1       0.361   4.767  -6.240  0.00  0.00    -0.191 NA
ATOM      2  C   UNL d   1       0.330   4.179  -5.240  0.00  0.00     0.099 C 
ATOM      3  C   UNL d   1       0.217   2.039  -1.566  0.00  0.00     0.089 A 
ATOM      4  C   UNL d   1       0.287   3.455  -4.002  0.00  0.00     0.044 A 
ATOM      5  C   UNL d   1      -0.494   3.918  -2.939  0.00  0.00     0.025 A 
ATOM      6  C   UNL d   1       0.994   1.573  -2.629  0.00  0.00     0.040 A 
ATOM      7  C   UNL d   1      -0.527   3.213  -1.731  0.00  0.00     0.040 A 
ATOM      8  C   UNL d   1       1.030   2.279  -3.841  0.00  0.00     0.025 A 
ENDROOT
BRANCH   3   9
ATOM      9  O   UNL d   1       0.102   1.448  -0.331  0.00  0.00    -0.229 OA
BRANCH   9  10
ATOM     10  S   UNL d   1       0.897   0.078   0.061  0.00  0.00     0.303 S 
ATOM     11  O   UNL d   1       0.349  -1.008  -0.734  0.00  0.00    -0.193 OA
ATOM     12  O   UNL d   1       2.321   0.344   0.084  0.00  0.00    -0.193 OA
BRANCH  10  13
ATOM     13  C   UNL d   1       0.441  -0.261   1.751  0.00  0.00     0.089 A 
ATOM     14  C   UNL d   1       0.426  -1.596   2.181  0.00  0.00     0.065 A 
ATOM     15  C   UNL d   1       0.102  -1.920   3.508  0.00  0.00     0.102 A 
ATOM     16  C   UNL d   1      -0.227  -0.882   4.399  0.00  0.00     0.101 A 
ATOM     17  C   UNL d   1      -0.216   0.450   3.944  0.00  0.00     0.041 A 
ATOM     18  C   UNL d   1       0.116   0.771   2.626  0.00  0.00     0.029 A 
BRANCH  15  19
ATOM     19  O   UNL d   1       0.101  -3.206   3.975  0.00  0.00    -0.353 OA
ATOM     20  C   UNL d   1       0.428  -4.260   3.078  0.00  0.00     0.210 C 
ENDBRANCH  15  19
BRANCH  16  21
ATOM     21  O   UNL d   1      -0.580  -0.971   5.721  0.00  0.00    -0.353 OA
ATOM     22  C   UNL d   1      -0.618  -2.245   6.348  0.00  0.00     0.210 C 
ENDBRANCH  16  21
ENDBRANCH  10  13
ENDBRANCH   9  10
ENDBRANCH   3   9
TORSDOF 5
