REMARK  4 active torsions:
REMARK  status: ('A' for Active; 'I' for Inactive)
REMARK    1  A    between atoms: N_2  and  C_1 
REMARK    2  A    between atoms: N_3  and  C_10 
REMARK    3  A    between atoms: C_5  and  O_11 
REMARK    4  A    between atoms: O_11  and  C_9 
ROOT
ATOM      1  C   UNL d   1       0.357   3.501   1.321  0.00  0.00     0.139 A 
ATOM      2  C   UNL d   1      -0.083   4.729   1.836  0.00  0.00     0.075 A 
ATOM      3  C   UNL d   1       1.383   3.421   0.372  0.00  0.00     0.109 A 
ATOM      4  C   UNL d   1       0.536   5.900   1.383  0.00  0.00     0.105 A 
ATOM      5  C   UNL d   1       1.955   4.610  -0.102  0.00  0.00     0.042 A 
ATOM      6  C   UNL d   1       1.553   5.845   0.417  0.00  0.00     0.039 A 
ENDROOT
BRANCH   3   7
ATOM      7  O   UNL d   1       1.756   2.194  -0.125  0.00  0.00    -0.306 OA
BRANCH   7   8
ATOM      8  C   UNL d   1       3.105   1.931  -0.287  0.00  0.00     0.099 A 
ATOM      9  C   UNL d   1       3.518   1.178  -1.397  0.00  0.00     0.075 A 
ATOM     10  C   UNL d   1       4.881   0.873  -1.589  0.00  0.00    -0.015 A 
ATOM     11 CL   UNL d   1       2.312   0.671  -2.540  0.00  0.00    -0.081 Cl
ATOM     12  C   UNL d   1       5.358   0.017  -2.739  0.00  0.00     0.052 C 
ATOM     13  C   UNL d   1       5.823   1.385  -0.662  0.00  0.00     0.047 A 
ATOM     14  C   UNL d   1       5.413   2.119   0.467  0.00  0.00    -0.037 A 
ATOM     15 CL   UNL d   1       7.519   1.107  -0.930  0.00  0.00    -0.083 Cl
ATOM     16  C   UNL d   1       4.043   2.351   0.659  0.00  0.00     0.047 A 
ATOM     17  C   UNL d   1       6.347   2.701   1.493  0.00  0.00     0.050 C 
ENDBRANCH   7   8
ENDBRANCH   3   7
BRANCH   1  18
ATOM     18  N   UNL d   1      -0.257   2.291   1.832  0.00  0.00    -0.113 N 
ATOM     19  O   UNL d   1      -1.490   2.216   1.756  0.00  0.00    -0.532 OA
ATOM     20  O   UNL d   1       0.490   1.457   2.360  0.00  0.00    -0.532 OA
ENDBRANCH   1  18
BRANCH   4  21
ATOM     21  N   UNL d   1       0.126   7.200   1.930  0.00  0.00    -0.116 N 
ATOM     22  O   UNL d   1      -0.815   7.210   2.735  0.00  0.00    -0.532 OA
ATOM     23  O   UNL d   1       0.753   8.202   1.559  0.00  0.00    -0.532 OA
ENDBRANCH   4  21
TORSDOF 4
