REMARK  3 active torsions:
REMARK  status: ('A' for Active; 'I' for Inactive)
REMARK    1  A    between atoms: C_3  and  C_1 
REMARK    2  A    between atoms: C_9  and  C_2 
REMARK    3  A    between atoms: C_15  and  C_6 
ROOT
ATOM      1  C   UNL d   1      -0.033  -1.277   0.015  0.00  0.00     0.078 A 
ATOM      2  C   UNL d   1      -1.371  -0.785   0.029  0.00  0.00     0.087 A 
ATOM      3  N   UNL d   1      -1.350   0.553   0.178  0.00  0.00    -0.259 N 
ATOM      4  HN  UNL d   1      -2.160   1.170   0.242  1.00  0.00     0.195 HD
ATOM      5  O   UNL d   1      -0.026   0.931   0.226  0.00  0.00    -0.241 OA
ATOM      6  C   UNL d   1       0.768  -0.166   0.144  0.00  0.00     0.089 A 
ATOM      7  C   UNL d   1       2.224   0.069   0.148  0.00  0.00     0.080 C 
ENDROOT
BRANCH   1   8
ATOM      8  C   UNL d   1       0.469  -2.662  -0.099  0.00  0.00     0.187 A 
ATOM      9  N   UNL d   1      -0.201  -3.645  -0.659  0.00  0.00    -0.318 N 
ATOM     10  C   UNL d   1       0.619  -4.729  -0.465  0.00  0.00     0.145 A 
ATOM     11  HN  UNL d   1      -1.108  -3.610  -1.124  1.00  0.00     0.169 HD
ATOM     12  N   UNL d   1       1.749  -4.453   0.201  0.00  0.00    -0.241 N 
ATOM     13  O   UNL d   1       1.678  -3.076   0.398  0.00  0.00    -0.217 OA
ATOM     14  HN  UNL d   1       2.484  -5.097   0.493  1.00  0.00     0.196 HD
BRANCH  10  15
ATOM     15  C   UNL d   1       0.298  -6.089  -0.994  0.00  0.00     0.050 A 
ATOM     16  S   UNL d   1      -1.005  -6.403  -2.054  0.00  0.00    -0.098 SA
ATOM     17  C   UNL d   1      -0.566  -8.050  -2.201  0.00  0.00     0.050 A 
ATOM     18  C   UNL d   1       0.519  -8.368  -1.413  0.00  0.00     0.009 A 
ATOM     19  C   UNL d   1       1.020  -7.230  -0.713  0.00  0.00     0.023 A 
ENDBRANCH  10  15
ENDBRANCH   1   8
BRANCH   2  20
ATOM     20  C   UNL d   1      -2.637  -1.527  -0.002  0.00  0.00     0.054 A 
ATOM     21  C   UNL d   1      -3.756  -1.124  -0.747  0.00  0.00     0.049 A 
ATOM     22 CL   UNL d   1      -3.799   0.309  -1.716  0.00  0.00    -0.083 Cl
ATOM     23  C   UNL d   1      -4.929  -1.903  -0.753  0.00  0.00     0.025 A 
ATOM     24  C   UNL d   1      -4.993  -3.102  -0.043  0.00  0.00     0.005 A 
ATOM     25  C   UNL d   1      -3.901  -3.502   0.714  0.00  0.00     0.043 A 
ATOM     26  C   UNL d   1      -2.757  -2.705   0.755  0.00  0.00     0.130 A 
ATOM     27  F   UNL d   1      -1.770  -3.097   1.574  0.00  0.00    -0.205 F 
ENDBRANCH   2  20
TORSDOF 3
