REMARK  4 active torsions:
REMARK  status: ('A' for Active; 'I' for Inactive)
REMARK    1  A    between atoms: C_8  and  C_3 
REMARK    2  A    between atoms: C_12  and  C_7 
REMARK       I    between atoms: C_9  and  N_10 
REMARK    3  A    between atoms: N_10  and  C_16 
REMARK    4  A    between atoms: O_21  and  C_20 
ROOT
ATOM      1  N   UNL d   1       1.600  -0.098   0.005  0.00  0.00    -0.331 N 
ATOM      2  HN  UNL d   1       2.544  -0.484  -0.002  1.00  0.00     0.168 HD
ATOM      3  C   UNL d   1       1.233   1.142  -0.012  0.00  0.00     0.162 A 
ATOM      4  C   UNL d   1       0.400  -0.765   0.034  0.00  0.00     0.111 A 
ATOM      5  O   UNL d   1      -0.093   1.408   0.016  0.00  0.00    -0.256 OA
ATOM      6  C   UNL d   1      -0.732   0.206   0.051  0.00  0.00     0.316 A 
ATOM      7  C   UNL d   1       0.305  -2.100   0.029  0.00  0.00     0.047 C 
ATOM      8  O   UNL d   1      -1.933   0.031   0.090  0.00  0.00    -0.257 OA
ENDROOT
BRANCH   3   9
ATOM      9  C   UNL d   1       2.105   2.323  -0.068  0.00  0.00     0.015 A 
ATOM     10  C   UNL d   1       3.494   2.162  -0.102  0.00  0.00     0.018 A 
ATOM     11  C   UNL d   1       4.329   3.285  -0.182  0.00  0.00     0.030 A 
ATOM     12  C   UNL d   1       3.787   4.577  -0.229  0.00  0.00     0.034 A 
ATOM     13  C   UNL d   1       2.399   4.722  -0.187  0.00  0.00     0.030 A 
ATOM     14  C   UNL d   1       1.562   3.607  -0.108  0.00  0.00     0.018 A 
BRANCH  12  15
ATOM     15  N   UNL d   1       4.677   5.670  -0.322  0.00  0.00    -0.328 N 
ATOM     16  C   UNL d   1       4.336   7.011  -0.382  0.00  0.00     0.218 C 
ATOM     17  O   UNL d   1       3.203   7.481  -0.357  0.00  0.00    -0.274 OA
ATOM     18  C   UNL d   1       5.520   7.935  -0.489  0.00  0.00     0.117 C 
ATOM     19  H   UNL d   1       5.662   5.440  -0.352  0.00  0.00     0.169 HD
ENDBRANCH  12  15
ENDBRANCH   3   9
BRANCH   7  20
ATOM     20  C   UNL d   1      -0.948  -2.851   0.040  0.00  0.00    -0.031 A 
ATOM     21  C   UNL d   1      -1.561  -3.171   1.258  0.00  0.00     0.048 A 
ATOM     22  C   UNL d   1      -2.760  -3.885   1.274  0.00  0.00     0.069 A 
ATOM     23  C   UNL d   1      -3.340  -4.276   0.065  0.00  0.00     0.037 A 
ATOM     24  C   UNL d   1      -2.734  -3.958  -1.152  0.00  0.00     0.004 A 
ATOM     25  C   UNL d   1      -1.537  -3.245  -1.165  0.00  0.00     0.011 A 
BRANCH  22  26
ATOM     26  O   UNL d   1      -3.453  -4.260   2.393  0.00  0.00    -0.356 OA
ATOM     27  C   UNL d   1      -2.906  -3.860   3.645  0.00  0.00     0.210 C 
ENDBRANCH  22  26
ENDBRANCH   7  20
TORSDOF 4
