REMARK  4 active torsions:
REMARK  status: ('A' for Active; 'I' for Inactive)
REMARK    1  A    between atoms: C_6  and  C_1 
REMARK    2  A    between atoms: C_10  and  C_2 
REMARK    3  A    between atoms: N_11  and  C_6 
REMARK    4  A    between atoms: O_12  and  N_8 
ROOT
ATOM      1  C   UNL d   1       0.519  -3.679  -0.041  0.00  0.00     0.093 A 
ATOM      2  C   UNL d   1       1.898  -3.538   0.043  0.00  0.00     0.077 A 
ATOM      3  N   UNL d   1       1.802  -5.790   0.052  0.00  0.00    -0.060 NA
ATOM      4  N   UNL d   1       2.604  -4.742   0.072  0.00  0.00    -0.291 N 
ATOM      5  HN  UNL d   1       3.622  -4.804   0.104  1.00  0.00     0.183 HD
ATOM      6  S   UNL d   1       0.189  -5.368  -0.004  0.00  0.00     0.006 SA
ENDROOT
BRANCH   1   7
ATOM      7  C   UNL d   1      -0.567  -2.734  -0.182  0.00  0.00     0.139 C 
ATOM      8  N   UNL d   1      -1.657  -2.988   0.496  0.00  0.00    -0.252 N 
ATOM      9  HN  UNL d   1      -1.786  -3.810   1.087  1.00  0.00     0.196 HD
BRANCH   8  10
ATOM     10  O   UNL d   1      -2.628  -1.989   0.310  0.00  0.00    -0.288 OA
ATOM     11  H   UNL d   1      -3.388  -2.349   0.805  0.00  0.00     0.244 HD
ENDBRANCH   8  10
BRANCH   7  12
ATOM     12  N   UNL d   1      -0.488  -1.611  -0.970  0.00  0.00    -0.383 N 
ATOM     13  H   UNL d   1       0.421  -1.196  -1.127  0.00  0.00     0.157 HD
ATOM     14  H   UNL d   1      -1.231  -0.953  -0.755  0.00  0.00     0.157 HD
ENDBRANCH   7  12
ENDBRANCH   1   7
BRANCH   2  15
ATOM     15  C   UNL d   1       2.632  -2.279   0.100  0.00  0.00    -0.007 A 
ATOM     16  C   UNL d   1       2.177  -1.185   0.850  0.00  0.00     0.014 A 
ATOM     17  C   UNL d   1       2.900   0.010   0.872  0.00  0.00     0.001 A 
ATOM     18  C   UNL d   1       4.099   0.115   0.170  0.00  0.00     0.000 A 
ATOM     19  C   UNL d   1       4.581  -0.976  -0.548  0.00  0.00     0.001 A 
ATOM     20  C   UNL d   1       3.852  -2.167  -0.583  0.00  0.00     0.014 A 
ENDBRANCH   2  15
TORSDOF 4
