REMARK  2 active torsions:
REMARK  status: ('A' for Active; 'I' for Inactive)
REMARK       I    between atoms: C_13  and  N_1 
REMARK    1  A    between atoms: C_11  and  C_2 
REMARK    2  A    between atoms: C_14  and  C_5 
ROOT
ATOM      1  N   UNL d   1       2.667   4.534   1.254  0.00  0.00    -0.331 N 
ATOM      2  HN  UNL d   1       2.811   5.180   0.478  1.00  0.00     0.168 HD
ATOM      3  C   UNL d   1       2.799   4.754   2.524  0.00  0.00     0.162 A 
ATOM      4  C   UNL d   1       2.284   3.214   1.215  0.00  0.00     0.111 A 
ATOM      5  O   UNL d   1       2.549   3.727   3.369  0.00  0.00    -0.256 OA
ATOM      6  C   UNL d   1       2.212   2.657   2.598  0.00  0.00     0.316 A 
ATOM      7  C   UNL d   1       2.011   2.538   0.090  0.00  0.00     0.049 C 
ATOM      8  O   UNL d   1       1.956   1.540   2.994  0.00  0.00    -0.257 OA
ENDROOT
BRANCH   7   9
ATOM      9  C   UNL d   1       1.566   1.188   0.015  0.00  0.00    -0.005 A 
ATOM     10  C   UNL d   1       2.392   0.091  -0.011  0.00  0.00     0.112 A 
ATOM     11  N   UNL d   1       1.623  -1.066  -0.028  0.00  0.00    -0.292 N 
ATOM     12  C   UNL d   1       0.273  -0.668  -0.037  0.00  0.00     0.052 A 
ATOM     13  C   UNL d   1       2.082  -2.408  -0.039  0.00  0.00     0.224 C 
ATOM     14  C   UNL d   1       0.228   0.732  -0.027  0.00  0.00     0.003 A 
ATOM     15  C   UNL d   1      -0.919  -1.422  -0.043  0.00  0.00     0.031 A 
ATOM     16  C   UNL d   1      -1.024   1.385  -0.036  0.00  0.00     0.014 A 
ATOM     17  C   UNL d   1      -2.201   0.635  -0.047  0.00  0.00     0.001 A 
ATOM     18  C   UNL d   1      -2.146  -0.752  -0.046  0.00  0.00     0.002 A 
ATOM     19  O   UNL d   1       1.280  -3.337  -0.061  0.00  0.00    -0.273 OA
ATOM     20  C   UNL d   1       3.563  -2.651  -0.032  0.00  0.00     0.118 C 
ENDBRANCH   7   9
BRANCH   3  21
ATOM     21  C   UNL d   1       3.209   6.005   3.183  0.00  0.00     0.015 A 
ATOM     22  C   UNL d   1       3.442   7.146   2.408  0.00  0.00     0.016 A 
ATOM     23  C   UNL d   1       3.855   8.333   3.019  0.00  0.00     0.001 A 
ATOM     24  C   UNL d   1       4.036   8.384   4.401  0.00  0.00     0.000 A 
ATOM     25  C   UNL d   1       3.800   7.250   5.178  0.00  0.00     0.001 A 
ATOM     26  C   UNL d   1       3.386   6.063   4.572  0.00  0.00     0.016 A 
ENDBRANCH   3  21
TORSDOF 2
