REMARK  3 active torsions:
REMARK  status: ('A' for Active; 'I' for Inactive)
REMARK    1  A    between atoms: C_6  and  N_1 
REMARK    2  A    between atoms: C_11  and  C_4 
REMARK    3  A    between atoms: C_10  and  C_12 
REMARK       I    between atoms: N_21  and  C_11 
ROOT
ATOM      1  N   UNL d   1      -0.316  -1.126  -0.035  0.00  0.00    -0.256 N 
ATOM      2  N   UNL d   1       0.982  -0.745  -0.096  0.00  0.00    -0.297 N 
ATOM      3  HN  UNL d   1       1.796  -1.357  -0.133  1.00  0.00     0.187 HD
ATOM      4  C   UNL d   1      -0.319   1.115  -0.097  0.00  0.00     0.079 A 
ATOM      5  C   UNL d   1      -1.147  -0.005  -0.003  0.00  0.00     0.048 A 
ATOM      6  C   UNL d   1       0.987   0.587  -0.097  0.00  0.00     0.040 A 
ATOM      7  C   UNL d   1      -2.623  -0.012   0.221  0.00  0.00     0.071 C 
ATOM      8  C   UNL d   1       2.295   1.292  -0.108  0.00  0.00     0.071 C 
ENDROOT
BRANCH   1   9
ATOM      9  C   UNL d   1      -0.615  -2.523   0.037  0.00  0.00     0.100 A 
ATOM     10  C   UNL d   1       0.221  -3.397   0.776  0.00  0.00     0.065 A 
ATOM     11  C   UNL d   1      -0.076  -4.768   0.875  0.00  0.00     0.042 A 
ATOM     12 CL   UNL d   1       1.606  -2.917   1.710  0.00  0.00    -0.082 Cl
ATOM     13  C   UNL d   1      -1.219  -5.309   0.282  0.00  0.00     0.051 A 
ATOM     14  C   UNL d   1      -2.029  -4.458  -0.473  0.00  0.00     0.042 A 
ATOM     15  C   UNL d   1      -1.708  -3.097  -0.638  0.00  0.00     0.065 A 
ATOM     16 CL   UNL d   1      -2.604  -2.312  -1.894  0.00  0.00    -0.082 Cl
BRANCH  13  17
ATOM     17  C   UNL d   1      -1.523  -6.780   0.418  0.00  0.00     0.417 C 
ATOM     18  F   UNL d   1      -2.735  -7.131  -0.090  0.00  0.00    -0.166 F 
ATOM     19  F   UNL d   1      -0.607  -7.557  -0.221  0.00  0.00    -0.166 F 
ATOM     20  F   UNL d   1      -1.527  -7.191   1.715  0.00  0.00    -0.166 F 
ENDBRANCH  13  17
ENDBRANCH   1   9
BRANCH   4  21
ATOM     21  C   UNL d   1      -0.779   2.497  -0.139  0.00  0.00     0.253 C 
ATOM     22  O   UNL d   1      -1.869   2.836  -0.591  0.00  0.00    -0.268 OA
ATOM     23  N   UNL d   1       0.047   3.434   0.412  0.00  0.00    -0.366 N 
ATOM     24  H   UNL d   1       0.766   3.174   1.072  0.00  0.00     0.159 HD
ATOM     25  H   UNL d   1      -0.347   4.361   0.499  0.00  0.00     0.159 HD
ENDBRANCH   4  21
TORSDOF 3
