REMARK  6 active torsions:
REMARK  status: ('A' for Active; 'I' for Inactive)
REMARK    1  A    between atoms: N_2  and  C_1 
REMARK    2  A    between atoms: N_8  and  C_1 
REMARK    3  A    between atoms: C_3  and  N_2 
REMARK    4  A    between atoms: C_14  and  N_8 
REMARK    5  A    between atoms: O_12  and  C_15 
REMARK    6  A    between atoms: C_15  and  C_14 
ROOT
ATOM      1  N   UNL d   1       0.535   0.317   1.275  0.00  0.00    -0.333 N 
ATOM      2  H   UNL d   1       1.133   0.290   0.450  0.00  0.00     0.168 HD
ENDROOT
BRANCH   1   3
ATOM      3  C   UNL d   1      -0.733  -0.164   1.081  0.00  0.00     0.172 C 
ATOM      4  S   UNL d   1      -2.151   0.480   1.694  0.00  0.00    -0.041 SA
BRANCH   3   5
ATOM      5  N   UNL d   1      -0.836  -1.265   0.277  0.00  0.00    -0.365 N 
ATOM      6  H   UNL d   1      -1.792  -1.582   0.161  0.00  0.00     0.161 HD
BRANCH   5   7
ATOM      7  C   UNL d   1       0.218  -2.245   0.048  0.00  0.00     0.148 C 
BRANCH   7   8
ATOM      8  C   UNL d   1       1.071  -1.947  -1.183  0.00  0.00     0.183 C 
BRANCH   8   9
ATOM      9  O   UNL d   1       1.852  -0.766  -0.993  0.00  0.00    -0.399 OA
ATOM     10  H   UNL d   1       2.385  -0.663  -1.802  0.00  0.00     0.209 HD
ENDBRANCH   8   9
ENDBRANCH   7   8
ENDBRANCH   5   7
ENDBRANCH   3   5
ENDBRANCH   1   3
BRANCH   1  11
ATOM     11  C   UNL d   1       1.040   0.949   2.434  0.00  0.00     0.040 A 
ATOM     12  C   UNL d   1       1.998   1.977   2.352  0.00  0.00    -0.032 A 
ATOM     13  C   UNL d   1       2.590   2.448   3.540  0.00  0.00     0.051 A 
ATOM     14  C   UNL d   1       2.386   2.659   1.070  0.00  0.00     0.050 C 
ATOM     15  C   UNL d   1       2.224   1.919   4.772  0.00  0.00     0.117 A 
ATOM     16  C   UNL d   1       1.261   0.929   4.861  0.00  0.00     0.044 A 
ATOM     17  F   UNL d   1       2.812   2.371   5.887  0.00  0.00    -0.206 F 
ATOM     18  C   UNL d   1       0.669   0.447   3.694  0.00  0.00     0.033 A 
ENDBRANCH   1  11
TORSDOF 6
