REMARK  6 active torsions:
REMARK  status: ('A' for Active; 'I' for Inactive)
REMARK    1  A    between atoms: C_13  and  N_1 
REMARK    2  A    between atoms: C_14  and  C_4 
REMARK    3  A    between atoms: N_5  and  C_15 
REMARK    4  A    between atoms: C_16  and  C_7 
REMARK    5  A    between atoms: C_12  and  C_9 
REMARK    6  A    between atoms: O_23  and  C_12 
ROOT
ATOM      1  C   UNL d   1       2.208  -1.322  -0.120  0.00  0.00     0.056 A 
ATOM      2  C   UNL d   1       4.739  -2.599  -0.373  0.00  0.00     0.037 A 
ATOM      3  C   UNL d   1       3.321  -0.828   0.565  0.00  0.00     0.034 A 
ATOM      4  C   UNL d   1       2.393  -2.397  -0.977  0.00  0.00     0.034 A 
ATOM      5  C   UNL d   1       3.625  -3.041  -1.083  0.00  0.00     0.032 A 
ATOM      6  C   UNL d   1       4.566  -1.473   0.453  0.00  0.00     0.032 A 
ENDROOT
BRANCH   1   7
ATOM      7  N   UNL d   1       0.934  -0.700   0.025  0.00  0.00    -0.260 N 
ATOM      8  N   UNL d   1       0.918   0.637   0.284  0.00  0.00    -0.297 N 
ATOM      9  C   UNL d   1      -0.330   1.039   0.040  0.00  0.00     0.036 C 
ATOM     10  HN  UNL d   1       1.700   1.213   0.598  1.00  0.00     0.187 HD
ATOM     11  C   UNL d   1      -1.169  -0.075  -0.165  0.00  0.00     0.055 C 
ATOM     12  C   UNL d   1      -0.371  -1.211  -0.083  0.00  0.00     0.044 C 
BRANCH   9  13
ATOM     13  C   UNL d   1      -0.717   2.511   0.046  0.00  0.00    -0.007 C 
ATOM     14  C   UNL d   1       0.504   3.438   0.231  0.00  0.00     0.021 C 
ATOM     15  C   UNL d   1      -1.387   2.882  -1.295  0.00  0.00     0.021 C 
ATOM     16  C   UNL d   1      -1.711   2.800   1.189  0.00  0.00     0.021 C 
ENDBRANCH   9  13
BRANCH  12  17
ATOM     17  C   UNL d   1      -0.847  -2.674  -0.033  0.00  0.00    -0.007 C 
ATOM     18  C   UNL d   1      -0.010  -3.563   0.912  0.00  0.00     0.021 C 
ATOM     19  C   UNL d   1      -2.286  -2.736   0.563  0.00  0.00     0.021 C 
ATOM     20  C   UNL d   1      -0.995  -3.280  -1.445  0.00  0.00     0.021 C 
ENDBRANCH  12  17
ENDBRANCH   1   7
BRANCH   2  21
ATOM     21  N   UNL d   1       5.990  -3.245  -0.513  0.00  0.00    -0.317 N 
ATOM     22  C   UNL d   1       6.279  -4.331  -1.359  0.00  0.00     0.225 C 
ATOM     23  C   UNL d   1       7.737  -4.680  -1.196  0.00  0.00     0.120 C 
ATOM     24  O   UNL d   1       5.549  -4.968  -2.103  0.00  0.00    -0.273 OA
ATOM     25  C   UNL d   1       8.330  -3.480  -0.485  0.00  0.00     0.111 C 
ATOM     26  C   UNL d   1       7.154  -2.885   0.268  0.00  0.00     0.148 C 
BRANCH  25  27
ATOM     27  C   UNL d   1       8.922  -2.482  -1.461  0.00  0.00     0.145 C 
ATOM     28  O   UNL d   1       8.533  -1.337  -1.616  0.00  0.00    -0.650 OA
BRANCH  27  29
ATOM     29  O   UNL d   1       9.998  -2.961  -2.127  0.00  0.00    -0.776 OA
ATOM     30  H   UNL d   1      10.257  -3.877  -1.908  0.00  0.00     0.167 HD
ENDBRANCH  27  29
ENDBRANCH  25  27
ENDBRANCH   2  21
TORSDOF 6
