REMARK  7 active torsions:
REMARK  status: ('A' for Active; 'I' for Inactive)
REMARK    1  A    between atoms: C_2  and  C_1 
REMARK    2  A    between atoms: C_3  and  O_11 
REMARK    3  A    between atoms: C_6  and  O_13 
REMARK    4  A    between atoms: C_9  and  O_14 
REMARK    5  A    between atoms: C_16  and  O_11 
REMARK    6  A    between atoms: C_17  and  O_13 
REMARK    7  A    between atoms: C_18  and  O_14 
ROOT
ATOM      1  C   UNL d   1      -3.272  -1.426  -0.214  0.00  0.00     0.210 C 
ATOM      2  C   UNL d   1      -3.562  -0.664  -1.529  0.00  0.00     0.199 C 
ATOM      3  C   UNL d   1      -3.533   0.857  -1.329  0.00  0.00     0.196 C 
ATOM      4  O   UNL d   1      -4.092  -0.964   0.880  0.00  0.00    -0.374 OA
ATOM      5  C   UNL d   1      -4.393   1.255  -0.119  0.00  0.00     0.187 C 
ATOM      6  C   UNL d   1      -4.048   0.440   1.128  0.00  0.00     0.204 C 
ENDROOT
BRANCH   1   7
ATOM      7  C   UNL d   1      -1.808  -1.549   0.173  0.00  0.00     0.084 C 
ATOM      8  N   UNL d   1      -1.284  -1.350   1.368  0.00  0.00    -0.351 N 
ATOM      9  C   UNL d   1       0.002  -1.880   1.422  0.00  0.00     0.050 A 
ATOM     10  HN  UNL d   1      -1.754  -0.877   2.140  1.00  0.00     0.166 HD
ATOM     11  C   UNL d   1       0.832  -1.962   2.561  0.00  0.00     0.031 A 
ATOM     12  C   UNL d   1       0.472  -2.422   0.226  0.00  0.00     0.033 A 
ATOM     13  C   UNL d   1       2.065  -2.625   2.480  0.00  0.00     0.002 A 
ATOM     14  C   UNL d   1       2.495  -3.177   1.278  0.00  0.00     0.002 A 
ATOM     15  C   UNL d   1       1.717  -3.063   0.125  0.00  0.00     0.021 A 
ATOM     16  S   UNL d   1      -0.708  -2.197  -0.993  0.00  0.00    -0.072 SA
ENDBRANCH   1   7
BRANCH   2  17
ATOM     17  O   UNL d   1      -4.879  -1.035  -2.021  0.00  0.00    -0.310 OA
BRANCH  17  18
ATOM     18  C   UNL d   1      -4.937  -2.256  -2.628  0.00  0.00     0.255 C 
ATOM     19  O   UNL d   1      -3.981  -3.001  -2.790  0.00  0.00    -0.266 OA
ATOM     20  C   UNL d   1      -6.339  -2.598  -3.020  0.00  0.00     0.126 C 
ENDBRANCH  17  18
ENDBRANCH   2  17
BRANCH   3  21
ATOM     21  O   UNL d   1      -2.158   1.245  -1.142  0.00  0.00    -0.311 OA
BRANCH  21  22
ATOM     22  C   UNL d   1      -1.621   2.114  -2.040  0.00  0.00     0.255 C 
ATOM     23  O   UNL d   1      -2.216   2.601  -2.987  0.00  0.00    -0.266 OA
ATOM     24  C   UNL d   1      -0.205   2.437  -1.685  0.00  0.00     0.126 C 
ENDBRANCH  21  22
ENDBRANCH   3  21
BRANCH   5  25
ATOM     25  O   UNL d   1      -4.468   2.686   0.093  0.00  0.00    -0.311 OA
BRANCH  25  26
ATOM     26  C   UNL d   1      -3.436   3.364   0.655  0.00  0.00     0.255 C 
ATOM     27  O   UNL d   1      -2.378   2.884   1.033  0.00  0.00    -0.266 OA
ATOM     28  C   UNL d   1      -3.765   4.819   0.791  0.00  0.00     0.126 C 
ENDBRANCH  25  26
ENDBRANCH   5  25
TORSDOF 7
