REMARK  3 active torsions:
REMARK  status: ('A' for Active; 'I' for Inactive)
REMARK    1  A    between atoms: N_7  and  C_1 
REMARK    2  A    between atoms: C_14  and  N_2 
REMARK    3  A    between atoms: C_11  and  N_9 
ROOT
ATOM      1  C   UNL d   1      -0.094  -1.388  -0.047  0.00  0.00     0.096 C 
ATOM      2  N   UNL d   1       1.031   0.497   0.045  0.00  0.00    -0.259 N 
ATOM      3  N   UNL d   1      -0.273   0.852   0.230  0.00  0.00    -0.296 N 
ATOM      4  HN  UNL d   1      -0.642   1.781   0.432  1.00  0.00     0.187 HD
ATOM      5  C   UNL d   1       1.186  -0.881   0.014  0.00  0.00     0.060 C 
ATOM      6  C   UNL d   1      -0.961  -0.289   0.086  0.00  0.00     0.052 C 
ATOM      7  C   UNL d   1       2.477  -1.607   0.125  0.00  0.00     0.073 C 
ATOM      8  C   UNL d   1      -2.443  -0.286   0.110  0.00  0.00     0.072 C 
ENDROOT
BRANCH   1   9
ATOM      9  N   UNL d   1      -0.478  -2.735  -0.114  0.00  0.00    -0.296 N 
ATOM     10  N   UNL d   1       0.234  -3.375  -0.916  0.00  0.00    -0.297 N 
ATOM     11  HN  UNL d   1       0.941  -2.937  -1.507  1.00  0.00     0.187 HD
ATOM     12  HN  UNL d   1      -1.243  -3.141   0.425  1.00  0.00     0.187 HD
BRANCH  10  13
ATOM     13  C   UNL d   1      -0.029  -4.757  -0.926  0.00  0.00     0.086 A 
ATOM     14  C   UNL d   1      -1.314  -5.322  -0.901  0.00  0.00     0.147 A 
ATOM     15  C   UNL d   1      -1.504  -6.699  -1.004  0.00  0.00     0.086 A 
ATOM     16  F   UNL d   1      -2.401  -4.541  -0.801  0.00  0.00    -0.204 F 
ATOM     17  C   UNL d   1      -0.399  -7.526  -1.144  0.00  0.00     0.119 A 
ATOM     18  C   UNL d   1       0.890  -7.003  -1.164  0.00  0.00     0.045 A 
ATOM     19  F   UNL d   1      -0.573  -8.848  -1.272  0.00  0.00    -0.206 F 
ATOM     20  C   UNL d   1       1.070  -5.621  -1.056  0.00  0.00     0.037 A 
ENDBRANCH  10  13
ENDBRANCH   1   9
BRANCH   2  21
ATOM     21  C   UNL d   1       2.032   1.501  -0.060  0.00  0.00     0.056 A 
ATOM     22  C   UNL d   1       3.183   1.288  -0.831  0.00  0.00     0.031 A 
ATOM     23  C   UNL d   1       4.188   2.257  -0.870  0.00  0.00     0.002 A 
ATOM     24  C   UNL d   1       4.045   3.438  -0.147  0.00  0.00     0.000 A 
ATOM     25  C   UNL d   1       2.883   3.672   0.588  0.00  0.00     0.002 A 
ATOM     26  C   UNL d   1       1.865   2.716   0.616  0.00  0.00     0.031 A 
ENDBRANCH   2  21
TORSDOF 3
