REMARK  7 active torsions:
REMARK  status: ('A' for Active; 'I' for Inactive)
REMARK    1  A    between atoms: C_5  and  N_1 
REMARK    2  A    between atoms: C_10  and  C_5 
REMARK    3  A    between atoms: S_7  and  C_11 
REMARK    4  A    between atoms: C_8  and  S_7 
REMARK    5  A    between atoms: N_12  and  C_9 
REMARK    6  A    between atoms: C_11  and  C_10 
REMARK    7  A    between atoms: O_13  and  C_10 
ROOT
ATOM      1  C   UNL d   1      -1.205  -3.566   0.215  0.00  0.00     0.146 C 
ENDROOT
BRANCH   1   2
ATOM      2  C   UNL d   1      -2.020  -2.302  -0.095  0.00  0.00     0.161 C 
BRANCH   2   3
ATOM      3  N   UNL d   1      -2.814  -2.354  -1.317  0.00  0.00    -0.354 N 
ATOM      4  C   UNL d   1      -4.035  -2.980  -1.396  0.00  0.00     0.092 A 
ATOM      5  C   UNL d   1      -4.608  -2.660  -2.603  0.00  0.00     0.031 A 
ATOM      6  C   UNL d   1      -3.706  -1.807  -3.293  0.00  0.00    -0.008 A 
ATOM      7  C   UNL d   1      -2.575  -1.647  -2.481  0.00  0.00     0.044 A 
ATOM      8  C   UNL d   1      -3.761  -1.150  -4.538  0.00  0.00     0.014 A 
ATOM      9  C   UNL d   1      -1.484  -0.863  -2.893  0.00  0.00     0.030 A 
ATOM     10  C   UNL d   1      -1.561  -0.225  -4.138  0.00  0.00     0.002 A 
ATOM     11  C   UNL d   1      -2.685  -0.362  -4.949  0.00  0.00     0.001 A 
ENDBRANCH   2   3
ENDBRANCH   1   2
BRANCH   1  12
ATOM     12  C   UNL d   1      -0.392  -3.329   1.505  0.00  0.00     0.113 C 
BRANCH  12  13
ATOM     13  S   UNL d   1       0.472  -4.861   2.042  0.00  0.00    -0.126 SA
BRANCH  13  14
ATOM     14  C   UNL d   1       1.424  -4.245   3.438  0.00  0.00     0.021 A 
ATOM     15  C   UNL d   1       0.846  -3.651   4.579  0.00  0.00     0.022 A 
ATOM     16  C   UNL d   1       1.684  -3.115   5.565  0.00  0.00     0.024 A 
ATOM     17  C   UNL d   1       3.071  -3.294   5.503  0.00  0.00     0.002 A 
ATOM     18  C   UNL d   1       3.630  -3.979   4.432  0.00  0.00     0.001 A 
ATOM     19  C   UNL d   1       2.813  -4.442   3.398  0.00  0.00     0.020 A 
BRANCH  15  20
ATOM     20  N   UNL d   1      -0.540  -3.415   4.681  0.00  0.00    -0.302 NA
ATOM     21  H   UNL d   1      -1.069  -4.163   4.232  0.00  0.00     0.124 HD
ATOM     22  H   UNL d   1      -0.855  -3.261   5.635  0.00  0.00     0.124 HD
ENDBRANCH  15  20
ENDBRANCH  13  14
ENDBRANCH  12  13
ENDBRANCH   1  12
BRANCH   1  23
ATOM     23  O   UNL d   1      -2.100  -4.667   0.435  0.00  0.00    -0.393 OA
ATOM     24  H   UNL d   1      -1.577  -5.374   0.858  0.00  0.00     0.210 HD
ENDBRANCH   1  23
TORSDOF 7
