REMARK  3 active torsions:
REMARK  status: ('A' for Active; 'I' for Inactive)
REMARK    1  A    between atoms: C_12  and  C_1 
REMARK    2  A    between atoms: N_10  and  C_6 
REMARK    3  A    between atoms: N_11  and  C_7 
REMARK       I    between atoms: C_13  and  N_10 
REMARK       I    between atoms: C_14  and  N_11 
ROOT
ATOM      1  C   UNL d   1      -1.303  -0.173  -0.082  0.00  0.00     0.147 A 
ATOM      2  N   UNL d   1      -0.514  -1.245  -0.098  0.00  0.00    -0.174 N 
ATOM      3  HN  UNL d   1      -0.882  -2.196  -0.133  1.00  0.00     0.186 HD
ATOM      4  N   UNL d   1      -0.856   1.077  -0.072  0.00  0.00    -0.174 N 
ATOM      5  HN  UNL d   1      -1.490   1.876  -0.084  1.00  0.00     0.186 HD
ATOM      6  C   UNL d   1       0.787  -0.985  -0.064  0.00  0.00     0.701 A 
ATOM      7  C   UNL d   1       0.455   1.227  -0.046  0.00  0.00     0.701 A 
ATOM      8  N   UNL d   1       1.319   0.227  -0.009  0.00  0.00    -0.022 N 
ATOM      9  HN  UNL d   1       2.326   0.378   0.057  1.00  0.00     0.203 HD
ENDROOT
BRANCH   1  10
ATOM     10  C   UNL d   1      -2.773  -0.348  -0.106  0.00  0.00     0.015 A 
ATOM     11  C   UNL d   1      -3.466  -1.423   0.504  0.00  0.00    -0.048 A 
ATOM     12  C   UNL d   1      -2.805  -2.536   1.272  0.00  0.00     0.049 C 
ATOM     13  C   UNL d   1      -4.874  -1.488   0.405  0.00  0.00     0.007 A 
ATOM     14  C   UNL d   1      -5.603  -0.498  -0.250  0.00  0.00     0.001 A 
ATOM     15  C   UNL d   1      -4.942   0.571  -0.827  0.00  0.00     0.001 A 
ATOM     16  C   UNL d   1      -3.547   0.642  -0.756  0.00  0.00     0.016 A 
ENDBRANCH   1  10
BRANCH   6  17
ATOM     17  N   UNL d   1       1.581  -2.125  -0.067  0.00  0.00    -0.159 N 
ATOM     18  C   UNL d   1       2.948  -2.153  -0.166  0.00  0.00     0.231 C 
ATOM     19  O   UNL d   1       3.692  -1.190  -0.317  0.00  0.00    -0.273 OA
ATOM     20  C   UNL d   1       3.513  -3.551  -0.098  0.00  0.00     0.118 C 
ATOM     21  H   UNL d   1       1.046  -2.979  -0.059  0.00  0.00     0.187 HD
ENDBRANCH   6  17
BRANCH   7  22
ATOM     22  N   UNL d   1       1.019   2.496  -0.019  0.00  0.00    -0.159 N 
ATOM     23  C   UNL d   1       0.337   3.662  -0.261  0.00  0.00     0.231 C 
ATOM     24  O   UNL d   1      -0.831   3.766  -0.627  0.00  0.00    -0.273 OA
ATOM     25  C   UNL d   1       1.175   4.898  -0.065  0.00  0.00     0.118 C 
ATOM     26  H   UNL d   1       2.021   2.489   0.099  0.00  0.00     0.187 HD
ENDBRANCH   7  22
TORSDOF 3
