REMARK  0 active torsions:
REMARK  status: ('A' for Active; 'I' for Inactive)
REMARK       I    between atoms: C_4  and  N_1 
ROOT
ATOM      1  N   UNL d   1       2.949  -0.972  -1.413  0.00  0.00    -0.339 N 
ATOM      2  C   UNL d   1       3.565   0.409  -1.411  0.00  0.00     0.036 C 
ATOM      3  C   UNL d   1       2.169  -1.360  -0.233  0.00  0.00     0.166 C 
ATOM      4  C   UNL d   1       2.641  -1.803  -2.499  0.00  0.00     0.216 C 
ATOM      5  C   UNL d   1       0.724  -0.893  -0.330  0.00  0.00    -0.034 A 
ATOM      6  C   UNL d   1       2.451   1.496  -1.487  0.00  0.00     0.040 C 
ATOM      7  C   UNL d   1       0.360   0.467  -0.393  0.00  0.00    -0.046 A 
ATOM      8  C   UNL d   1       1.363   1.604  -0.395  0.00  0.00     0.017 C 
ATOM      9  O   UNL d   1       2.423  -3.009  -2.347  0.00  0.00    -0.274 OA
ATOM     10  C   UNL d   1       4.539   0.675  -2.615  0.00  0.00     0.031 C 
ATOM     11  C   UNL d   1       4.455   0.658  -0.137  0.00  0.00     0.031 C 
ATOM     12  C   UNL d   1       2.482  -1.234  -3.881  0.00  0.00     0.117 C 
ATOM     13  C   UNL d   1      -0.294  -1.867  -0.362  0.00  0.00     0.009 A 
ATOM     14  C   UNL d   1       1.825   1.931   1.025  0.00  0.00     0.015 C 
ATOM     15  C   UNL d   1      -1.008   0.809  -0.440  0.00  0.00     0.008 A 
ATOM     16  C   UNL d   1       5.782  -0.103  -0.100  0.00  0.00     0.002 C 
ATOM     17  C   UNL d   1       5.827  -0.147  -2.584  0.00  0.00     0.002 C 
ATOM     18  C   UNL d   1      -1.641  -1.509  -0.426  0.00  0.00     0.001 A 
ATOM     19  C   UNL d   1      -1.999  -0.169  -0.456  0.00  0.00     0.001 A 
ATOM     20  C   UNL d   1       6.623   0.179  -1.333  0.00  0.00     0.000 C 
ENDROOT
TORSDOF 0
