REMARK  3 active torsions:
REMARK  status: ('A' for Active; 'I' for Inactive)
REMARK    1  A    between atoms: C_9  and  N_6 
REMARK    2  A    between atoms: C_10  and  C_9 
REMARK    3  A    between atoms: C_12  and  C_10 
ROOT
ATOM      1  C   UNL d   1      -0.109  -1.372   0.042  0.00  0.00     0.709 A 
ATOM      2  N   UNL d   1       1.110  -0.917   0.354  0.00  0.00    -0.116 N 
ATOM      3  HN  UNL d   1       1.913  -1.415   0.737  1.00  0.00     0.207 HD
ATOM      4  N   UNL d   1      -0.955  -0.362  -0.346  0.00  0.00    -0.113 N 
ATOM      5  HN  UNL d   1      -1.939  -0.458  -0.596  1.00  0.00     0.203 HD
ATOM      6  N   UNL d   1       0.981   0.376   0.025  0.00  0.00    -0.196 N 
ATOM      7  N   UNL d   1      -0.251   0.763  -0.333  0.00  0.00     0.011 NA
ATOM      8  N   UNL d   1      -0.474  -2.668   0.027  0.00  0.00    -0.211 N 
ATOM      9  O   UNL d   1      -1.143  -5.417  -0.224  0.00  0.00    -0.388 OA
ATOM     10  C   UNL d   1       0.398  -3.694   0.602  0.00  0.00     0.167 C 
ATOM     11  C   UNL d   1      -1.874  -3.066  -0.113  0.00  0.00     0.167 C 
ATOM     12  C   UNL d   1       0.232  -5.001  -0.185  0.00  0.00     0.188 C 
ATOM     13  C   UNL d   1      -1.949  -4.408  -0.860  0.00  0.00     0.188 C 
ENDROOT
BRANCH   6  14
ATOM     14  C   UNL d   1       2.104   1.274   0.079  0.00  0.00     0.251 C 
BRANCH  14  15
ATOM     15  C   UNL d   1       2.907   1.209  -1.193  0.00  0.00     0.180 C 
ATOM     16  O   UNL d   1       2.638   1.937  -2.151  0.00  0.00    -0.290 OA
BRANCH  15  17
ATOM     17  C   UNL d   1       4.085   0.291  -1.299  0.00  0.00     0.011 A 
ATOM     18  C   UNL d   1       4.255  -0.842  -0.495  0.00  0.00     0.015 A 
ATOM     19  C   UNL d   1       5.367  -1.672  -0.669  0.00  0.00     0.001 A 
ATOM     20  C   UNL d   1       6.326  -1.367  -1.633  0.00  0.00     0.000 A 
ATOM     21  C   UNL d   1       6.172  -0.237  -2.431  0.00  0.00     0.001 A 
ATOM     22  C   UNL d   1       5.053   0.584  -2.271  0.00  0.00     0.015 A 
ENDBRANCH  15  17
ENDBRANCH  14  15
ENDBRANCH   6  14
TORSDOF 3
