REMARK  7 active torsions:
REMARK  status: ('A' for Active; 'I' for Inactive)
REMARK    1  A    between atoms: C_7  and  C_1 
REMARK    2  A    between atoms: C_3  and  C_2 
REMARK    3  A    between atoms: O_16  and  C_6 
REMARK    4  A    between atoms: O_22  and  C_7 
REMARK    5  A    between atoms: N_13  and  O_16 
REMARK    6  A    between atoms: C_23  and  C_20 
REMARK    7  A    between atoms: C_28  and  O_22 
ROOT
ATOM      1  N   UNL d   1      -6.410   8.819   0.026  0.00  0.00    -0.191 NA
ATOM      2  C   UNL d   1      -5.501   8.104  -0.018  0.00  0.00     0.099 C 
ATOM      3  C   UNL d   1      -4.372   7.214  -0.057  0.00  0.00     0.044 A 
ATOM      4  C   UNL d   1      -2.172   5.474  -0.069  0.00  0.00    -0.019 A 
ATOM      5  C   UNL d   1      -4.569   5.830  -0.125  0.00  0.00     0.023 A 
ATOM      6  C   UNL d   1      -3.068   7.725  -0.013  0.00  0.00     0.023 A 
ATOM      7  C   UNL d   1      -3.472   4.963  -0.131  0.00  0.00     0.014 A 
ATOM      8  C   UNL d   1      -1.968   6.857  -0.019  0.00  0.00     0.014 A 
ENDROOT
BRANCH   4   9
ATOM      9  C   UNL d   1      -1.008   4.563  -0.028  0.00  0.00     0.126 C 
ATOM     10  N   UNL d   1      -1.154   3.277  -0.025  0.00  0.00    -0.268 N 
ATOM     11  HN  UNL d   1      -2.048   2.786  -0.064  1.00  0.00     0.194 HD
BRANCH  10  12
ATOM     12  O   UNL d   1       0.113   2.659   0.040  0.00  0.00    -0.201 OA
BRANCH  12  13
ATOM     13  C   UNL d   1       0.007   1.264   0.048  0.00  0.00     0.247 A 
ATOM     14  N   UNL d   1      -1.191   0.666   0.021  0.00  0.00    -0.330 N 
ATOM     15  C   UNL d   1      -1.182  -0.684   0.008  0.00  0.00     0.111 A 
ATOM     16  HN  UNL d   1      -2.060   1.199   0.011  1.00  0.00     0.168 HD
ATOM     17  C   UNL d   1      -0.040  -1.470   0.029  0.00  0.00     0.086 A 
ATOM     18  C   UNL d   1       1.160  -0.776   0.042  0.00  0.00     0.137 A 
ATOM     19  N   UNL d   1       1.176   0.601   0.067  0.00  0.00    -0.316 N 
ATOM     20  HN  UNL d   1       2.060   1.109   0.100  1.00  0.00     0.169 HD
BRANCH  17  21
ATOM     21  C   UNL d   1      -0.268  -2.925  -0.020  0.00  0.00     0.296 C 
ATOM     22  O   UNL d   1      -1.219  -3.410  -0.611  0.00  0.00    -0.259 OA
BRANCH  21  23
ATOM     23  O   UNL d   1       0.622  -3.598   0.735  0.00  0.00    -0.318 OA
BRANCH  23  24
ATOM     24  C   UNL d   1       0.499  -5.035   0.725  0.00  0.00     0.174 C 
ATOM     25  C   UNL d   1       0.992  -5.639  -0.582  0.00  0.00     0.034 C 
ENDBRANCH  23  24
ENDBRANCH  21  23
ENDBRANCH  17  21
BRANCH  18  26
ATOM     26  C   UNL d   1       2.536  -1.411  -0.041  0.00  0.00     0.433 C 
ATOM     27  F   UNL d   1       2.597  -2.762  -0.154  0.00  0.00    -0.165 F 
ATOM     28  F   UNL d   1       3.233  -0.956  -1.126  0.00  0.00    -0.165 F 
ATOM     29  F   UNL d   1       3.310  -1.100   1.041  0.00  0.00    -0.165 F 
ENDBRANCH  18  26
ENDBRANCH  12  13
ENDBRANCH  10  12
ENDBRANCH   4   9
TORSDOF 7
