REMARK  2 active torsions:
REMARK  status: ('A' for Active; 'I' for Inactive)
REMARK    1  A    between atoms: S_8  and  C_3 
REMARK    2  A    between atoms: C_7  and  N_4 
ROOT
ATOM      1  N   UNL d   1       1.520  -0.006  -1.180  0.00  0.00    -0.346 N 
ATOM      2  HN  UNL d   1       1.525   0.020  -2.200  1.00  0.00     0.163 HD
ATOM      3  C   UNL d   1       2.531  -0.038  -0.351  0.00  0.00     0.156 A 
ATOM      4  N   UNL d   1       2.249  -0.090   0.990  0.00  0.00    -0.254 N 
ATOM      5  N   UNL d   1       0.849  -0.063   1.148  0.00  0.00    -0.202 NA
ATOM      6  C   UNL d   1       0.366  -0.017  -0.248  0.00  0.00     0.103 A 
ATOM      7  C   UNL d   1      -0.459   1.260  -0.485  0.00  0.00     0.049 C 
ATOM      8  C   UNL d   1      -0.495  -1.258  -0.563  0.00  0.00     0.049 C 
ATOM      9  C   UNL d   1      -1.806  -1.272   0.226  0.00  0.00     0.004 C 
ATOM     10  C   UNL d   1      -1.772   1.263   0.299  0.00  0.00     0.004 C 
ATOM     11  C   UNL d   1      -2.602   0.013   0.018  0.00  0.00     0.000 C 
ATOM     12  H   UNL d   1       0.554  -0.940   1.570  0.00  0.00     0.150 HD
ENDROOT
BRANCH   4  13
ATOM     13  C   UNL d   1       3.071   0.025   2.135  0.00  0.00     0.053 A 
ATOM     14  C   UNL d   1       4.202   0.852   2.170  0.00  0.00     0.031 A 
ATOM     15  C   UNL d   1       4.993   0.950   3.320  0.00  0.00     0.002 A 
ATOM     16  C   UNL d   1       4.668   0.222   4.460  0.00  0.00     0.000 A 
ATOM     17  C   UNL d   1       3.545  -0.597   4.457  0.00  0.00     0.002 A 
ATOM     18  C   UNL d   1       2.753  -0.687   3.308  0.00  0.00     0.031 A 
ENDBRANCH   4  13
BRANCH   3  19
ATOM     19  S   UNL d   1       4.125  -0.114  -1.041  0.00  0.00    -0.106 SA
ATOM     20  H   UNL d   1       3.702   0.005  -2.305  0.00  0.00     0.110 HD
ENDBRANCH   3  19
TORSDOF 2
