REMARK  6 active torsions:
REMARK  status: ('A' for Active; 'I' for Inactive)
REMARK    1  A    between atoms: O_7  and  C_1 
REMARK    2  A    between atoms: C_2  and  C_3 
REMARK       I    between atoms: N_8  and  C_2 
REMARK    3  A    between atoms: C_4  and  C_16 
REMARK    4  A    between atoms: C_5  and  C_17 
REMARK    5  A    between atoms: C_18  and  O_7 
REMARK    6  A    between atoms: C_16  and  N_8 
ROOT
ATOM      1  C   UNL d   1       3.427   4.847  -4.950  0.00  0.00     0.075 C 
ATOM      2  C   UNL d   1       2.218   4.261  -4.883  0.00  0.00     0.017 C 
ENDROOT
BRANCH   2   3
ATOM      3  C   UNL d   1       1.847   3.189  -3.942  0.00  0.00    -0.036 A 
ATOM      4  C   UNL d   1       2.380   3.103  -2.650  0.00  0.00     0.014 A 
ATOM      5  C   UNL d   1       1.989   2.082  -1.772  0.00  0.00     0.038 A 
ATOM      6  C   UNL d   1       1.079   1.113  -2.180  0.00  0.00     0.078 A 
ATOM      7  C   UNL d   1       0.491   1.229  -3.441  0.00  0.00     0.038 A 
ATOM      8  C   UNL d   1       0.871   2.258  -4.315  0.00  0.00     0.014 A 
BRANCH   6   9
ATOM      9  O   UNL d   1       0.630   0.071  -1.427  0.00  0.00    -0.255 OA
BRANCH   9  10
ATOM     10  C   UNL d   1       1.509  -0.556  -0.501  0.00  0.00     0.530 C 
ATOM     11  F   UNL d   1       2.769  -0.074  -0.505  0.00  0.00    -0.144 F 
ATOM     12  F   UNL d   1       1.573  -1.875  -0.794  0.00  0.00    -0.144 F 
ATOM     13  F   UNL d   1       1.003  -0.429   0.745  0.00  0.00    -0.144 F 
ENDBRANCH   9  10
ENDBRANCH   6   9
ENDBRANCH   2   3
BRANCH   1  14
ATOM     14  C   UNL d   1       3.676   5.917  -5.953  0.00  0.00     0.241 C 
ATOM     15  N   UNL d   1       4.933   6.461  -5.888  0.00  0.00    -0.351 N 
ATOM     16  H   UNL d   1       5.628   6.141  -5.226  0.00  0.00     0.163 HD
ATOM     17  O   UNL d   1       2.826   6.273  -6.761  0.00  0.00    -0.269 OA
BRANCH  15  18
ATOM     18  C   UNL d   1       5.322   7.496  -6.819  0.00  0.00     0.187 C 
BRANCH  18  19
ATOM     19  C   UNL d   1       6.706   7.987  -6.570  0.00  0.00     0.070 A 
ATOM     20  O   UNL d   1       7.461   7.359  -5.616  0.00  0.00    -0.325 OA
ATOM     21  C   UNL d   1       8.667   7.989  -5.590  0.00  0.00     0.142 A 
ATOM     22  C   UNL d   1       8.704   9.011  -6.512  0.00  0.00     0.027 A 
ATOM     23  C   UNL d   1       7.438   9.009  -7.145  0.00  0.00     0.036 A 
ENDBRANCH  18  19
ENDBRANCH  15  18
ENDBRANCH   1  14
TORSDOF 6
