REMARK  3 active torsions:
REMARK  status: ('A' for Active; 'I' for Inactive)
REMARK       I    between atoms: C_8  and  N_2 
REMARK    1  A    between atoms: C_17  and  C_8 
REMARK    2  A    between atoms: C_16  and  C_12 
REMARK    3  A    between atoms: C_13  and  C_21 
ROOT
ATOM      1  C   UNL d   1      -0.267  -1.176  -0.208  0.00  0.00     0.058 A 
ATOM      2  N   UNL d   1      -1.465  -3.383  -0.561  0.00  0.00    -0.219 N 
ATOM      3  C   UNL d   1      -0.379  -2.615  -0.156  0.00  0.00     0.080 C 
ATOM      4  S   UNL d   1       1.291  -0.467  -0.406  0.00  0.00    -0.067 SA
ATOM      5  C   UNL d   1       0.638   1.099  -0.191  0.00  0.00     0.092 A 
ATOM      6  N   UNL d   1      -0.670   1.133  -0.054  0.00  0.00    -0.352 N 
ATOM      7  HN  UNL d   1      -1.221   1.987   0.039  1.00  0.00     0.166 HD
ATOM      8  C   UNL d   1      -2.567  -3.022  -1.351  0.00  0.00     0.277 C 
ATOM      9  C   UNL d   1      -1.203  -0.154  -0.053  0.00  0.00     0.025 A 
ATOM     10  C   UNL d   1       1.434   2.300  -0.118  0.00  0.00     0.039 A 
ATOM     11  S   UNL d   1       3.144   2.285  -0.156  0.00  0.00    -0.086 SA
ATOM     12  C   UNL d   1       3.269   3.981   0.046  0.00  0.00     0.022 A 
ATOM     13  N   UNL d   1      -1.345  -4.683  -0.157  0.00  0.00    -0.302 N 
ATOM     14  HN  UNL d   1      -2.050  -5.418  -0.196  1.00  0.00     0.186 HD
ATOM     15  C   UNL d   1       0.964   3.593   0.022  0.00  0.00     0.023 A 
ATOM     16  C   UNL d   1       2.015   4.557   0.122  0.00  0.00     0.021 A 
ATOM     17  C   UNL d   1       0.542  -3.526   0.338  0.00  0.00     0.052 C 
ATOM     18  C   UNL d   1      -0.097  -4.771   0.300  0.00  0.00     0.110 C 
ATOM     19  O   UNL d   1      -2.372  -2.186  -2.236  0.00  0.00    -0.265 OA
ATOM     20  C   UNL d   1      -2.671  -0.231   0.184  0.00  0.00     0.070 C 
ENDROOT
BRANCH   8  21
ATOM     21  C   UNL d   1      -3.948  -3.549  -1.145  0.00  0.00     0.035 A 
ATOM     22  C   UNL d   1      -4.343  -4.140   0.066  0.00  0.00     0.033 A 
ATOM     23  C   UNL d   1      -5.676  -4.540   0.266  0.00  0.00     0.048 A 
ATOM     24  C   UNL d   1      -6.609  -4.331  -0.761  0.00  0.00     0.016 A 
ATOM     25  C   UNL d   1      -6.225  -3.724  -1.956  0.00  0.00     0.002 A 
ATOM     26  C   UNL d   1      -4.901  -3.329  -2.146  0.00  0.00     0.017 A 
BRANCH  23  27
ATOM     27  C   UNL d   1      -6.117  -5.176   1.563  0.00  0.00     0.417 C 
ATOM     28  F   UNL d   1      -5.129  -5.249   2.498  0.00  0.00    -0.166 F 
ATOM     29  F   UNL d   1      -7.135  -4.491   2.154  0.00  0.00    -0.166 F 
ATOM     30  F   UNL d   1      -6.569  -6.448   1.393  0.00  0.00    -0.166 F 
ENDBRANCH  23  27
ENDBRANCH   8  21
BRANCH  12  31
ATOM     31  C   UNL d   1       4.565   4.614   0.132  0.00  0.00     0.021 A 
ATOM     32  S   UNL d   1       4.809   6.072   1.006  0.00  0.00    -0.101 SA
ATOM     33  C   UNL d   1       6.488   6.070   0.684  0.00  0.00     0.050 A 
ATOM     34  C   UNL d   1       6.864   4.999  -0.092  0.00  0.00     0.008 A 
ATOM     35  C   UNL d   1       5.756   4.164  -0.413  0.00  0.00     0.021 A 
ENDBRANCH  12  31
TORSDOF 3
