REMARK  2 active torsions:
REMARK  status: ('A' for Active; 'I' for Inactive)
REMARK    1  A    between atoms: N_4  and  C_12 
REMARK    2  A    between atoms: C_14  and  C_9 
ROOT
ATOM      1  C   UNL d   1      -6.086  -2.019  -0.110  0.00  0.00     0.039 A 
ATOM      2  C   UNL d   1      -3.279  -1.988   0.002  0.00  0.00    -0.035 A 
ATOM      3  C   UNL d   1      -5.410  -2.658   0.939  0.00  0.00     0.031 A 
ATOM      4  C   UNL d   1      -5.341  -1.389  -1.115  0.00  0.00     0.031 A 
ATOM      5  C   UNL d   1      -4.015  -2.622   1.005  0.00  0.00     0.013 A 
ATOM      6  C   UNL d   1      -3.941  -1.390  -1.069  0.00  0.00     0.013 A 
ENDROOT
BRANCH   2   7
ATOM      7  C   UNL d   1      -1.823  -1.953   0.087  0.00  0.00     0.029 C 
ATOM      8  C   UNL d   1      -1.001  -2.914  -0.350  0.00  0.00     0.045 A 
ATOM      9  C   UNL d   1       0.479  -2.813  -0.096  0.00  0.00     0.257 A 
ATOM     10  C   UNL d   1      -1.241  -4.192  -1.031  0.00  0.00     0.006 A 
ATOM     11  N   UNL d   1       1.006  -3.998  -0.578  0.00  0.00    -0.322 N 
ATOM     12  O   UNL d   1       1.080  -1.897   0.429  0.00  0.00    -0.267 OA
ATOM     13  C   UNL d   1       0.013  -4.810  -1.127  0.00  0.00     0.046 A 
ATOM     14  H   UNL d   1       1.988  -4.214  -0.537  0.00  0.00     0.169 HD
ATOM     15  C   UNL d   1       0.191  -6.051  -1.704  0.00  0.00     0.030 A 
ATOM     16  C   UNL d   1      -0.940  -6.680  -2.223  0.00  0.00     0.002 A 
ATOM     17  C   UNL d   1      -2.203  -6.064  -2.157  0.00  0.00     0.001 A 
ATOM     18  C   UNL d   1      -2.360  -4.810  -1.558  0.00  0.00     0.015 A 
ENDBRANCH   2   7
BRANCH   1  19
ATOM     19  N   UNL d   1      -7.518  -1.976  -0.132  0.00  0.00    -0.320 N 
ATOM     20  C   UNL d   1      -8.338  -2.049  -1.265  0.00  0.00     0.013 A 
ATOM     21  C   UNL d   1      -9.653  -1.920  -0.861  0.00  0.00     0.027 A 
ATOM     22  C   UNL d   1      -7.901  -2.312  -2.668  0.00  0.00     0.068 C 
ATOM     23  C   UNL d   1      -9.668  -1.800   0.533  0.00  0.00     0.027 A 
ATOM     24  C   UNL d   1      -8.359  -1.819   0.978  0.00  0.00     0.013 A 
ATOM     25  C   UNL d   1      -7.943  -1.591   2.394  0.00  0.00     0.068 C 
ENDBRANCH   1  19
TORSDOF 2
