REMARK  4 active torsions:
REMARK  status: ('A' for Active; 'I' for Inactive)
REMARK    1  A    between atoms: C_2  and  S_1 
REMARK    2  A    between atoms: O_3  and  S_1 
REMARK    3  A    between atoms: C_17  and  O_3 
REMARK    4  A    between atoms: C_5  and  C_11 
ROOT
ATOM      1  O   UNL d   1       0.478   1.145  -0.900  0.00  0.00    -0.229 OA
ENDROOT
BRANCH   1   2
ATOM      2  S   UNL d   1       1.472  -0.050  -1.389  0.00  0.00     0.303 S 
ATOM      3  O   UNL d   1       1.775   0.141  -2.795  0.00  0.00    -0.193 OA
ATOM      4  O   UNL d   1       2.525  -0.253  -0.411  0.00  0.00    -0.193 OA
BRANCH   2   5
ATOM      5  C   UNL d   1       0.438  -1.504  -1.274  0.00  0.00     0.088 A 
ATOM      6  C   UNL d   1      -0.048  -1.884  -0.017  0.00  0.00     0.051 A 
ATOM      7  C   UNL d   1      -0.815  -3.049   0.102  0.00  0.00     0.057 A 
ATOM      8 CL   UNL d   1      -1.386  -3.476   1.674  0.00  0.00    -0.083 Cl
ATOM      9  C   UNL d   1      -1.092  -3.825  -1.034  0.00  0.00     0.055 A 
ATOM     10  C   UNL d   1      -0.599  -3.432  -2.284  0.00  0.00     0.027 A 
ATOM     11 CL   UNL d   1      -2.022  -5.279  -0.956  0.00  0.00    -0.083 Cl
ATOM     12  C   UNL d   1       0.167  -2.272  -2.408  0.00  0.00     0.027 A 
ENDBRANCH   2   5
ENDBRANCH   1   2
BRANCH   1  13
ATOM     13  C   UNL d   1       0.882   2.453  -0.818  0.00  0.00     0.089 A 
ATOM     14  C   UNL d   1      -0.137   3.398  -0.938  0.00  0.00     0.039 A 
ATOM     15  C   UNL d   1       0.133   4.760  -0.774  0.00  0.00     0.012 A 
ATOM     16  C   UNL d   1       1.430   5.207  -0.472  0.00  0.00    -0.035 A 
ATOM     17  C   UNL d   1       2.452   4.246  -0.383  0.00  0.00     0.012 A 
ATOM     18  C   UNL d   1       2.181   2.881  -0.553  0.00  0.00     0.039 A 
BRANCH  16  19
ATOM     19  C   UNL d   1       1.659   6.674  -0.173  0.00  0.00     0.141 C 
ATOM     20  S   UNL d   1       2.936   7.464  -1.190  0.00  0.00    -0.148 SA
ATOM     21  C   UNL d   1       3.323   8.753   0.021  0.00  0.00     0.085 C 
ATOM     22  C   UNL d   1       3.458   8.057   1.361  0.00  0.00     0.085 C 
ATOM     23  S   UNL d   1       2.029   6.961   1.596  0.00  0.00    -0.148 SA
ENDBRANCH  16  19
ENDBRANCH   1  13
TORSDOF 4
