REMARK  5 active torsions:
REMARK  status: ('A' for Active; 'I' for Inactive)
REMARK    1  A    between atoms: C_4  and  C_1 
REMARK    2  A    between atoms: C_10  and  C_5 
REMARK    3  A    between atoms: C_13  and  C_7 
REMARK    4  A    between atoms: O_14  and  C_13 
REMARK    5  A    between atoms: C_15  and  O_14 
ROOT
ATOM      1  C   UNL d   1       0.009  -2.629  -0.070  0.00  0.00     0.047 A 
ATOM      2  C   UNL d   1       0.467  -3.446   0.963  0.00  0.00    -0.014 A 
ATOM      3  S   UNL d   1      -0.801  -3.556  -1.280  0.00  0.00    -0.099 SA
ATOM      4  C   UNL d   1      -0.532  -5.021  -0.463  0.00  0.00     0.051 A 
ATOM      5  C   UNL d   1       0.160  -4.830   0.710  0.00  0.00     0.018 A 
ENDROOT
BRANCH   1   6
ATOM      6  C   UNL d   1       0.101  -1.185  -0.182  0.00  0.00     0.092 A 
ATOM      7  N   UNL d   1       0.142  -0.393   0.872  0.00  0.00    -0.352 N 
ATOM      8  C   UNL d   1       0.134   0.947   0.494  0.00  0.00     0.024 A 
ATOM      9  HN  UNL d   1       0.175  -0.720   1.838  1.00  0.00     0.166 HD
ATOM     10  C   UNL d   1       0.139   1.138  -0.877  0.00  0.00     0.077 A 
ATOM     11  S   UNL d   1       0.143  -0.360  -1.694  0.00  0.00    -0.081 SA
BRANCH   8  12
ATOM     12  C   UNL d   1       0.141   2.029   1.567  0.00  0.00    -0.008 C 
ATOM     13  C   UNL d   1       1.589   2.467   1.852  0.00  0.00     0.021 C 
ATOM     14  C   UNL d   1      -0.674   3.261   1.119  0.00  0.00     0.021 C 
ATOM     15  C   UNL d   1      -0.484   1.512   2.880  0.00  0.00     0.021 C 
ENDBRANCH   8  12
ENDBRANCH   1   6
BRANCH   2  16
ATOM     16  C   UNL d   1       1.214  -2.997   2.191  0.00  0.00     0.215 C 
BRANCH  16  17
ATOM     17  O   UNL d   1       2.625  -3.058   1.959  0.00  0.00    -0.347 OA
BRANCH  17  18
ATOM     18  C   UNL d   1       3.429  -2.731   3.015  0.00  0.00     0.069 A 
ATOM     19  C   UNL d   1       4.711  -3.286   2.974  0.00  0.00     0.038 A 
ATOM     20  C   UNL d   1       5.641  -3.006   3.979  0.00  0.00     0.026 A 
ATOM     21  C   UNL d   1       5.290  -2.154   5.021  0.00  0.00     0.034 A 
ATOM     22  C   UNL d   1       4.018  -1.587   5.068  0.00  0.00     0.026 A 
ATOM     23 CL   UNL d   1       6.434  -1.788   6.252  0.00  0.00    -0.084 Cl
ATOM     24  C   UNL d   1       3.086  -1.874   4.063  0.00  0.00     0.038 A 
ENDBRANCH  17  18
ENDBRANCH  16  17
ENDBRANCH   2  16
TORSDOF 5
