REMARK  7 active torsions:
REMARK  status: ('A' for Active; 'I' for Inactive)
REMARK    1  A    between atoms: N_2  and  S_1 
REMARK    2  A    between atoms: C_8  and  S_1 
REMARK    3  A    between atoms: C_3  and  N_2 
REMARK       I    between atoms: C_12  and  N_13 
REMARK    4  A    between atoms: C_18  and  C_12 
REMARK    5  A    between atoms: N_13  and  C_19 
REMARK    6  A    between atoms: S_14  and  C_18 
REMARK    7  A    between atoms: C_20  and  S_14 
ROOT
ATOM      1  C   UNL d   1       0.545  -0.627  -1.527  0.00  0.00     0.075 A 
ATOM      2  C   UNL d   1       0.677  -1.990  -1.802  0.00  0.00     0.027 A 
ATOM      3  C   UNL d   1      -0.053   0.225  -2.455  0.00  0.00     0.027 A 
ATOM      4  C   UNL d   1      -0.307  -1.638  -3.998  0.00  0.00     0.034 A 
ATOM      5  C   UNL d   1       0.242  -2.492  -3.033  0.00  0.00     0.031 A 
ATOM      6  C   UNL d   1      -0.469  -0.283  -3.692  0.00  0.00     0.031 A 
ENDROOT
BRANCH   4   7
ATOM      7  N   UNL d   1      -0.691  -2.208  -5.227  0.00  0.00    -0.327 N 
ATOM      8  C   UNL d   1      -1.040  -1.543  -6.391  0.00  0.00     0.231 C 
ATOM      9  O   UNL d   1      -0.934  -0.331  -6.574  0.00  0.00    -0.272 OA
ATOM     10  H   UNL d   1      -0.710  -3.221  -5.275  0.00  0.00     0.169 HD
BRANCH   8  11
ATOM     11  C   UNL d   1      -1.466  -2.453  -7.543  0.00  0.00     0.182 C 
BRANCH  11  12
ATOM     12  S   UNL d   1      -2.471  -3.856  -6.943  0.00  0.00    -0.121 SA
BRANCH  12  13
ATOM     13  C   UNL d   1      -2.776  -4.808  -8.422  0.00  0.00     0.001 A 
ATOM     14  C   UNL d   1      -2.887  -6.197  -8.266  0.00  0.00     0.020 A 
ATOM     15  C   UNL d   1      -3.211  -7.020  -9.348  0.00  0.00     0.025 A 
ATOM     16  C   UNL d   1      -3.430  -6.454 -10.600  0.00  0.00     0.034 A 
ATOM     17  C   UNL d   1      -3.320  -5.076 -10.774  0.00  0.00     0.025 A 
ATOM     18 CL   UNL d   1      -3.863  -7.458 -11.927  0.00  0.00    -0.084 Cl
ATOM     19  C   UNL d   1      -2.996  -4.253  -9.687  0.00  0.00     0.020 A 
ENDBRANCH  12  13
ENDBRANCH  11  12
ENDBRANCH   8  11
ENDBRANCH   4   7
BRANCH   1  20
ATOM     20  S   UNL d   1       1.042  -0.005   0.061  0.00  0.00     0.247 S 
ATOM     21  O   UNL d   1       0.314   1.222   0.302  0.00  0.00    -0.205 OA
ATOM     22  O   UNL d   1       0.987  -1.114   0.994  0.00  0.00    -0.205 OA
BRANCH  20  23
ATOM     23  N   UNL d   1       2.653   0.448  -0.232  0.00  0.00    -0.165 NA
ATOM     24  H   UNL d   1       2.680   1.456  -0.057  0.00  0.00     0.147 HD
BRANCH  23  25
ATOM     25  C   UNL d   1       3.629  -0.199   0.521  0.00  0.00     0.117 A 
ATOM     26  N   UNL d   1       4.158   0.364   1.606  0.00  0.00    -0.249 N 
ATOM     27  O   UNL d   1       5.064  -0.562   2.097  0.00  0.00    -0.241 OA
ATOM     28  HN  UNL d   1       3.942   1.283   1.993  1.00  0.00     0.196 HD
ATOM     29  C   UNL d   1       5.116  -1.631   1.256  0.00  0.00     0.075 A 
ATOM     30  C   UNL d   1       4.235  -1.434   0.221  0.00  0.00     0.079 A 
ATOM     31  C   UNL d   1       6.053  -2.708   1.622  0.00  0.00     0.079 C 
ENDBRANCH  23  25
ENDBRANCH  20  23
ENDBRANCH   1  20
TORSDOF 7
