REMARK  0 active torsions:
REMARK  status: ('A' for Active; 'I' for Inactive)
ROOT
ATOM      1  N   UNL d   1       0.732  -0.344  -0.002  0.00  0.00    -0.320 N 
ATOM      2  C   UNL d   1      -0.706  -0.365  -0.002  0.00  0.00     0.053 A 
ATOM      3  C   UNL d   1       1.404   0.916  -0.002  0.00  0.00     0.064 A 
ATOM      4  C   UNL d   1       1.501  -1.513  -0.002  0.00  0.00     0.097 A 
ATOM      5  C   UNL d   1      -1.426   0.842  -0.003  0.00  0.00     0.043 A 
ATOM      6  C   UNL d   1      -1.467  -1.551  -0.001  0.00  0.00     0.031 A 
ATOM      7  C   UNL d   1       0.769   2.109  -0.002  0.00  0.00     0.122 A 
ATOM      8  C   UNL d   1       2.885   0.869  -0.000  0.00  0.00     0.032 A 
ATOM      9  C   UNL d   1       2.842  -1.540  -0.001  0.00  0.00     0.018 A 
ATOM     10  C   UNL d   1      -0.709   2.130  -0.003  0.00  0.00     0.207 A 
ATOM     11  C   UNL d   1      -2.832   0.866  -0.002  0.00  0.00     0.018 A 
ATOM     12  C   UNL d   1      -2.869  -1.530   0.001  0.00  0.00     0.002 A 
ATOM     13  C   UNL d   1       3.559  -0.292  -0.000  0.00  0.00     0.004 A 
ATOM     14  O   UNL d   1      -1.335   3.186  -0.004  0.00  0.00    -0.286 OA
ATOM     15  C   UNL d   1      -3.552  -0.322   0.000  0.00  0.00     0.001 A 
ATOM     16  C   UNL d   1       1.437   3.366  -0.001  0.00  0.00     0.106 C 
ATOM     17  N   UNL d   1       2.038   4.360  -0.001  0.00  0.00    -0.191 NA
ENDROOT
TORSDOF 0
