REMARK  6 active torsions:
REMARK  status: ('A' for Active; 'I' for Inactive)
REMARK    1  A    between atoms: C_10  and  N_1 
REMARK    2  A    between atoms: C_8  and  C_2 
REMARK    3  A    between atoms: C_9  and  C_7 
REMARK    4  A    between atoms: O_17  and  C_9 
REMARK    5  A    between atoms: N_14  and  C_11 
REMARK    6  A    between atoms: C_12  and  N_14 
ROOT
ATOM      1  C   UNL d   1       2.459  -1.260   0.158  0.00  0.00     0.063 C 
ATOM      2  C   UNL d   1       2.686  -2.578   0.210  0.00  0.00     0.066 C 
ENDROOT
BRANCH   1   3
ATOM      3  C   UNL d   1       1.155  -0.734   0.288  0.00  0.00     0.139 A 
ATOM      4  N   UNL d   1       0.786   0.530  -0.187  0.00  0.00    -0.225 N 
ATOM      5  N   UNL d   1      -0.461   0.789   0.290  0.00  0.00     0.001 NA
ATOM      6  N   UNL d   1      -0.867  -0.308   0.903  0.00  0.00    -0.007 NA
ATOM      7  N   UNL d   1       0.109  -1.259   0.902  0.00  0.00    -0.270 N 
ATOM      8  HN  UNL d   1       0.045  -2.196   1.300  1.00  0.00     0.185 HD
BRANCH   4   9
ATOM      9  C   UNL d   1       1.442   1.486  -1.022  0.00  0.00     0.056 A 
ATOM     10  C   UNL d   1       2.576   1.175  -1.788  0.00  0.00     0.034 A 
ATOM     11  C   UNL d   1       3.206   2.162  -2.555  0.00  0.00     0.044 A 
ATOM     12  C   UNL d   1       2.685   3.447  -2.591  0.00  0.00     0.116 A 
ATOM     13  C   UNL d   1       1.537   3.767  -1.880  0.00  0.00     0.044 A 
ATOM     14  F   UNL d   1       3.290   4.385  -3.330  0.00  0.00    -0.206 F 
ATOM     15  C   UNL d   1       0.913   2.790  -1.098  0.00  0.00     0.034 A 
ENDBRANCH   4   9
ENDBRANCH   1   3
BRANCH   2  16
ATOM     16  N   UNL d   1       3.917  -3.175   0.032  0.00  0.00    -0.269 NA
ATOM     17  H   UNL d   1       4.569  -2.556  -0.473  0.00  0.00     0.133 HD
BRANCH  16  18
ATOM     18  C   UNL d   1       4.637  -3.778   1.107  0.00  0.00     0.029 A 
ATOM     19  C   UNL d   1       6.041  -3.927   1.034  0.00  0.00     0.059 A 
ATOM     20  C   UNL d   1       6.761  -4.485   2.102  0.00  0.00     0.020 A 
ATOM     21  C   UNL d   1       6.084  -4.957   3.226  0.00  0.00     0.001 A 
ATOM     22  C   UNL d   1       4.695  -4.878   3.281  0.00  0.00     0.002 A 
ATOM     23  C   UNL d   1       3.977  -4.304   2.228  0.00  0.00     0.025 A 
BRANCH  19  24
ATOM     24  C   UNL d   1       6.773  -3.397  -0.144  0.00  0.00     0.177 C 
ATOM     25  O   UNL d   1       6.430  -2.380  -0.725  0.00  0.00    -0.646 OA
BRANCH  24  26
ATOM     26  O   UNL d   1       7.809  -4.167  -0.537  0.00  0.00    -0.773 OA
ATOM     27  H   UNL d   1       7.851  -5.044  -0.111  0.00  0.00     0.167 HD
ENDBRANCH  24  26
ENDBRANCH  19  24
ENDBRANCH  16  18
ENDBRANCH   2  16
TORSDOF 6
