REMARK  3 active torsions:
REMARK  status: ('A' for Active; 'I' for Inactive)
REMARK    1  A    between atoms: C_22  and  N_5 
REMARK    2  A    between atoms: C_15  and  C_9 
REMARK    3  A    between atoms: C_14  and  C_16 
ROOT
ATOM      1  C   UNL d   1      -0.337  -1.362   0.093  0.00  0.00     0.123 A 
ATOM      2  C   UNL d   1      -0.518  -2.775   0.123  0.00  0.00     0.202 A 
ATOM      3  N   UNL d   1      -0.264  -3.529   1.170  0.00  0.00    -0.317 N 
ATOM      4  HN  UNL d   1       0.020  -3.238   2.106  1.00  0.00     0.169 HD
ATOM      5  N   UNL d   1      -1.080  -0.485  -0.658  0.00  0.00    -0.287 N 
ATOM      6  N   UNL d   1      -0.655   0.795  -0.565  0.00  0.00    -0.301 N 
ATOM      7  HN  UNL d   1      -1.028   1.613  -1.047  1.00  0.00     0.187 HD
ATOM      8  C   UNL d   1       0.583  -0.572   0.749  0.00  0.00     0.067 A 
ATOM      9  C   UNL d   1      -0.474  -4.803   0.702  0.00  0.00     0.138 A 
ATOM     10  C   UNL d   1       0.365   0.746   0.301  0.00  0.00     0.042 A 
ATOM     11  N   UNL d   1      -0.885  -4.853  -0.575  0.00  0.00    -0.242 N 
ATOM     12  HN  UNL d   1      -1.112  -5.676  -1.134  1.00  0.00     0.196 HD
ATOM     13  O   UNL d   1      -0.927  -3.515  -0.955  0.00  0.00    -0.215 OA
ATOM     14 BR   UNL d   1       1.924  -1.101   1.950  0.00  0.00    -0.046 Br
ATOM     15  C   UNL d   1       1.087   1.999   0.642  0.00  0.00     0.071 C 
ENDROOT
BRANCH   5  16
ATOM     16  C   UNL d   1      -2.279  -0.746  -1.437  0.00  0.00     0.145 C 
ATOM     17  C   UNL d   1      -1.986  -0.961  -2.911  0.00  0.00     0.028 C 
ENDBRANCH   5  16
BRANCH   9  18
ATOM     18  C   UNL d   1      -0.253  -5.978   1.532  0.00  0.00     0.011 A 
ATOM     19  C   UNL d   1      -0.460  -5.910   2.919  0.00  0.00     0.031 A 
ATOM     20  C   UNL d   1      -0.257  -7.035   3.736  0.00  0.00     0.048 A 
ATOM     21  C   UNL d   1       0.185  -8.230   3.147  0.00  0.00     0.016 A 
ATOM     22  C   UNL d   1       0.407  -8.303   1.772  0.00  0.00     0.002 A 
ATOM     23  C   UNL d   1       0.181  -7.185   0.967  0.00  0.00     0.015 A 
BRANCH  20  24
ATOM     24  C   UNL d   1      -0.515  -6.981   5.221  0.00  0.00     0.417 C 
ATOM     25  F   UNL d   1      -0.952  -5.767   5.658  0.00  0.00    -0.166 F 
ATOM     26  F   UNL d   1      -1.462  -7.878   5.614  0.00  0.00    -0.166 F 
ATOM     27  F   UNL d   1       0.596  -7.265   5.956  0.00  0.00    -0.166 F 
ENDBRANCH  20  24
ENDBRANCH   9  18
TORSDOF 3
