REMARK  7 active torsions:
REMARK  status: ('A' for Active; 'I' for Inactive)
REMARK    1  A    between atoms: C_5  and  C_1 
REMARK    2  A    between atoms: O_7  and  C_2 
REMARK    3  A    between atoms: C_3  and  C_10 
REMARK       I    between atoms: C_4  and  N_8 
REMARK       I    between atoms: N_13  and  C_4 
REMARK    4  A    between atoms: O_29  and  C_5 
REMARK    5  A    between atoms: N_8  and  C_6 
REMARK    6  A    between atoms: C_11  and  O_7 
REMARK    7  A    between atoms: C_15  and  N_13 
ROOT
ATOM      1  C   UNL d   1       1.980   3.401   0.699  0.00  0.00     0.071 C 
ATOM      2  C   UNL d   1       2.260   5.734   0.029  0.00  0.00     0.050 C 
ATOM      3  C   UNL d   1       2.079   3.020  -0.644  0.00  0.00     0.102 C 
ATOM      4  C   UNL d   1       2.014   4.764   1.018  0.00  0.00     0.048 C 
ATOM      5  C   UNL d   1       2.489   5.315  -1.289  0.00  0.00     0.019 C 
ATOM      6  C   UNL d   1       2.402   3.967  -1.623  0.00  0.00     0.040 C 
ENDROOT
BRANCH   1   7
ATOM      7  N   UNL d   1       1.760   2.503   1.756  0.00  0.00    -0.306 N 
ATOM      8  C   UNL d   1       2.402   1.336   2.092  0.00  0.00     0.325 C 
ATOM      9  N   UNL d   1       3.552   1.034   1.406  0.00  0.00    -0.309 N 
ATOM     10  O   UNL d   1       1.979   0.754   3.090  0.00  0.00    -0.247 OA
ATOM     11  H   UNL d   1       3.737   1.579   0.579  0.00  0.00     0.170 HD
ATOM     12  H   UNL d   1       1.260   2.848   2.568  0.00  0.00     0.171 HD
BRANCH   9  13
ATOM     13  C   UNL d   1       4.581   0.151   1.822  0.00  0.00     0.037 A 
ATOM     14  C   UNL d   1       4.488  -0.678   2.945  0.00  0.00     0.036 A 
ATOM     15  C   UNL d   1       5.581  -1.446   3.378  0.00  0.00    -0.059 A 
ATOM     16  C   UNL d   1       5.475  -2.299   4.610  0.00  0.00     0.048 C 
ATOM     17  C   UNL d   1       6.773  -1.413   2.650  0.00  0.00     0.013 A 
ATOM     18  C   UNL d   1       6.887  -0.604   1.513  0.00  0.00    -0.059 A 
ATOM     19  C   UNL d   1       5.785   0.165   1.102  0.00  0.00     0.036 A 
ATOM     20  C   UNL d   1       8.199  -0.552   0.784  0.00  0.00     0.048 C 
ENDBRANCH   9  13
ENDBRANCH   1   7
BRANCH   3  21
ATOM     21  O   UNL d   1       1.786   1.726  -1.013  0.00  0.00    -0.307 OA
BRANCH  21  22
ATOM     22  C   UNL d   1       0.909   1.486  -2.035  0.00  0.00     0.099 A 
ATOM     23  C   UNL d   1       0.949   0.305  -2.755  0.00  0.00     0.114 A 
ATOM     24  S   UNL d   1      -0.249   0.284  -3.987  0.00  0.00    -0.093 SA
ATOM     25  C   UNL d   1      -0.821   1.834  -3.563  0.00  0.00     0.053 A 
ATOM     26  C   UNL d   1      -0.151   2.344  -2.474  0.00  0.00     0.046 A 
BRANCH  23  27
ATOM     27  C   UNL d   1       1.831  -0.841  -2.634  0.00  0.00     0.302 C 
ATOM     28  O   UNL d   1       1.607  -1.967  -3.066  0.00  0.00    -0.259 OA
BRANCH  27  29
ATOM     29  O   UNL d   1       2.981  -0.477  -2.000  0.00  0.00    -0.322 OA
ATOM     30  C   UNL d   1       3.950  -1.511  -1.829  0.00  0.00     0.213 C 
ENDBRANCH  27  29
ENDBRANCH  23  27
ENDBRANCH  21  22
ENDBRANCH   3  21
BRANCH   2  31
ATOM     31  C   UNL d   1       2.287   7.205   0.359  0.00  0.00     0.417 C 
ATOM     32  F   UNL d   1       1.947   7.481   1.648  0.00  0.00    -0.166 F 
ATOM     33  F   UNL d   1       3.516   7.758   0.166  0.00  0.00    -0.166 F 
ATOM     34  F   UNL d   1       1.427   7.922  -0.416  0.00  0.00    -0.166 F 
ENDBRANCH   2  31
TORSDOF 7
