REMARK  3 active torsions:
REMARK  status: ('A' for Active; 'I' for Inactive)
REMARK    1  A    between atoms: C_2  and  N_1 
REMARK    2  A    between atoms: C_10  and  C_4 
REMARK    3  A    between atoms: C_6  and  C_7 
ROOT
ATOM      1  C   UNL d   1      -0.986  -6.006   1.753  0.00  0.00    -0.051 A 
ATOM      2  C   UNL d   1       0.113  -5.548   2.507  0.00  0.00     0.009 A 
ATOM      3  C   UNL d   1      -1.396  -5.209   0.670  0.00  0.00     0.009 A 
ATOM      4  C   UNL d   1       0.325  -3.566   1.132  0.00  0.00    -0.035 A 
ATOM      5  C   UNL d   1       0.759  -4.345   2.204  0.00  0.00     0.012 A 
ATOM      6  C   UNL d   1      -0.751  -4.006   0.362  0.00  0.00     0.012 A 
ENDROOT
BRANCH   4   7
ATOM      7  C   UNL d   1       1.001  -2.312   0.812  0.00  0.00     0.035 C 
ATOM      8  C   UNL d   1       2.007  -2.297  -0.071  0.00  0.00     0.168 C 
BRANCH   8   9
ATOM      9  N   UNL d   1       2.677  -1.057  -0.376  0.00  0.00    -0.127 N 
ATOM     10  O   UNL d   1       3.593  -1.132  -1.204  0.00  0.00    -0.532 OA
ATOM     11  O   UNL d   1       2.309  -0.021   0.192  0.00  0.00    -0.532 OA
ENDBRANCH   8   9
ENDBRANCH   4   7
BRANCH   1  12
ATOM     12  C   UNL d   1      -1.692  -7.321   2.130  0.00  0.00    -0.024 C 
ATOM     13  C   UNL d   1      -2.912  -7.643   1.238  0.00  0.00     0.019 C 
ATOM     14  C   UNL d   1      -0.704  -8.500   2.004  0.00  0.00     0.019 C 
ATOM     15  C   UNL d   1      -2.202  -7.246   3.586  0.00  0.00     0.019 C 
ENDBRANCH   1  12
TORSDOF 3
