REMARK  5 active torsions:
REMARK  status: ('A' for Active; 'I' for Inactive)
REMARK    1  A    between atoms: C_4  and  C_1 
REMARK    2  A    between atoms: N_6  and  C_2 
REMARK    3  A    between atoms: C_3  and  N_5 
REMARK    4  A    between atoms: N_7  and  C_3 
REMARK    5  A    between atoms: C_18  and  N_7 
ROOT
ATOM      1  N   UNL d   1      -2.468   5.028  -0.353  0.00  0.00    -0.356 N 
ATOM      2  N   UNL d   1      -0.925   2.624   0.013  0.00  0.00    -0.266 NA
ATOM      3  C   UNL d   1      -1.148   4.856  -0.985  0.00  0.00     0.140 C 
ATOM      4  C   UNL d   1      -2.665   4.174   0.839  0.00  0.00     0.140 C 
ATOM      5  C   UNL d   1      -2.285   2.699   0.596  0.00  0.00     0.117 C 
ATOM      6  C   UNL d   1      -0.852   3.370  -1.263  0.00  0.00     0.117 C 
ENDROOT
BRANCH   1   7
ATOM      7  C   UNL d   1      -3.100   6.257  -0.359  0.00  0.00     0.174 C 
ATOM      8  S   UNL d   1      -2.316   7.740  -0.311  0.00  0.00    -0.041 SA
BRANCH   7   9
ATOM      9  N   UNL d   1      -4.468   6.274  -0.344  0.00  0.00    -0.333 N 
ATOM     10  H   UNL d   1      -4.849   7.184  -0.107  0.00  0.00     0.168 HD
BRANCH   9  11
ATOM     11  C   UNL d   1      -5.401   5.322  -0.809  0.00  0.00     0.034 A 
ATOM     12  C   UNL d   1      -5.056   4.189  -1.553  0.00  0.00     0.032 A 
ATOM     13  C   UNL d   1      -6.038   3.296  -1.990  0.00  0.00     0.044 A 
ATOM     14  C   UNL d   1      -7.370   3.551  -1.701  0.00  0.00     0.116 A 
ATOM     15  C   UNL d   1      -7.738   4.687  -0.991  0.00  0.00     0.044 A 
ATOM     16  F   UNL d   1      -8.314   2.698  -2.123  0.00  0.00    -0.206 F 
ATOM     17  C   UNL d   1      -6.756   5.575  -0.552  0.00  0.00     0.032 A 
ENDBRANCH   9  11
ENDBRANCH   7   9
ENDBRANCH   1   7
BRANCH   2  18
ATOM     18  C   UNL d   1      -0.382   1.340  -0.036  0.00  0.00     0.097 A 
ATOM     19  C   UNL d   1       1.000   1.133  -0.088  0.00  0.00     0.086 A 
ATOM     20  C   UNL d   1       1.482  -0.189  -0.123  0.00  0.00     0.021 A 
ATOM     21  C   UNL d   1       0.603  -1.258  -0.068  0.00  0.00     0.018 A 
ATOM     22  C   UNL d   1      -0.743  -0.969   0.011  0.00  0.00     0.089 A 
ATOM     23  N   UNL d   1      -1.236   0.289   0.025  0.00  0.00    -0.356 N 
ATOM     24  HN  UNL d   1      -2.243   0.447   0.082  1.00  0.00     0.166 HD
BRANCH  19  25
ATOM     25  C   UNL d   1       1.999   2.255  -0.115  0.00  0.00     0.420 C 
ATOM     26  F   UNL d   1       1.606   3.429   0.450  0.00  0.00    -0.166 F 
ATOM     27  F   UNL d   1       3.163   1.930   0.526  0.00  0.00    -0.166 F 
ATOM     28  F   UNL d   1       2.377   2.567  -1.390  0.00  0.00    -0.166 F 
ENDBRANCH  19  25
ENDBRANCH   2  18
TORSDOF 5
