REMARK  5 active torsions:
REMARK  status: ('A' for Active; 'I' for Inactive)
REMARK    1  A    between atoms: C_2  and  C_1 
REMARK       I    between atoms: N_5  and  C_1 
REMARK    2  A    between atoms: C_3  and  C_2 
REMARK    3  A    between atoms: N_9  and  N_5 
REMARK    4  A    between atoms: C_12  and  C_8 
REMARK    5  A    between atoms: C_14  and  C_12 
ROOT
ATOM      1  C   UNL d   1      -0.518  -0.482   1.759  0.00  0.00    -0.045 A 
ATOM      2  C   UNL d   1      -0.289  -1.809   1.369  0.00  0.00     0.008 A 
ATOM      3  C   UNL d   1      -1.452  -0.231   2.773  0.00  0.00     0.008 A 
ATOM      4  C   UNL d   1      -1.889  -2.611   3.019  0.00  0.00    -0.058 A 
ATOM      5  C   UNL d   1      -2.125  -1.284   3.399  0.00  0.00     0.007 A 
ATOM      6  C   UNL d   1      -0.969  -2.860   1.992  0.00  0.00     0.007 A 
ENDROOT
BRANCH   1   7
ATOM      7  C   UNL d   1       0.270   0.668   1.153  0.00  0.00     0.108 C 
ATOM      8  C   UNL d   1       1.702   0.660   1.694  0.00  0.00     0.025 C 
BRANCH   7   9
ATOM      9  C   UNL d   1       0.256   0.701  -0.379  0.00  0.00     0.239 C 
ATOM     10  O   UNL d   1       1.263   0.853  -1.067  0.00  0.00    -0.271 OA
ATOM     11  N   UNL d   1      -1.018   0.644  -0.938  0.00  0.00    -0.293 N 
ATOM     12  H   UNL d   1      -1.794   0.282  -0.383  0.00  0.00     0.183 HD
BRANCH  11  13
ATOM     13  N   UNL d   1      -1.152   0.670  -2.347  0.00  0.00    -0.247 NA
ATOM     14  H   UNL d   1      -0.233   0.408  -2.735  0.00  0.00     0.143 HD
ATOM     15  H   UNL d   1      -1.253   1.650  -2.626  0.00  0.00     0.143 HD
ENDBRANCH  11  13
ENDBRANCH   7   9
ENDBRANCH   1   7
BRANCH   4  16
ATOM     16  C   UNL d   1      -2.546  -3.760   3.746  0.00  0.00     0.042 C 
BRANCH  16  17
ATOM     17  C   UNL d   1      -4.087  -3.746   3.749  0.00  0.00    -0.019 C 
ATOM     18  C   UNL d   1      -4.665  -3.899   2.341  0.00  0.00     0.010 C 
ATOM     19  C   UNL d   1      -4.609  -4.872   4.647  0.00  0.00     0.010 C 
ENDBRANCH  16  17
ENDBRANCH   4  16
TORSDOF 5
