REMARK  4 active torsions:
REMARK  status: ('A' for Active; 'I' for Inactive)
REMARK    1  A    between atoms: C_2  and  S_1 
REMARK    2  A    between atoms: N_8  and  S_1 
REMARK    3  A    between atoms: C_3  and  C_7 
REMARK    4  A    between atoms: C_14  and  N_8 
ROOT
ATOM      1  S   UNL d   1       0.808  -0.061  -0.040  0.00  0.00     0.252 S 
ATOM      2  O   UNL d   1      -0.066  -0.682  -1.014  0.00  0.00    -0.205 OA
ATOM      3  O   UNL d   1       2.245  -0.140  -0.166  0.00  0.00    -0.205 OA
ENDROOT
BRANCH   1   4
ATOM      4  C   UNL d   1       0.443  -0.914   1.485  0.00  0.00     0.116 A 
ATOM      5  S   UNL d   1      -1.181  -0.893   2.033  0.00  0.00    -0.075 SA
ATOM      6  C   UNL d   1      -0.799  -1.809   3.425  0.00  0.00     0.033 A 
ATOM      7  C   UNL d   1       0.531  -2.174   3.444  0.00  0.00     0.023 A 
ATOM      8  C   UNL d   1       1.246  -1.662   2.324  0.00  0.00     0.034 A 
BRANCH   6   9
ATOM      9  C   UNL d   1      -1.752  -2.188   4.523  0.00  0.00     0.056 A 
ATOM     10  N   UNL d   1      -1.290  -2.840   5.659  0.00  0.00    -0.353 N 
ATOM     11  C   UNL d   1      -2.278  -3.033   6.505  0.00  0.00     0.047 A 
ATOM     12  HN  UNL d   1      -0.324  -3.127   5.814  1.00  0.00     0.166 HD
ATOM     13  C   UNL d   1      -2.128  -3.669   7.843  0.00  0.00     0.076 C 
ATOM     14  S   UNL d   1      -3.819  -2.487   5.976  0.00  0.00    -0.087 SA
ATOM     15  C   UNL d   1      -3.106  -1.921   4.521  0.00  0.00     0.082 A 
ENDBRANCH   6   9
ENDBRANCH   1   4
BRANCH   1  16
ATOM     16  N   UNL d   1       0.326   1.560   0.059  0.00  0.00    -0.180 NA
ATOM     17  H   UNL d   1      -0.686   1.632  -0.016  0.00  0.00     0.146 HD
BRANCH  16  18
ATOM     18  C   UNL d   1       0.930   2.394   1.049  0.00  0.00     0.028 A 
ATOM     19  C   UNL d   1       2.165   3.026   0.839  0.00  0.00    -0.039 A 
ATOM     20  C   UNL d   1       2.707   3.812   1.873  0.00  0.00     0.015 A 
ATOM     21  C   UNL d   1       2.941   2.914  -0.445  0.00  0.00     0.050 C 
ATOM     22  C   UNL d   1       2.025   3.998   3.083  0.00  0.00    -0.061 A 
ATOM     23  C   UNL d   1       0.789   3.376   3.265  0.00  0.00     0.008 A 
ATOM     24  C   UNL d   1       2.616   4.865   4.155  0.00  0.00     0.048 C 
ATOM     25  C   UNL d   1       0.248   2.579   2.256  0.00  0.00     0.025 A 
ENDBRANCH  16  18
ENDBRANCH   1  16
TORSDOF 4
