REMARK  2 active torsions:
REMARK  status: ('A' for Active; 'I' for Inactive)
REMARK    1  A    between atoms: C_7  and  N_1 
REMARK    2  A    between atoms: C_2  and  C_8 
ROOT
ATOM      1  C   UNL d   1       0.182   1.223   0.193  0.00  0.00     0.103 A 
ATOM      2  C   UNL d   1      -0.110   3.511  -0.570  0.00  0.00     0.012 A 
ATOM      3  C   UNL d   1       0.608   2.305  -0.588  0.00  0.00     0.051 A 
ATOM      4  C   UNL d   1      -0.956   1.329   1.001  0.00  0.00     0.036 A 
ATOM      5  C   UNL d   1      -1.247   3.611   0.249  0.00  0.00     0.015 A 
ATOM      6  C   UNL d   1      -1.668   2.529   1.028  0.00  0.00     0.003 A 
ENDROOT
BRANCH   2   7
ATOM      7  C   UNL d   1       0.321   4.624  -1.409  0.00  0.00     0.137 A 
ATOM      8  N   UNL d   1       1.402   4.518  -2.259  0.00  0.00    -0.329 N 
ATOM      9  C   UNL d   1       1.429   5.697  -2.824  0.00  0.00     0.261 A 
ATOM     10  HN  UNL d   1       2.023   3.722  -2.410  1.00  0.00     0.168 HD
ATOM     11  O   UNL d   1       0.456   6.535  -2.392  0.00  0.00    -0.231 OA
ATOM     12  N   UNL d   1      -0.284   5.823  -1.447  0.00  0.00    -0.243 N 
ATOM     13  HN  UNL d   1      -1.094   6.138  -0.913  1.00  0.00     0.196 HD
ENDBRANCH   2   7
BRANCH   1  14
ATOM     14  N   UNL d   1       0.935  -0.037   0.157  0.00  0.00    -0.116 N 
ATOM     15  O   UNL d   1       1.933  -0.092  -0.575  0.00  0.00    -0.532 OA
ATOM     16  O   UNL d   1       0.527  -0.972   0.860  0.00  0.00    -0.532 OA
ENDBRANCH   1  14
TORSDOF 2
