REMARK  2 active torsions:
REMARK  status: ('A' for Active; 'I' for Inactive)
REMARK    1  A    between atoms: C_8  and  N_1 
REMARK    2  A    between atoms: C_10  and  C_8 
ROOT
ATOM      1  N   UNL d   1       1.276  -2.159   0.959  0.00  0.00    -0.246 N 
ATOM      2  C   UNL d   1       1.666  -3.015   1.965  0.00  0.00     0.210 A 
ATOM      3  N   UNL d   1      -0.098  -2.082   0.956  0.00  0.00    -0.223 N 
ATOM      4  HN  UNL d   1      -0.658  -1.532   0.304  1.00  0.00     0.210 HD
ATOM      5  N   UNL d   1      -0.559  -2.803   1.894  0.00  0.00    -0.226 N 
ATOM      6  HN  UNL d   1      -1.546  -2.922   2.123  1.00  0.00     0.210 HD
ATOM      7  N   UNL d   1       0.479  -3.392   2.544  0.00  0.00    -0.259 N 
ATOM      8  S   UNL d   1       3.162  -3.523   2.444  0.00  0.00    -0.038 SA
ATOM      9  H   UNL d   1       0.338  -4.035   3.308  0.00  0.00     0.191 HD
ENDROOT
BRANCH   1  10
ATOM     10  C   UNL d   1       2.061  -1.502  -0.067  0.00  0.00     0.191 C 
BRANCH  10  11
ATOM     11  C   UNL d   1       2.126  -2.314  -1.337  0.00  0.00    -0.038 A 
ATOM     12  C   UNL d   1       1.153  -2.159  -2.334  0.00  0.00     0.009 A 
ATOM     13  C   UNL d   1       1.187  -2.947  -3.488  0.00  0.00     0.007 A 
ATOM     14  C   UNL d   1       2.189  -3.908  -3.664  0.00  0.00    -0.062 A 
ATOM     15  C   UNL d   1       3.163  -4.062  -2.672  0.00  0.00     0.007 A 
ATOM     16  C   UNL d   1       2.191  -4.777  -4.886  0.00  0.00     0.048 C 
ATOM     17  C   UNL d   1       3.133  -3.272  -1.521  0.00  0.00     0.009 A 
ENDBRANCH  10  11
ENDBRANCH   1  10
TORSDOF 2
