REMARK  8 active torsions:
REMARK  status: ('A' for Active; 'I' for Inactive)
REMARK    1  A    between atoms: C_7  and  N_1 
REMARK    2  A    between atoms: C_6  and  C_4 
REMARK    3  A    between atoms: C_10  and  C_6 
REMARK    4  A    between atoms: C_13  and  C_7 
REMARK    5  A    between atoms: C_11  and  C_19 
REMARK    6  A    between atoms: C_16  and  C_13 
REMARK    7  A    between atoms: O_17  and  C_15 
REMARK    8  A    between atoms: C_19  and  O_17 
ROOT
ATOM      1  N   UNL d   1       0.182  -1.028  -0.007  0.00  0.00    -0.298 N 
ATOM      2  C   UNL d   1       0.947   0.119  -0.076  0.00  0.00     0.148 C 
ATOM      3  C   UNL d   1      -1.199  -0.831  -0.096  0.00  0.00     0.266 C 
ATOM      4  C   UNL d   1      -1.530   0.622  -0.048  0.00  0.00     0.076 C 
ATOM      5  S   UNL d   1      -0.089   1.548  -0.066  0.00  0.00    -0.055 SA
ATOM      6  S   UNL d   1       2.601   0.313  -0.170  0.00  0.00    -0.052 SA
ATOM      7  O   UNL d   1      -2.021  -1.718  -0.268  0.00  0.00    -0.266 OA
ENDROOT
BRANCH   4   8
ATOM      8  C   UNL d   1      -2.748   1.182   0.010  0.00  0.00     0.036 C 
BRANCH   8   9
ATOM      9  C   UNL d   1      -3.999   0.433   0.071  0.00  0.00    -0.032 A 
ATOM     10  C   UNL d   1      -4.554   0.102   1.314  0.00  0.00     0.048 A 
ATOM     11  C   UNL d   1      -5.742  -0.628   1.379  0.00  0.00     0.070 A 
ATOM     12  C   UNL d   1      -6.342  -1.074   0.197  0.00  0.00     0.037 A 
ATOM     13  C   UNL d   1      -5.797  -0.736  -1.040  0.00  0.00     0.004 A 
ATOM     14  C   UNL d   1      -4.634   0.025  -1.105  0.00  0.00     0.011 A 
BRANCH  11  15
ATOM     15  O   UNL d   1      -6.230  -0.851   2.642  0.00  0.00    -0.347 OA
BRANCH  15  16
ATOM     16  C   UNL d   1      -7.629  -1.129   2.699  0.00  0.00     0.202 C 
BRANCH  16  17
ATOM     17  C   UNL d   1      -8.118  -0.828   4.082  0.00  0.00    -0.011 C 
ATOM     18  C   UNL d   1      -9.030   0.115   4.359  0.00  0.00     0.009 C 
ENDBRANCH  16  17
ENDBRANCH  15  16
ENDBRANCH  11  15
ENDBRANCH   8   9
ENDBRANCH   4   8
BRANCH   1  19
ATOM     19  C   UNL d   1       0.638  -2.431  -0.129  0.00  0.00     0.138 C 
BRANCH  19  20
ATOM     20  C   UNL d   1       1.861  -2.857   0.693  0.00  0.00     0.059 C 
BRANCH  20  21
ATOM     21  C   UNL d   1       2.244  -4.323   0.626  0.00  0.00    -0.057 A 
ATOM     22  C   UNL d   1       3.608  -4.655   0.706  0.00  0.00     0.007 A 
ATOM     23  C   UNL d   1       4.028  -5.986   0.696  0.00  0.00     0.001 A 
ATOM     24  C   UNL d   1       3.089  -7.008   0.614  0.00  0.00     0.000 A 
ATOM     25  C   UNL d   1       1.733  -6.698   0.545  0.00  0.00     0.001 A 
ATOM     26  C   UNL d   1       1.310  -5.364   0.557  0.00  0.00     0.007 A 
ENDBRANCH  20  21
ENDBRANCH  19  20
ENDBRANCH   1  19
TORSDOF 8
