REMARK  6 active torsions:
REMARK  status: ('A' for Active; 'I' for Inactive)
REMARK    1  A    between atoms: C_6  and  C_1 
REMARK    2  A    between atoms: C_9  and  C_2 
REMARK    3  A    between atoms: S_5  and  C_10 
REMARK    4  A    between atoms: C_15  and  S_5 
REMARK       I    between atoms: N_17  and  C_9 
REMARK    5  A    between atoms: C_10  and  C_18 
REMARK    6  A    between atoms: C_18  and  N_17 
ROOT
ATOM      1  C   UNL d   1      -1.028  -0.690  -0.777  0.00  0.00     0.086 A 
ATOM      2  C   UNL d   1       0.012  -1.321  -0.009  0.00  0.00     0.092 A 
ATOM      3  N   UNL d   1      -0.878   0.645  -0.738  0.00  0.00    -0.259 N 
ATOM      4  HN  UNL d   1      -1.440   1.335  -1.237  1.00  0.00     0.195 HD
ATOM      5  O   UNL d   1       0.178   0.903   0.101  0.00  0.00    -0.241 OA
ATOM      6  C   UNL d   1       0.713  -0.264   0.537  0.00  0.00     0.090 A 
ATOM      7  C   UNL d   1       1.842  -0.120   1.478  0.00  0.00     0.080 C 
ENDROOT
BRANCH   2   8
ATOM      8  C   UNL d   1       0.258  -2.728   0.188  0.00  0.00     0.256 C 
ATOM      9  O   UNL d   1      -0.638  -3.517   0.454  0.00  0.00    -0.267 OA
ATOM     10  N   UNL d   1       1.564  -3.119  -0.056  0.00  0.00    -0.356 N 
ATOM     11  H   UNL d   1       2.235  -2.419  -0.344  0.00  0.00     0.162 HD
BRANCH  10  12
ATOM     12  C   UNL d   1       1.984  -4.519  -0.073  0.00  0.00     0.138 C 
BRANCH  12  13
ATOM     13  C   UNL d   1       1.217  -5.366  -1.076  0.00  0.00     0.165 C 
BRANCH  13  14
ATOM     14  S   UNL d   1       1.804  -7.039  -1.096  0.00  0.00     0.177 S 
ATOM     15  O   UNL d   1       3.125  -7.029  -1.697  0.00  0.00    -0.223 OA
ATOM     16  O   UNL d   1       1.583  -7.632   0.208  0.00  0.00    -0.223 OA
BRANCH  14  17
ATOM     17  C   UNL d   1       0.697  -7.855  -2.228  0.00  0.00     0.059 A 
ATOM     18  C   UNL d   1       1.191  -8.428  -3.403  0.00  0.00     0.023 A 
ATOM     19  C   UNL d   1       0.308  -9.060  -4.281  0.00  0.00     0.002 A 
ATOM     20  C   UNL d   1      -1.055  -9.115  -3.986  0.00  0.00     0.000 A 
ATOM     21  C   UNL d   1      -1.543  -8.546  -2.808  0.00  0.00     0.002 A 
ATOM     22  C   UNL d   1      -0.667  -7.919  -1.921  0.00  0.00     0.023 A 
ENDBRANCH  14  17
ENDBRANCH  13  14
ENDBRANCH  12  13
ENDBRANCH  10  12
ENDBRANCH   2   8
BRANCH   1  23
ATOM     23  C   UNL d   1      -2.107  -1.288  -1.576  0.00  0.00     0.037 A 
ATOM     24  C   UNL d   1      -3.449  -0.880  -1.414  0.00  0.00     0.048 A 
ATOM     25 CL   UNL d   1      -3.951   0.312  -0.257  0.00  0.00    -0.083 Cl
ATOM     26  C   UNL d   1      -4.476  -1.438  -2.192  0.00  0.00     0.025 A 
ATOM     27  C   UNL d   1      -4.199  -2.439  -3.116  0.00  0.00     0.003 A 
ATOM     28  C   UNL d   1      -2.885  -2.853  -3.295  0.00  0.00     0.025 A 
ATOM     29  C   UNL d   1      -1.845  -2.259  -2.563  0.00  0.00     0.048 A 
ATOM     30 CL   UNL d   1      -0.244  -2.715  -3.040  0.00  0.00    -0.083 Cl
ENDBRANCH   1  23
TORSDOF 6
