REMARK  6 active torsions:
REMARK  status: ('A' for Active; 'I' for Inactive)
REMARK    1  A    between atoms: O_8  and  N_1 
REMARK    2  A    between atoms: C_6  and  C_3 
REMARK    3  A    between atoms: N_12  and  C_3 
REMARK    4  A    between atoms: C_4  and  O_8 
REMARK    5  A    between atoms: C_5  and  C_4 
REMARK    6  A    between atoms: C_14  and  C_7 
ROOT
ATOM      1  N   UNL d   1      -0.482  -1.184  -1.134  0.00  0.00    -0.246 N 
ATOM      2  HN  UNL d   1      -0.597  -1.985  -1.755  1.00  0.00     0.196 HD
ATOM      3  C   UNL d   1      -1.208  -0.110  -1.192  0.00  0.00     0.109 C 
ENDROOT
BRANCH   1   4
ATOM      4  O   UNL d   1       0.484  -1.111  -0.110  0.00  0.00    -0.194 OA
BRANCH   4   5
ATOM      5  C   UNL d   1       0.980  -2.362   0.117  0.00  0.00     0.304 C 
ATOM      6  O   UNL d   1       0.336  -3.405   0.174  0.00  0.00    -0.258 OA
BRANCH   5   7
ATOM      7  C   UNL d   1       2.454  -2.360   0.254  0.00  0.00     0.085 C 
ATOM      8  C   UNL d   1       3.243  -1.296   0.035  0.00  0.00     0.017 C 
BRANCH   8   9
ATOM      9  C   UNL d   1       4.714  -1.351   0.007  0.00  0.00    -0.036 A 
ATOM     10  C   UNL d   1       5.409  -2.474  -0.465  0.00  0.00     0.011 A 
ATOM     11  C   UNL d   1       6.804  -2.462  -0.564  0.00  0.00     0.001 A 
ATOM     12  C   UNL d   1       7.519  -1.324  -0.204  0.00  0.00     0.000 A 
ATOM     13  C   UNL d   1       6.842  -0.198   0.257  0.00  0.00     0.001 A 
ATOM     14  C   UNL d   1       5.447  -0.209   0.358  0.00  0.00     0.011 A 
ENDBRANCH   8   9
ENDBRANCH   5   7
ENDBRANCH   4   5
ENDBRANCH   1   4
BRANCH   3  15
ATOM     15  C   UNL d   1      -2.143   0.026  -2.353  0.00  0.00     0.004 A 
ATOM     16  C   UNL d   1      -2.624  -1.118  -3.005  0.00  0.00     0.016 A 
ATOM     17  C   UNL d   1      -3.442  -0.989  -4.131  0.00  0.00     0.024 A 
ATOM     18  C   UNL d   1      -3.770   0.279  -4.608  0.00  0.00     0.034 A 
ATOM     19  C   UNL d   1      -3.294   1.422  -3.966  0.00  0.00     0.024 A 
ATOM     20 CL   UNL d   1      -4.755   0.437  -6.009  0.00  0.00    -0.084 Cl
ATOM     21  C   UNL d   1      -2.481   1.297  -2.836  0.00  0.00     0.016 A 
ENDBRANCH   3  15
BRANCH   3  22
ATOM     22  N   UNL d   1      -1.161   0.899  -0.256  0.00  0.00    -0.286 NA
ATOM     23  H   UNL d   1      -0.725   0.588   0.607  0.00  0.00     0.125 HD
ATOM     24  H   UNL d   1      -2.051   1.354  -0.077  0.00  0.00     0.125 HD
ENDBRANCH   3  22
TORSDOF 6
