REMARK  4 active torsions:
REMARK  status: ('A' for Active; 'I' for Inactive)
REMARK    1  A    between atoms: S_19  and  C_7 
REMARK    2  A    between atoms: C_18  and  C_8 
REMARK    3  A    between atoms: C_16  and  C_20 
REMARK    4  A    between atoms: C_20  and  S_19 
ROOT
ATOM      1  S   UNL d   1      -4.209   0.062   0.018  0.00  0.00    -0.086 SA
ENDROOT
BRANCH   1   2
ATOM      2  C   UNL d   1      -2.493  -0.132   0.006  0.00  0.00     0.145 A 
ATOM      3  N   UNL d   1      -1.757  -1.216   0.006  0.00  0.00    -0.334 N 
ATOM      4  C   UNL d   1      -0.438  -0.758   0.003  0.00  0.00     0.068 A 
ATOM      5  HN  UNL d   1      -2.078  -2.184   0.008  1.00  0.00     0.168 HD
ATOM      6  C   UNL d   1      -0.399   0.632   0.001  0.00  0.00     0.068 A 
ATOM      7  C   UNL d   1       0.778  -1.483   0.001  0.00  0.00    -0.026 A 
ATOM      8  N   UNL d   1      -1.726   0.995   0.003  0.00  0.00    -0.334 N 
ATOM      9  C   UNL d   1       0.776   1.400  -0.001  0.00  0.00    -0.026 A 
ATOM     10  H   UNL d   1      -2.089   1.934   0.003  0.00  0.00     0.168 HD
ATOM     11  C   UNL d   1       0.762   2.905  -0.005  0.00  0.00     0.051 C 
ATOM     12  C   UNL d   1       2.001   0.675   0.001  0.00  0.00    -0.047 A 
ATOM     13  C   UNL d   1       2.007  -0.747  -0.001  0.00  0.00    -0.047 A 
ATOM     14  C   UNL d   1       3.295   1.470   0.006  0.00  0.00     0.049 C 
ATOM     15  C   UNL d   1       3.337  -1.476  -0.004  0.00  0.00     0.049 C 
ATOM     16  C   UNL d   1       0.776  -2.988  -0.000  0.00  0.00     0.051 C 
ENDBRANCH   1   2
BRANCH   1  17
ATOM     17  C   UNL d   1      -4.843  -1.639  -0.020  0.00  0.00     0.169 C 
BRANCH  17  18
ATOM     18  C   UNL d   1      -6.340  -1.660   0.028  0.00  0.00     0.158 A 
ATOM     19  N   UNL d   1      -7.247  -1.212  -0.819  0.00  0.00    -0.322 N 
ATOM     20  C   UNL d   1      -8.443  -1.554  -0.206  0.00  0.00     0.137 A 
ATOM     21  HN  UNL d   1      -7.104  -0.733  -1.708  1.00  0.00     0.169 HD
ATOM     22  N   UNL d   1      -8.276  -2.201   0.960  0.00  0.00    -0.242 N 
ATOM     23  O   UNL d   1      -6.896  -2.269   1.117  0.00  0.00    -0.222 OA
ATOM     24  HN  UNL d   1      -8.996  -2.559   1.587  1.00  0.00     0.196 HD
BRANCH  20  25
ATOM     25  C   UNL d   1      -9.759  -1.244  -0.771  0.00  0.00     0.010 A 
ATOM     26  C   UNL d   1      -9.879  -0.543  -1.984  0.00  0.00     0.017 A 
ATOM     27  C   UNL d   1     -11.139  -0.243  -2.522  0.00  0.00     0.025 A 
ATOM     28  C   UNL d   1     -12.295  -0.642  -1.851  0.00  0.00     0.034 A 
ATOM     29  C   UNL d   1     -12.200  -1.337  -0.648  0.00  0.00     0.025 A 
ATOM     30 CL   UNL d   1     -13.839  -0.274  -2.509  0.00  0.00    -0.084 Cl
ATOM     31  C   UNL d   1     -10.941  -1.635  -0.113  0.00  0.00     0.017 A 
ENDBRANCH  20  25
ENDBRANCH  17  18
ENDBRANCH   1  17
TORSDOF 4
