REMARK  3 active torsions:
REMARK  status: ('A' for Active; 'I' for Inactive)
REMARK    1  A    between atoms: S_10  and  C_2 
REMARK    2  A    between atoms: N_11  and  C_3 
REMARK    3  A    between atoms: C_12  and  S_10 
ROOT
ATOM      1  C   UNL d   1       5.630   0.013   0.856  0.00  0.00    -0.107 C 
ATOM      2  C   UNL d   1       6.786  -0.298   0.947  0.00  0.00     0.013 C 
ATOM      3  C   UNL d   1       4.213   0.388   0.739  0.00  0.00     0.174 C 
ENDROOT
BRANCH   3   4
ATOM      4  S   UNL d   1       3.264  -0.932  -0.071  0.00  0.00    -0.091 SA
BRANCH   4   5
ATOM      5  C   UNL d   1       1.660  -0.248   0.006  0.00  0.00     0.130 A 
ATOM      6  S   UNL d   1       0.244  -1.210  -0.022  0.00  0.00    -0.027 SA
ATOM      7  C   UNL d   1      -0.659   0.246   0.095  0.00  0.00     0.159 A 
ATOM      8  N   UNL d   1       0.085   1.330   0.130  0.00  0.00    -0.279 N 
ATOM      9  N   UNL d   1       1.437   1.045   0.081  0.00  0.00    -0.286 N 
ATOM     10  HN  UNL d   1      -0.293   2.276   0.186  1.00  0.00     0.189 HD
ATOM     11  HN  UNL d   1       2.172   1.752   0.100  1.00  0.00     0.188 HD
BRANCH   7  12
ATOM     12  N   UNL d   1      -2.003   0.238   0.135  0.00  0.00    -0.379 N 
ATOM     13  H   UNL d   1      -2.494  -0.585  -0.192  0.00  0.00     0.158 HD
ATOM     14  H   UNL d   1      -2.469   1.116  -0.069  0.00  0.00     0.158 HD
ENDBRANCH   7  12
ENDBRANCH   4   5
ENDBRANCH   3   4
TORSDOF 3
