REMARK  3 active torsions:
REMARK  status: ('A' for Active; 'I' for Inactive)
REMARK    1  A    between atoms: O_4  and  C_3 
REMARK    2  A    between atoms: C_6  and  O_4 
REMARK    3  A    between atoms: N_10  and  C_7 
ROOT
ATOM      1  N   UNL d   1      -1.102   1.286  -0.818  0.00  0.00    -0.345 N 
ATOM      2  HN  UNL d   1      -1.636   1.989  -1.329  1.00  0.00     0.167 HD
ATOM      3  C   UNL d   1      -1.707   0.320  -0.093  0.00  0.00     0.148 A 
ATOM      4  C   UNL d   1       0.252   1.271  -0.829  0.00  0.00     0.113 A 
ATOM      5  C   UNL d   1       1.044   0.368  -0.121  0.00  0.00     0.021 A 
ATOM      6  C   UNL d   1      -1.018  -0.687   0.564  0.00  0.00     0.058 A 
ATOM      7  C   UNL d   1       0.376  -0.665   0.534  0.00  0.00     0.029 A 
ENDROOT
BRANCH   3   8
ATOM      8  O   UNL d   1      -3.093   0.269  -0.026  0.00  0.00    -0.294 OA
BRANCH   8   9
ATOM      9  C   UNL d   1      -3.788   1.455  -0.095  0.00  0.00     0.077 A 
ATOM     10  C   UNL d   1      -5.007   1.423  -0.777  0.00  0.00     0.039 A 
ATOM     11  C   UNL d   1      -5.796   2.573  -0.857  0.00  0.00     0.026 A 
ATOM     12  C   UNL d   1      -5.367   3.749  -0.242  0.00  0.00     0.034 A 
ATOM     13  C   UNL d   1      -4.166   3.781   0.463  0.00  0.00     0.026 A 
ATOM     14 CL   UNL d   1      -6.332   5.170  -0.349  0.00  0.00    -0.084 Cl
ATOM     15  C   UNL d   1      -3.382   2.628   0.549  0.00  0.00     0.039 A 
ENDBRANCH   8   9
ENDBRANCH   3   8
BRANCH   5  16
ATOM     16  N   UNL d   1       2.437   0.344  -0.249  0.00  0.00    -0.302 NA
ATOM     17  H   UNL d   1       2.848   1.250  -0.457  0.00  0.00     0.124 HD
ATOM     18  H   UNL d   1       2.913  -0.122   0.517  0.00  0.00     0.124 HD
ENDBRANCH   5  16
TORSDOF 3
