REMARK  3 active torsions:
REMARK  status: ('A' for Active; 'I' for Inactive)
REMARK    1  A    between atoms: C_8  and  C_1 
REMARK    2  A    between atoms: C_12  and  C_7 
REMARK    3  A    between atoms: C_9  and  C_11 
ROOT
ATOM      1  C   UNL d   1      -0.216  -1.070  -0.040  0.00  0.00     0.176 A 
ATOM      2  O   UNL d   1      -1.075  -0.007   0.006  0.00  0.00    -0.273 OA
ATOM      3  N   UNL d   1       1.048  -0.697   0.006  0.00  0.00    -0.277 N 
ATOM      4  HN  UNL d   1       1.864  -1.308   0.021  1.00  0.00     0.189 HD
ATOM      5  N   UNL d   1       1.049   0.683   0.029  0.00  0.00    -0.277 N 
ATOM      6  HN  UNL d   1       1.867   1.292   0.050  1.00  0.00     0.189 HD
ATOM      7  C   UNL d   1      -0.214   1.058   0.020  0.00  0.00     0.174 A 
ENDROOT
BRANCH   7   8
ATOM      8  C   UNL d   1      -0.798   2.392   0.020  0.00  0.00     0.017 A 
ATOM      9  C   UNL d   1      -2.189   2.595   0.007  0.00  0.00     0.032 A 
ATOM     10  C   UNL d   1      -2.734   3.892   0.021  0.00  0.00     0.048 A 
ATOM     11  C   UNL d   1      -1.867   4.993   0.043  0.00  0.00     0.016 A 
ATOM     12  C   UNL d   1      -0.486   4.806   0.045  0.00  0.00     0.002 A 
ATOM     13  C   UNL d   1       0.043   3.514   0.033  0.00  0.00     0.016 A 
BRANCH  10  14
ATOM     14  C   UNL d   1      -4.228   4.112   0.019  0.00  0.00     0.417 C 
ATOM     15  F   UNL d   1      -4.950   2.958  -0.026  0.00  0.00    -0.166 F 
ATOM     16  F   UNL d   1      -4.655   4.775   1.130  0.00  0.00    -0.166 F 
ATOM     17  F   UNL d   1      -4.644   4.855  -1.043  0.00  0.00    -0.166 F 
ENDBRANCH  10  14
ENDBRANCH   7   8
BRANCH   1  18
ATOM     18  C   UNL d   1      -0.776  -2.417  -0.092  0.00  0.00     0.038 A 
ATOM     19  C   UNL d   1      -2.033  -2.742  -0.636  0.00  0.00     0.050 A 
ATOM     20  C   UNL d   1      -2.462  -4.075  -0.694  0.00  0.00     0.048 A 
ATOM     21 CL   UNL d   1      -3.113  -1.572  -1.318  0.00  0.00    -0.083 Cl
ATOM     22  C   UNL d   1      -1.646  -5.096  -0.214  0.00  0.00     0.035 A 
ATOM     23  C   UNL d   1      -0.406  -4.800   0.338  0.00  0.00     0.025 A 
ATOM     24 CL   UNL d   1      -2.168  -6.730  -0.321  0.00  0.00    -0.084 Cl
ATOM     25  C   UNL d   1       0.025  -3.470   0.396  0.00  0.00     0.019 A 
ENDBRANCH   1  18
TORSDOF 3
