REMARK  2 active torsions:
REMARK  status: ('A' for Active; 'I' for Inactive)
REMARK    1  A    between atoms: C_3  and  C_1 
REMARK    2  A    between atoms: C_9  and  C_2 
ROOT
ATOM      1  C   UNL d   1       0.180   1.264   0.332  0.00  0.00    -0.029 A 
ATOM      2  C   UNL d   1      -0.196   2.152  -0.684  0.00  0.00     0.024 A 
ATOM      3  C   UNL d   1      -0.945   3.306  -0.395  0.00  0.00    -0.025 A 
ATOM      4  C   UNL d   1      -0.203   1.528   1.650  0.00  0.00     0.013 A 
ATOM      5  C   UNL d   1      -1.326   3.568   0.942  0.00  0.00    -0.026 A 
ATOM      6  C   UNL d   1      -0.948   2.670   1.952  0.00  0.00     0.013 A 
ATOM      7  C   UNL d   1      -1.325   4.207  -1.403  0.00  0.00     0.012 A 
ATOM      8  C   UNL d   1      -2.075   4.720   1.231  0.00  0.00     0.012 A 
ATOM      9  C   UNL d   1      -2.070   5.349  -1.099  0.00  0.00     0.001 A 
ATOM     10  C   UNL d   1      -2.444   5.605   0.217  0.00  0.00     0.001 A 
ENDROOT
BRANCH   1  11
ATOM     11  C   UNL d   1       0.963   0.057   0.019  0.00  0.00    -0.051 C 
ATOM     12  C   UNL d   1       0.297  -1.085  -0.233  0.00  0.00     0.019 C 
ATOM     13  C   UNL d   1       2.454   0.241   0.027  0.00  0.00     0.049 C 
BRANCH  12  14
ATOM     14  C   UNL d   1       0.937  -2.368  -0.530  0.00  0.00    -0.036 A 
ATOM     15  C   UNL d   1       1.264  -3.246   0.510  0.00  0.00     0.011 A 
ATOM     16  C   UNL d   1       1.880  -4.467   0.230  0.00  0.00     0.001 A 
ATOM     17  C   UNL d   1       2.172  -4.816  -1.088  0.00  0.00     0.000 A 
ATOM     18  C   UNL d   1       1.849  -3.943  -2.127  0.00  0.00     0.001 A 
ATOM     19  C   UNL d   1       1.233  -2.721  -1.850  0.00  0.00     0.011 A 
ENDBRANCH  12  14
ENDBRANCH   1  11
TORSDOF 2
