REMARK  6 active torsions:
REMARK  status: ('A' for Active; 'I' for Inactive)
REMARK    1  A    between atoms: C_3  and  C_1 
REMARK    2  A    between atoms: C_2  and  N_4 
REMARK       I    between atoms: N_4  and  C_5 
REMARK    3  A    between atoms: C_5  and  C_20 
REMARK    4  A    between atoms: S_16  and  C_22 
REMARK    5  A    between atoms: C_20  and  S_16 
REMARK    6  A    between atoms: C_22  and  C_19 
ROOT
ATOM      1  C   UNL d   1       4.172  -5.679   0.864  0.00  0.00     0.177 C 
ENDROOT
BRANCH   1   2
ATOM      2  C   UNL d   1       5.483  -5.350   1.561  0.00  0.00     0.231 C 
ATOM      3  N   UNL d   1       6.093  -4.158   1.218  0.00  0.00    -0.326 N 
ATOM      4  H   UNL d   1       5.563  -3.562   0.586  0.00  0.00     0.169 HD
ATOM      5  O   UNL d   1       5.902  -6.135   2.412  0.00  0.00    -0.272 OA
BRANCH   3   6
ATOM      6  C   UNL d   1       7.305  -3.651   1.742  0.00  0.00     0.037 A 
ATOM      7  C   UNL d   1       8.198  -4.416   2.500  0.00  0.00     0.053 A 
ATOM      8  C   UNL d   1       9.359  -3.840   3.022  0.00  0.00     0.037 A 
ATOM      9 CL   UNL d   1      10.443  -4.801   3.956  0.00  0.00    -0.084 Cl
ATOM     10  C   UNL d   1       9.652  -2.501   2.800  0.00  0.00     0.048 A 
ATOM     11  C   UNL d   1       8.777  -1.743   2.027  0.00  0.00     0.037 A 
ATOM     12  C   UNL d   1       7.618  -2.311   1.488  0.00  0.00     0.053 A 
ATOM     13 CL   UNL d   1       9.119  -0.079   1.750  0.00  0.00    -0.084 Cl
ENDBRANCH   3   6
ENDBRANCH   1   2
BRANCH   1  14
ATOM     14  S   UNL d   1       3.641  -4.528  -0.435  0.00  0.00    -0.155 SA
BRANCH  14  15
ATOM     15  C   UNL d   1       2.110  -5.404  -0.903  0.00  0.00     0.112 C 
BRANCH  15  16
ATOM     16  C   UNL d   1       1.352  -4.697  -1.997  0.00  0.00    -0.048 A 
ATOM     17  C   UNL d   1       1.546  -5.044  -3.344  0.00  0.00     0.024 A 
ATOM     18  C   UNL d   1       0.841  -4.390  -4.369  0.00  0.00     0.048 A 
ATOM     19  C   UNL d   1      -0.071  -3.380  -4.027  0.00  0.00     0.016 A 
ATOM     20  C   UNL d   1      -0.270  -3.028  -2.693  0.00  0.00     0.001 A 
ATOM     21  C   UNL d   1       0.440  -3.680  -1.685  0.00  0.00     0.008 A 
BRANCH  18  22
ATOM     22  C   UNL d   1       1.056  -4.745  -5.820  0.00  0.00     0.417 C 
ATOM     23  F   UNL d   1       1.940  -5.764  -6.008  0.00  0.00    -0.166 F 
ATOM     24  F   UNL d   1       1.536  -3.697  -6.546  0.00  0.00    -0.166 F 
ATOM     25  F   UNL d   1      -0.094  -5.132  -6.439  0.00  0.00    -0.166 F 
ENDBRANCH  18  22
ENDBRANCH  15  16
ENDBRANCH  14  15
ENDBRANCH   1  14
TORSDOF 6
