REMARK  2 active torsions:
REMARK  status: ('A' for Active; 'I' for Inactive)
REMARK    1  A    between atoms: C_9  and  C_4 
REMARK    2  A    between atoms: N_10  and  C_6 
ROOT
ATOM      1  C   UNL d   1       0.169   0.341   0.287  0.00  0.00     0.167 A 
ATOM      2  N   UNL d   1       1.288  -0.282   0.789  0.00  0.00    -0.324 N 
ATOM      3  HN  UNL d   1       1.828  -0.039   1.620  1.00  0.00     0.169 HD
ATOM      4  C   UNL d   1       1.494  -1.270  -0.062  0.00  0.00     0.161 A 
ATOM      5  O   UNL d   1       0.579  -1.334  -1.085  0.00  0.00    -0.274 OA
ATOM      6  C   UNL d   1      -0.267  -0.292  -0.854  0.00  0.00     0.181 A 
ATOM      7  C   UNL d   1      -0.411   1.480   0.912  0.00  0.00     0.122 C 
ATOM      8  N   UNL d   1      -0.906   2.408   1.404  0.00  0.00    -0.190 NA
ENDROOT
BRANCH   6   9
ATOM      9  N   UNL d   1      -1.268  -0.130  -1.730  0.00  0.00    -0.377 N 
ATOM     10  H   UNL d   1      -1.453  -0.849  -2.423  0.00  0.00     0.158 HD
ATOM     11  H   UNL d   1      -2.037   0.513  -1.566  0.00  0.00     0.158 HD
ENDBRANCH   6   9
BRANCH   4  12
ATOM     12  C   UNL d   1       2.526  -2.303  -0.042  0.00  0.00     0.015 A 
ATOM     13  C   UNL d   1       3.492  -2.303   0.976  0.00  0.00     0.016 A 
ATOM     14  C   UNL d   1       4.455  -3.313   1.046  0.00  0.00     0.001 A 
ATOM     15  C   UNL d   1       4.467  -4.331   0.095  0.00  0.00     0.000 A 
ATOM     16  C   UNL d   1       3.530  -4.332  -0.935  0.00  0.00     0.001 A 
ATOM     17  C   UNL d   1       2.568  -3.322  -1.005  0.00  0.00     0.016 A 
ENDBRANCH   4  12
TORSDOF 2
