REMARK  9 active torsions:
REMARK  status: ('A' for Active; 'I' for Inactive)
REMARK    1  A    between atoms: C_4  and  C_1 
REMARK    2  A    between atoms: N_6  and  C_2 
REMARK    3  A    between atoms: O_16  and  C_4 
REMARK       I    between atoms: C_9  and  N_6 
REMARK    4  A    between atoms: O_18  and  C_7 
REMARK    5  A    between atoms: O_19  and  C_8 
REMARK    6  A    between atoms: C_14  and  C_9 
REMARK    7  A    between atoms: C_10  and  C_15 
REMARK    8  A    between atoms: O_17  and  C_10 
REMARK    9  A    between atoms: C_15  and  C_14 
ROOT
ATOM      1  C   UNL d   1       1.460  -0.231   0.038  0.00  0.00     0.069 A 
ATOM      2  C   UNL d   1       0.645  -1.374   0.025  0.00  0.00     0.053 A 
ATOM      3  C   UNL d   1       0.850   1.035   0.060  0.00  0.00     0.059 A 
ATOM      4  C   UNL d   1      -0.757  -1.217   0.066  0.00  0.00     0.070 A 
ATOM      5  C   UNL d   1      -0.541   1.185   0.084  0.00  0.00     0.102 A 
ATOM      6  C   UNL d   1      -1.361   0.049   0.057  0.00  0.00     0.103 A 
ENDROOT
BRANCH   2   7
ATOM      7  N   UNL d   1       1.095  -2.715  -0.053  0.00  0.00    -0.326 N 
ATOM      8  C   UNL d   1       2.069  -3.137  -0.940  0.00  0.00     0.222 C 
ATOM      9  O   UNL d   1       2.669  -2.417  -1.734  0.00  0.00    -0.273 OA
ATOM     10  H   UNL d   1       0.437  -3.429   0.237  0.00  0.00     0.169 HD
BRANCH   8  11
ATOM     11  C   UNL d   1       2.367  -4.614  -0.843  0.00  0.00     0.113 C 
BRANCH  11  12
ATOM     12  C   UNL d   1       3.610  -4.814   0.011  0.00  0.00     0.119 C 
BRANCH  12  13
ATOM     13  C   UNL d   1       3.938  -6.275   0.164  0.00  0.00     0.139 C 
ATOM     14  O   UNL d   1       3.263  -7.194  -0.265  0.00  0.00    -0.650 OA
BRANCH  13  15
ATOM     15  O   UNL d   1       5.075  -6.475   0.869  0.00  0.00    -0.776 OA
ATOM     16  H   UNL d   1       5.519  -5.653   1.151  0.00  0.00     0.167 HD
ENDBRANCH  13  15
ENDBRANCH  12  13
ENDBRANCH  11  12
ENDBRANCH   8  11
ENDBRANCH   2   7
BRANCH   1  17
ATOM     17  C   UNL d   1       2.945  -0.198   0.136  0.00  0.00     0.295 C 
ATOM     18  O   UNL d   1       3.613   0.730  -0.296  0.00  0.00    -0.259 OA
BRANCH  17  19
ATOM     19  O   UNL d   1       3.412  -1.208   0.917  0.00  0.00    -0.322 OA
ATOM     20  C   UNL d   1       4.817  -1.133   1.178  0.00  0.00     0.213 C 
ENDBRANCH  17  19
ENDBRANCH   1  17
BRANCH   6  21
ATOM     21  O   UNL d   1      -2.713   0.243  -0.007  0.00  0.00    -0.353 OA
ATOM     22  C   UNL d   1      -3.555  -0.880  -0.226  0.00  0.00     0.210 C 
ENDBRANCH   6  21
BRANCH   5  23
ATOM     23  O   UNL d   1      -0.940   2.497   0.090  0.00  0.00    -0.353 OA
ATOM     24  C   UNL d   1      -2.176   2.793   0.729  0.00  0.00     0.210 C 
ENDBRANCH   5  23
TORSDOF 9
