REMARK  5 active torsions:
REMARK  status: ('A' for Active; 'I' for Inactive)
REMARK    1  A    between atoms: N_4  and  C_1 
REMARK    2  A    between atoms: N_5  and  C_2 
REMARK    3  A    between atoms: O_10  and  C_3 
REMARK    4  A    between atoms: C_6  and  C_7 
REMARK    5  A    between atoms: C_20  and  O_10 
ROOT
ATOM      1  N   UNL d   1       7.002  -4.027  -3.024  0.00  0.00    -0.191 NA
ATOM      2  C   UNL d   1       5.942  -3.833  -2.586  0.00  0.00     0.099 C 
ATOM      3  C   UNL d   1       2.212  -2.905  -0.843  0.00  0.00     0.076 C 
ATOM      4  C   UNL d   1       4.644  -3.576  -2.038  0.00  0.00     0.044 C 
ATOM      5  C   UNL d   1       3.823  -2.600  -2.612  0.00  0.00     0.025 C 
ATOM      6  C   UNL d   1       4.201  -4.283  -0.917  0.00  0.00     0.025 C 
ATOM      7  C   UNL d   1       2.985  -3.945  -0.320  0.00  0.00     0.039 C 
ATOM      8  C   UNL d   1       2.584  -2.297  -2.042  0.00  0.00     0.039 C 
ENDROOT
BRANCH   3   9
ATOM      9  O   UNL d   1       1.118  -2.545  -0.096  0.00  0.00    -0.306 OA
BRANCH   9  10
ATOM     10  C   UNL d   1       0.654  -1.248  -0.077  0.00  0.00     0.142 A 
ATOM     11  C   UNL d   1      -0.738  -1.090   0.014  0.00  0.00     0.140 A 
ATOM     12  C   UNL d   1      -1.359   0.170   0.132  0.00  0.00     0.055 A 
ATOM     13  C   UNL d   1      -0.580   1.332   0.160  0.00  0.00     0.052 A 
ATOM     14  C   UNL d   1       0.812   1.202   0.066  0.00  0.00     0.055 A 
ATOM     15  C   UNL d   1       1.413  -0.071  -0.025  0.00  0.00     0.140 A 
BRANCH  11  16
ATOM     16  N   UNL d   1      -1.606  -2.256  -0.001  0.00  0.00    -0.113 N 
ATOM     17  O   UNL d   1      -1.549  -2.991  -0.994  0.00  0.00    -0.532 OA
ATOM     18  O   UNL d   1      -2.375  -2.390   0.959  0.00  0.00    -0.532 OA
ENDBRANCH  11  16
BRANCH  13  19
ATOM     19  C   UNL d   1      -1.195   2.704   0.321  0.00  0.00     0.417 C 
ATOM     20  F   UNL d   1      -2.548   2.678   0.439  0.00  0.00    -0.166 F 
ATOM     21  F   UNL d   1      -0.726   3.341   1.427  0.00  0.00    -0.166 F 
ATOM     22  F   UNL d   1      -0.916   3.515  -0.732  0.00  0.00    -0.166 F 
ENDBRANCH  13  19
BRANCH  15  23
ATOM     23  N   UNL d   1       2.866  -0.067  -0.006  0.00  0.00    -0.113 N 
ATOM     24  O   UNL d   1       3.421  -0.649   0.934  0.00  0.00    -0.532 OA
ATOM     25  O   UNL d   1       3.428   0.576  -0.905  0.00  0.00    -0.532 OA
ENDBRANCH  15  23
ENDBRANCH   9  10
ENDBRANCH   3   9
TORSDOF 5
