REMARK  2 active torsions:
REMARK  status: ('A' for Active; 'I' for Inactive)
REMARK    1  A    between atoms: N_3  and  C_2 
REMARK    2  A    between atoms: N_11  and  C_9 
ROOT
ATOM      1  C   UNL d   1       0.879  -0.667  -0.500  0.00  0.00     0.084 A 
ATOM      2  C   UNL d   1       1.111   0.616  -0.015  0.00  0.00     0.096 A 
ATOM      3  S   UNL d   1      -0.306   1.201   0.785  0.00  0.00    -0.082 SA
ATOM      4  C   UNL d   1      -0.439  -1.173  -0.195  0.00  0.00    -0.032 A 
ATOM      5  C   UNL d   1       1.855  -1.409  -1.241  0.00  0.00     0.103 C 
ATOM      6  C   UNL d   1      -1.173  -0.233   0.497  0.00  0.00     0.060 A 
ATOM      7  N   UNL d   1       2.648  -2.041  -1.810  0.00  0.00    -0.191 NA
ATOM      8  C   UNL d   1      -0.978  -2.516  -0.575  0.00  0.00     0.050 C 
ENDROOT
BRANCH   2   9
ATOM      9  N   UNL d   1       2.149   1.495  -0.096  0.00  0.00    -0.346 N 
ATOM     10  C   UNL d   1       3.358   1.061   0.024  0.00  0.00     0.178 C 
ATOM     11  HN  UNL d   1       1.971   2.488  -0.250  1.00  0.00     0.167 HD
BRANCH  10  12
ATOM     12  N   UNL d   1       4.495   1.836  -0.013  0.00  0.00    -0.386 N 
ATOM     13  C   UNL d   1       5.829   1.260   0.013  0.00  0.00     0.149 C 
ATOM     14  C   UNL d   1       4.429   3.289  -0.030  0.00  0.00     0.149 C 
ENDBRANCH  10  12
ENDBRANCH   2   9
TORSDOF 2
