REMARK  3 active torsions:
REMARK  status: ('A' for Active; 'I' for Inactive)
REMARK    1  A    between atoms: C_2  and  C_1 
REMARK    2  A    between atoms: O_8  and  C_2 
REMARK    3  A    between atoms: C_7  and  C_3 
ROOT
ATOM      1  C   UNL d   1       0.947  -0.108   0.095  0.00  0.00     0.120 C 
ATOM      2  C   UNL d   1       0.294   0.438  -0.950  0.00  0.00     0.040 C 
ATOM      3  C   UNL d   1       0.277  -0.656   1.228  0.00  0.00     0.105 C 
ATOM      4  N   UNL d   1      -0.299  -1.095   2.136  0.00  0.00    -0.191 NA
ENDROOT
BRANCH   1   5
ATOM      5  C   UNL d   1       2.433  -0.106   0.015  0.00  0.00     0.303 C 
ATOM      6  O   UNL d   1       3.069   0.344  -0.928  0.00  0.00    -0.258 OA
BRANCH   5   7
ATOM      7  O   UNL d   1       2.979  -0.663   1.125  0.00  0.00    -0.322 OA
ATOM      8  C   UNL d   1       4.409  -0.687   1.134  0.00  0.00     0.213 C 
ENDBRANCH   5   7
ENDBRANCH   1   5
BRANCH   2   9
ATOM      9  C   UNL d   1      -1.160   0.551  -1.056  0.00  0.00    -0.034 A 
ATOM     10  C   UNL d   1      -1.814   1.671  -0.527  0.00  0.00     0.014 A 
ATOM     11  C   UNL d   1      -3.203   1.776  -0.619  0.00  0.00     0.043 A 
ATOM     12  C   UNL d   1      -3.928   0.766  -1.239  0.00  0.00     0.116 A 
ATOM     13  C   UNL d   1      -3.291  -0.352  -1.766  0.00  0.00     0.043 A 
ATOM     14  F   UNL d   1      -5.259   0.872  -1.334  0.00  0.00    -0.206 F 
ATOM     15  C   UNL d   1      -1.902  -0.462  -1.676  0.00  0.00     0.014 A 
ENDBRANCH   2   9
TORSDOF 3
