REMARK  4 active torsions:
REMARK  status: ('A' for Active; 'I' for Inactive)
REMARK    1  A    between atoms: C_7  and  N_1 
REMARK    2  A    between atoms: S_9  and  C_2 
REMARK    3  A    between atoms: C_12  and  S_9 
REMARK    4  A    between atoms: C_10  and  C_12 
ROOT
ATOM      1  N   UNL d   1       1.035  -0.621   0.042  0.00  0.00    -0.273 N 
ATOM      2  C   UNL d   1       1.045   0.701   0.365  0.00  0.00     0.166 A 
ATOM      3  C   UNL d   1      -0.289  -0.973   0.130  0.00  0.00     0.343 A 
ATOM      4  N   UNL d   1      -0.123   1.231   0.577  0.00  0.00    -0.276 N 
ATOM      5  HN  UNL d   1      -0.342   2.199   0.812  1.00  0.00     0.189 HD
ATOM      6  N   UNL d   1      -0.981   0.195   0.411  0.00  0.00    -0.249 N 
ATOM      7  O   UNL d   1      -0.811  -2.065   0.009  0.00  0.00    -0.245 OA
ATOM      8  H   UNL d   1      -1.982   0.277   0.527  0.00  0.00     0.192 HD
ENDROOT
BRANCH   1   9
ATOM      9  C   UNL d   1       2.163  -1.520  -0.260  0.00  0.00     0.097 C 
ATOM     10  C   UNL d   1       1.933  -2.429  -1.485  0.00  0.00     0.026 C 
ATOM     11  C   UNL d   1       1.409  -3.836  -1.200  0.00  0.00     0.002 C 
ATOM     12  C   UNL d   1       2.138  -4.502  -0.045  0.00  0.00     0.000 C 
ATOM     13  C   UNL d   1       2.064  -3.642   1.209  0.00  0.00     0.002 C 
ATOM     14  C   UNL d   1       2.682  -2.267   0.981  0.00  0.00     0.026 C 
ENDBRANCH   1   9
BRANCH   2  15
ATOM     15  S   UNL d   1       2.521   1.600   0.480  0.00  0.00    -0.088 SA
BRANCH  15  16
ATOM     16  C   UNL d   1       1.905   3.071   1.347  0.00  0.00     0.108 C 
BRANCH  16  17
ATOM     17  C   UNL d   1       3.019   4.057   1.535  0.00  0.00    -0.026 C 
ATOM     18  C   UNL d   1       2.977   5.326   1.105  0.00  0.00     0.007 C 
ENDBRANCH  16  17
ENDBRANCH  15  16
ENDBRANCH   2  15
TORSDOF 4
