REMARK  2 active torsions:
REMARK  status: ('A' for Active; 'I' for Inactive)
REMARK    1  A    between atoms: C_12  and  C_6 
REMARK    2  A    between atoms: O_13  and  C_7 
ROOT
ATOM      1  N   UNL d   1       0.752   0.346  -0.022  0.00  0.00    -0.256 N 
ATOM      2  C   UNL d   1       1.296  -0.919  -0.010  0.00  0.00     0.161 A 
ATOM      3  N   UNL d   1       2.547  -1.208  -0.005  0.00  0.00    -0.316 N 
ATOM      4  HN  UNL d   1       2.873  -2.175   0.006  1.00  0.00     0.170 HD
ATOM      5  C   UNL d   1       1.577   1.450  -0.041  0.00  0.00     0.269 A 
ATOM      6  C   UNL d   1       3.046   1.139  -0.037  0.00  0.00     0.093 A 
ATOM      7  C   UNL d   1       3.419  -0.159  -0.015  0.00  0.00     0.158 A 
ATOM      8  S   UNL d   1       0.063  -2.168   0.001  0.00  0.00    -0.051 SA
ATOM      9  C   UNL d   1      -0.667   0.352  -0.015  0.00  0.00     0.062 A 
ATOM     10  C   UNL d   1      -1.209  -0.940  -0.004  0.00  0.00     0.035 A 
ATOM     11  O   UNL d   1       1.202   2.621  -0.058  0.00  0.00    -0.266 OA
ATOM     12  C   UNL d   1      -1.521   1.449  -0.015  0.00  0.00     0.031 A 
ATOM     13  C   UNL d   1      -2.576  -1.169   0.003  0.00  0.00     0.021 A 
ATOM     14  C   UNL d   1      -2.906   1.231  -0.006  0.00  0.00     0.002 A 
ATOM     15  C   UNL d   1      -3.431  -0.068   0.002  0.00  0.00     0.002 A 
ENDROOT
BRANCH   6  16
ATOM     16  C   UNL d   1       4.056   2.213  -0.061  0.00  0.00    -0.016 A 
ATOM     17  C   UNL d   1       4.573   2.665  -1.283  0.00  0.00     0.012 A 
ATOM     18  C   UNL d   1       5.652   3.552  -1.306  0.00  0.00     0.001 A 
ATOM     19  C   UNL d   1       6.219   3.993  -0.112  0.00  0.00     0.000 A 
ATOM     20  C   UNL d   1       5.699   3.563   1.108  0.00  0.00     0.001 A 
ATOM     21  C   UNL d   1       4.620   2.676   1.135  0.00  0.00     0.012 A 
ENDBRANCH   6  16
BRANCH   7  22
ATOM     22  O   UNL d   1       4.746  -0.549  -0.001  0.00  0.00    -0.345 OA
ATOM     23  H   UNL d   1       5.321   0.233   0.013  0.00  0.00     0.219 HD
ENDBRANCH   7  22
TORSDOF 2
