REMARK  4 active torsions:
REMARK  status: ('A' for Active; 'I' for Inactive)
REMARK    1  A    between atoms: C_2  and  C_1 
REMARK       I    between atoms: N_8  and  C_2 
REMARK    2  A    between atoms: C_14  and  C_5 
REMARK    3  A    between atoms: C_7  and  C_10 
REMARK    4  A    between atoms: C_11  and  N_9 
ROOT
ATOM      1  C   UNL d   1      -2.812  -1.312  -0.026  0.00  0.00     0.256 C 
ATOM      2  N   UNL d   1      -3.913  -0.459   0.153  0.00  0.00    -0.346 N 
ATOM      3  N   UNL d   1      -6.331   1.004   0.552  0.00  0.00    -0.266 NA
ATOM      4  O   UNL d   1      -2.453  -2.068   0.877  0.00  0.00    -0.267 OA
ATOM      5  C   UNL d   1      -4.445   0.442  -0.882  0.00  0.00     0.141 C 
ATOM      6  C   UNL d   1      -4.841  -0.788   1.255  0.00  0.00     0.141 C 
ATOM      7  C   UNL d   1      -5.697   0.407   1.734  0.00  0.00     0.117 C 
ATOM      8  C   UNL d   1      -5.329   1.579  -0.353  0.00  0.00     0.117 C 
ENDROOT
BRANCH   1   9
ATOM      9  C   UNL d   1      -2.078  -1.285  -1.296  0.00  0.00     0.063 C 
ATOM     10  C   UNL d   1      -2.539  -1.062  -2.631  0.00  0.00     0.053 C 
ATOM     11  C   UNL d   1      -1.442  -1.062  -3.461  0.00  0.00     0.062 C 
ATOM     12  O   UNL d   1      -0.338  -1.399  -2.743  0.00  0.00    -0.318 OA
ATOM     13  C   UNL d   1      -0.730  -1.583  -1.449  0.00  0.00     0.065 C 
ATOM     14  C   UNL d   1       0.338  -2.037  -0.529  0.00  0.00     0.077 C 
BRANCH  11  15
ATOM     15  C   UNL d   1      -1.256  -0.819  -4.935  0.00  0.00    -0.002 C 
ATOM     16  C   UNL d   1      -2.590  -0.398  -5.588  0.00  0.00     0.021 C 
ATOM     17  C   UNL d   1      -0.237   0.310  -5.162  0.00  0.00     0.021 C 
ATOM     18  C   UNL d   1      -0.764  -2.111  -5.605  0.00  0.00     0.021 C 
ENDBRANCH  11  15
ENDBRANCH   1   9
BRANCH   3  19
ATOM     19  C   UNL d   1      -7.444   1.815   0.755  0.00  0.00     0.082 A 
ATOM     20  N   UNL d   1      -7.688   2.371   1.955  0.00  0.00    -0.356 N 
ATOM     21  C   UNL d   1      -8.813   3.122   2.091  0.00  0.00     0.105 A 
ATOM     22  HN  UNL d   1      -7.049   2.234   2.738  1.00  0.00     0.166 HD
ATOM     23  C   UNL d   1      -9.734   3.342   1.079  0.00  0.00     0.063 A 
ATOM     24  C   UNL d   1      -9.479   2.748  -0.155  0.00  0.00     0.021 A 
ATOM     25  C   UNL d   1      -8.325   1.986  -0.316  0.00  0.00     0.043 A 
BRANCH  23  26
ATOM     26  C   UNL d   1     -10.970   4.157   1.301  0.00  0.00     0.418 C 
ATOM     27  F   UNL d   1     -11.053   4.702   2.543  0.00  0.00    -0.166 F 
ATOM     28  F   UNL d   1     -11.064   5.199   0.430  0.00  0.00    -0.166 F 
ATOM     29  F   UNL d   1     -12.110   3.430   1.133  0.00  0.00    -0.166 F 
ENDBRANCH  23  26
ENDBRANCH   3  19
TORSDOF 4
