REMARK  1 active torsions:
REMARK  status: ('A' for Active; 'I' for Inactive)
REMARK    1  A    between atoms: C_6  and  C_1 
REMARK       I    between atoms: N_10  and  C_6 
ROOT
ATOM      1  C   UNL d   1      -0.247  -1.265  -0.001  0.00  0.00     0.080 A 
ATOM      2  S   UNL d   1       1.413  -0.828   0.001  0.00  0.00    -0.073 SA
ATOM      3  C   UNL d   1      -1.068  -0.136   0.001  0.00  0.00    -0.031 A 
ATOM      4  C   UNL d   1       1.071   0.830   0.001  0.00  0.00     0.092 A 
ATOM      5  C   UNL d   1      -0.287   1.094   0.001  0.00  0.00    -0.027 A 
ATOM      6  C   UNL d   1       2.107   1.813  -0.001  0.00  0.00     0.107 C 
ATOM      7  N   UNL d   1       2.941   2.622  -0.002  0.00  0.00    -0.191 NA
ATOM      8  C   UNL d   1      -2.570  -0.141   0.001  0.00  0.00     0.050 C 
ATOM      9  C   UNL d   1      -0.852   2.486   0.002  0.00  0.00     0.051 C 
ENDROOT
BRANCH   1  10
ATOM     10  C   UNL d   1      -0.611  -2.683  -0.005  0.00  0.00     0.256 C 
ATOM     11  O   UNL d   1      -1.758  -3.121  -0.006  0.00  0.00    -0.267 OA
ATOM     12  N   UNL d   1       0.425  -3.579  -0.007  0.00  0.00    -0.365 N 
ATOM     13  H   UNL d   1       1.389  -3.277  -0.008  0.00  0.00     0.159 HD
ATOM     14  H   UNL d   1       0.209  -4.565  -0.012  0.00  0.00     0.159 HD
ENDBRANCH   1  10
TORSDOF 1
