REMARK  4 active torsions:
REMARK  status: ('A' for Active; 'I' for Inactive)
REMARK    1  A    between atoms: C_8  and  N_1 
REMARK    2  A    between atoms: C_9  and  C_4 
REMARK    3  A    between atoms: C_11  and  C_6 
REMARK    4  A    between atoms: N_7  and  C_10 
ROOT
ATOM      1  N   UNL d   1       0.957  -0.692  -0.007  0.00  0.00    -0.260 N 
ATOM      2  N   UNL d   1       0.943   0.655   0.217  0.00  0.00    -0.297 N 
ATOM      3  HN  UNL d   1       1.737   1.242   0.474  1.00  0.00     0.187 HD
ATOM      4  C   UNL d   1      -0.351  -1.202  -0.085  0.00  0.00     0.044 C 
ATOM      5  C   UNL d   1      -1.157  -0.070  -0.133  0.00  0.00     0.055 C 
ATOM      6  C   UNL d   1      -0.318   1.048   0.031  0.00  0.00     0.036 C 
ENDROOT
BRANCH   1   7
ATOM      7  C   UNL d   1       2.238  -1.312  -0.154  0.00  0.00     0.056 A 
ATOM      8  C   UNL d   1       3.359  -0.764   0.496  0.00  0.00     0.034 A 
ATOM      9  C   UNL d   1       4.619  -1.372   0.377  0.00  0.00     0.038 A 
ATOM     10  C   UNL d   1       4.763  -2.524  -0.408  0.00  0.00     0.103 A 
ATOM     11  C   UNL d   1       3.666  -3.054  -1.083  0.00  0.00     0.038 A 
ATOM     12  C   UNL d   1       2.424  -2.428  -0.968  0.00  0.00     0.034 A 
BRANCH  10  13
ATOM     13  N   UNL d   1       6.066  -3.178  -0.553  0.00  0.00    -0.116 N 
ATOM     14  O   UNL d   1       6.125  -4.214  -1.227  0.00  0.00    -0.532 OA
ATOM     15  O   UNL d   1       7.037  -2.652   0.014  0.00  0.00    -0.532 OA
ENDBRANCH  10  13
ENDBRANCH   1   7
BRANCH   4  16
ATOM     16  C   UNL d   1      -0.829  -2.664  -0.042  0.00  0.00    -0.007 C 
ATOM     17  C   UNL d   1       0.007  -3.554   0.904  0.00  0.00     0.021 C 
ATOM     18  C   UNL d   1      -2.269  -2.729   0.553  0.00  0.00     0.021 C 
ATOM     19  C   UNL d   1      -0.976  -3.259  -1.458  0.00  0.00     0.021 C 
ENDBRANCH   4  16
BRANCH   6  20
ATOM     20  C   UNL d   1      -0.718   2.519   0.037  0.00  0.00    -0.007 C 
ATOM     21  C   UNL d   1       0.500   3.457   0.182  0.00  0.00     0.021 C 
ATOM     22  C   UNL d   1      -1.430   2.874  -1.288  0.00  0.00     0.021 C 
ATOM     23  C   UNL d   1      -1.685   2.812   1.202  0.00  0.00     0.021 C 
ENDBRANCH   6  20
TORSDOF 4
