REMARK  6 active torsions:
REMARK  status: ('A' for Active; 'I' for Inactive)
REMARK    1  A    between atoms: O_10  and  C_1 
REMARK    2  A    between atoms: C_8  and  N_2 
REMARK    3  A    between atoms: C_7  and  C_3 
REMARK    4  A    between atoms: S_13  and  C_7 
REMARK    5  A    between atoms: C_18  and  S_13 
REMARK    6  A    between atoms: C_20  and  C_18 
ROOT
ATOM      1  C   UNL d   1      -0.389  -1.214  -0.013  0.00  0.00     0.176 C 
ATOM      2  N   UNL d   1       0.896  -0.699   0.127  0.00  0.00    -0.233 N 
ATOM      3  C   UNL d   1      -1.270  -0.136   0.015  0.00  0.00     0.068 C 
ATOM      4  N   UNL d   1       0.864   0.622   0.410  0.00  0.00    -0.295 N 
ATOM      5  HN  UNL d   1       1.642   1.211   0.705  1.00  0.00     0.187 HD
ATOM      6  C   UNL d   1      -0.406   0.990   0.222  0.00  0.00     0.039 C 
ATOM      7  C   UNL d   1      -0.706   2.447   0.293  0.00  0.00     0.071 C 
ENDROOT
BRANCH   2   8
ATOM      8  C   UNL d   1       2.143  -1.373   0.037  0.00  0.00     0.059 A 
ATOM      9  C   UNL d   1       2.292  -2.523  -0.749  0.00  0.00     0.032 A 
ATOM     10  C   UNL d   1       3.524  -3.182  -0.793  0.00  0.00     0.009 A 
ATOM     11  C   UNL d   1       4.614  -2.708  -0.055  0.00  0.00    -0.062 A 
ATOM     12  C   UNL d   1       4.470  -1.536   0.697  0.00  0.00     0.009 A 
ATOM     13  C   UNL d   1       5.930  -3.426  -0.115  0.00  0.00     0.048 C 
ATOM     14  C   UNL d   1       3.245  -0.863   0.731  0.00  0.00     0.032 A 
ENDBRANCH   2   8
BRANCH   1  15
ATOM     15  O   UNL d   1      -0.663  -2.518  -0.116  0.00  0.00    -0.344 OA
ATOM     16  H   UNL d   1       0.066  -3.037   0.273  0.00  0.00     0.219 HD
ENDBRANCH   1  15
BRANCH   3  17
ATOM     17  C   UNL d   1      -2.719  -0.219  -0.121  0.00  0.00     0.084 C 
ATOM     18  S   UNL d   1      -3.519   0.936  -1.029  0.00  0.00    -0.071 SA
BRANCH  17  19
ATOM     19  S   UNL d   1      -3.580  -1.587   0.568  0.00  0.00    -0.117 SA
BRANCH  19  20
ATOM     20  C   UNL d   1      -3.040  -1.544   2.301  0.00  0.00     0.080 C 
BRANCH  20  21
ATOM     21  C   UNL d   1      -3.650  -2.734   3.045  0.00  0.00     0.006 C 
ATOM     22  C   UNL d   1      -3.238  -2.757   4.510  0.00  0.00     0.006 C 
ENDBRANCH  20  21
ENDBRANCH  19  20
ENDBRANCH  17  19
ENDBRANCH   3  17
TORSDOF 6
