REMARK  4 active torsions:
REMARK  status: ('A' for Active; 'I' for Inactive)
REMARK    1  A    between atoms: C_6  and  C_1 
REMARK    2  A    between atoms: C_7  and  C_2 
REMARK    3  A    between atoms: S_17  and  C_5 
REMARK       I    between atoms: N_8  and  C_6 
REMARK    4  A    between atoms: C_10  and  N_8 
ROOT
ATOM      1  C   UNL d   1       1.284  -1.272  -0.052  0.00  0.00     0.087 A 
ATOM      2  C   UNL d   1      -0.080  -1.184  -0.309  0.00  0.00     0.026 A 
ATOM      3  C   UNL d   1      -0.564   0.163  -0.170  0.00  0.00     0.081 A 
ATOM      4  S   UNL d   1       1.915   0.228   0.478  0.00  0.00    -0.075 SA
ATOM      5  C   UNL d   1       0.433   1.040   0.210  0.00  0.00     0.063 A 
ATOM      6  C   UNL d   1      -1.927   0.572  -0.376  0.00  0.00     0.102 C 
ATOM      7  N   UNL d   1      -3.030   0.887  -0.558  0.00  0.00    -0.191 NA
ENDROOT
BRANCH   2   8
ATOM      8  C   UNL d   1      -0.903  -2.372  -0.758  0.00  0.00     0.018 C 
ATOM      9  S   UNL d   1      -0.807  -3.933  -0.050  0.00  0.00    -0.101 SA
ATOM     10  C   UNL d   1      -1.809  -4.610  -1.256  0.00  0.00     0.050 C 
ATOM     11  C   UNL d   1      -2.302  -3.650  -2.110  0.00  0.00     0.008 C 
ATOM     12  C   UNL d   1      -1.814  -2.346  -1.792  0.00  0.00     0.020 C 
ENDBRANCH   2   8
BRANCH   5  13
ATOM     13  S   UNL d   1       0.270   2.778   0.478  0.00  0.00    -0.126 SA
ATOM     14  C   UNL d   1       1.524   3.438  -0.648  0.00  0.00     0.096 C 
ENDBRANCH   5  13
BRANCH   1  15
ATOM     15  C   UNL d   1       2.175  -2.395  -0.329  0.00  0.00     0.264 C 
ATOM     16  N   UNL d   1       3.374  -2.439   0.378  0.00  0.00    -0.320 N 
ATOM     17  H   UNL d   1       3.701  -1.564   0.772  0.00  0.00     0.169 HD
ATOM     18  O   UNL d   1       1.920  -3.210  -1.209  0.00  0.00    -0.267 OA
BRANCH  16  19
ATOM     19  C   UNL d   1       4.345  -3.438   0.129  0.00  0.00     0.074 A 
ATOM     20  C   UNL d   1       5.694  -3.075   0.111  0.00  0.00     0.146 A 
ATOM     21  C   UNL d   1       6.673  -3.978  -0.291  0.00  0.00     0.086 A 
ATOM     22  F   UNL d   1       6.046  -1.813   0.402  0.00  0.00    -0.204 F 
ATOM     23  C   UNL d   1       6.298  -5.271  -0.630  0.00  0.00     0.119 A 
ATOM     24  C   UNL d   1       4.972  -5.680  -0.543  0.00  0.00     0.044 A 
ATOM     25  F   UNL d   1       7.225  -6.138  -1.056  0.00  0.00    -0.206 F 
ATOM     26  C   UNL d   1       3.994  -4.763  -0.160  0.00  0.00     0.036 A 
ENDBRANCH  16  19
ENDBRANCH   1  15
TORSDOF 4
