REMARK  4 active torsions:
REMARK  status: ('A' for Active; 'I' for Inactive)
REMARK    1  A    between atoms: C_3  and  C_1 
REMARK    2  A    between atoms: C_6  and  C_2 
REMARK    3  A    between atoms: O_9  and  C_3 
REMARK    4  A    between atoms: C_13  and  O_9 
ROOT
ATOM      1  C   UNL d   1       1.111  -0.179  -0.288  0.00  0.00     0.120 C 
ATOM      2  C   UNL d   1       0.288   0.850   0.015  0.00  0.00     0.040 C 
ATOM      3  C   UNL d   1       0.660  -1.437  -0.775  0.00  0.00     0.105 C 
ATOM      4  N   UNL d   1       0.274  -2.452  -1.191  0.00  0.00    -0.191 NA
ENDROOT
BRANCH   1   5
ATOM      5  C   UNL d   1       2.583  -0.079  -0.086  0.00  0.00     0.303 C 
ATOM      6  O   UNL d   1       3.378  -0.898  -0.523  0.00  0.00    -0.258 OA
BRANCH   5   7
ATOM      7  O   UNL d   1       2.904   0.961   0.728  0.00  0.00    -0.317 OA
BRANCH   7   8
ATOM      8  C   UNL d   1       4.229   0.926   1.281  0.00  0.00     0.174 C 
ATOM      9  C   UNL d   1       4.169   0.189   2.607  0.00  0.00     0.034 C 
ENDBRANCH   7   8
ENDBRANCH   5   7
ENDBRANCH   1   5
BRANCH   2  10
ATOM     10  C   UNL d   1      -1.193   0.884  -0.042  0.00  0.00    -0.029 A 
ATOM     11  C   UNL d   1      -1.952   1.531   0.962  0.00  0.00    -0.052 A 
ATOM     12  C   UNL d   1      -1.335   2.220   2.152  0.00  0.00     0.049 C 
ATOM     13  C   UNL d   1      -3.359   1.492   0.897  0.00  0.00     0.007 A 
ATOM     14  C   UNL d   1      -4.014   0.864  -0.158  0.00  0.00     0.001 A 
ATOM     15  C   UNL d   1      -3.273   0.280  -1.175  0.00  0.00     0.001 A 
ATOM     16  C   UNL d   1      -1.878   0.305  -1.126  0.00  0.00     0.012 A 
ENDBRANCH   2  10
TORSDOF 4
