REMARK  5 active torsions:
REMARK  status: ('A' for Active; 'I' for Inactive)
REMARK    1  A    between atoms: C_2  and  S_1 
REMARK    2  A    between atoms: N_7  and  S_1 
REMARK    3  A    between atoms: C_8  and  C_3 
REMARK    4  A    between atoms: C_12  and  N_7 
REMARK    5  A    between atoms: O_13  and  C_8 
ROOT
ATOM      1  C   UNL d   1       0.353  -1.663  -0.107  0.00  0.00     0.122 A 
ATOM      2  C   UNL d   1       1.185  -2.831  -0.137  0.00  0.00     0.094 A 
ATOM      3  C   UNL d   1      -0.955  -2.105  -0.058  0.00  0.00     0.073 A 
ATOM      4  C   UNL d   1       0.307  -3.903  -0.070  0.00  0.00     0.067 A 
ATOM      5  O   UNL d   1      -0.978  -3.466  -0.036  0.00  0.00    -0.318 OA
ATOM      6  C   UNL d   1       0.461  -5.376  -0.057  0.00  0.00     0.078 C 
ATOM      7  C   UNL d   1      -2.292  -1.472  -0.019  0.00  0.00     0.078 C 
ENDROOT
BRANCH   1   8
ATOM      8  S   UNL d   1       0.863  -0.022  -0.113  0.00  0.00     0.249 S 
ATOM      9  O   UNL d   1       2.150  -0.013   0.546  0.00  0.00    -0.205 OA
ATOM     10  O   UNL d   1      -0.229   0.741   0.447  0.00  0.00    -0.205 OA
BRANCH   8  11
ATOM     11  N   UNL d   1       1.103   0.504  -1.709  0.00  0.00    -0.181 NA
ATOM     12  H   UNL d   1       1.492   1.447  -1.661  0.00  0.00     0.146 HD
BRANCH  11  13
ATOM     13  C   UNL d   1      -0.018   0.419  -2.595  0.00  0.00     0.022 A 
ATOM     14  C   UNL d   1      -0.981   1.428  -2.646  0.00  0.00     0.024 A 
ATOM     15  C   UNL d   1      -2.035   1.336  -3.560  0.00  0.00     0.002 A 
ATOM     16  C   UNL d   1      -2.132   0.232  -4.408  0.00  0.00     0.000 A 
ATOM     17  C   UNL d   1      -1.189  -0.791  -4.329  0.00  0.00     0.002 A 
ATOM     18  C   UNL d   1      -0.135  -0.701  -3.417  0.00  0.00     0.024 A 
ENDBRANCH  11  13
ENDBRANCH   8  11
ENDBRANCH   1   8
BRANCH   2  19
ATOM     19  C   UNL d   1       2.630  -2.970  -0.201  0.00  0.00     0.297 C 
ATOM     20  O   UNL d   1       3.233  -3.903   0.313  0.00  0.00    -0.259 OA
BRANCH  19  21
ATOM     21  O   UNL d   1       3.224  -2.005  -0.957  0.00  0.00    -0.322 OA
ATOM     22  C   UNL d   1       4.651  -2.083  -0.971  0.00  0.00     0.213 C 
ENDBRANCH  19  21
ENDBRANCH   2  19
TORSDOF 5
