REMARK  5 active torsions:
REMARK  status: ('A' for Active; 'I' for Inactive)
REMARK    1  A    between atoms: C_8  and  C_1 
REMARK    2  A    between atoms: C_7  and  C_6 
REMARK    3  A    between atoms: O_11  and  C_8 
REMARK    4  A    between atoms: C_20  and  O_11 
REMARK    5  A    between atoms: C_21  and  C_20 
ROOT
ATOM      1  C   UNL d   1      -0.461  -1.226  -0.013  0.00  0.00     0.067 C 
ATOM      2  C   UNL d   1       0.537   1.444  -0.032  0.00  0.00     0.325 C 
ATOM      3  N   UNL d   1       1.419   0.396  -0.094  0.00  0.00    -0.325 N 
ATOM      4  C   UNL d   1      -1.330  -0.190   0.072  0.00  0.00     0.026 C 
ATOM      5  N   UNL d   1      -0.822   1.123   0.045  0.00  0.00    -0.307 N 
ATOM      6  C   UNL d   1       1.029  -0.999   0.047  0.00  0.00     0.163 C 
ATOM      7  O   UNL d   1       0.925   2.615  -0.061  0.00  0.00    -0.247 OA
ATOM      8  C   UNL d   1       2.848   0.678  -0.190  0.00  0.00     0.155 C 
ATOM      9  C   UNL d   1      -1.689   2.300  -0.024  0.00  0.00     0.161 C 
ATOM     10  C   UNL d   1      -2.824  -0.350   0.190  0.00  0.00     0.069 C 
ENDROOT
BRANCH   1  11
ATOM     11  C   UNL d   1      -0.734  -2.676  -0.293  0.00  0.00     0.294 C 
ATOM     12  O   UNL d   1       0.020  -3.308  -1.028  0.00  0.00    -0.259 OA
BRANCH  11  13
ATOM     13  O   UNL d   1      -1.821  -3.220   0.304  0.00  0.00    -0.313 OA
BRANCH  13  14
ATOM     14  C   UNL d   1      -2.189  -4.529  -0.205  0.00  0.00     0.217 C 
BRANCH  14  15
ATOM     15  C   UNL d   1      -1.867  -5.732   0.659  0.00  0.00    -0.034 A 
ATOM     16  C   UNL d   1      -1.210  -5.652   1.888  0.00  0.00     0.009 A 
ATOM     17  C   UNL d   1      -0.962  -6.809   2.648  0.00  0.00     0.001 A 
ATOM     18  C   UNL d   1      -1.367  -8.061   2.183  0.00  0.00     0.000 A 
ATOM     19  C   UNL d   1      -2.008  -8.160   0.953  0.00  0.00     0.001 A 
ATOM     20  C   UNL d   1      -2.251  -7.015   0.201  0.00  0.00     0.009 A 
ENDBRANCH  14  15
ENDBRANCH  13  14
ENDBRANCH  11  13
ENDBRANCH   1  11
BRANCH   6  21
ATOM     21  C   UNL d   1       1.601  -1.593   1.332  0.00  0.00    -0.030 A 
ATOM     22  C   UNL d   1       1.333  -1.008   2.583  0.00  0.00     0.022 A 
ATOM     23  C   UNL d   1       1.871  -1.542   3.761  0.00  0.00    -0.025 A 
ATOM     24  C   UNL d   1       1.619  -0.952   5.010  0.00  0.00     0.012 A 
ATOM     25  C   UNL d   1       2.687  -2.693   3.687  0.00  0.00    -0.026 A 
ATOM     26  C   UNL d   1       2.170  -1.491   6.172  0.00  0.00     0.001 A 
ATOM     27  C   UNL d   1       2.975  -2.625   6.100  0.00  0.00     0.001 A 
ATOM     28  C   UNL d   1       3.232  -3.222   4.866  0.00  0.00     0.012 A 
ATOM     29  C   UNL d   1       2.940  -3.282   2.440  0.00  0.00     0.013 A 
ATOM     30  C   UNL d   1       2.402  -2.739   1.275  0.00  0.00     0.010 A 
ENDBRANCH   6  21
TORSDOF 5
