REMARK  6 active torsions:
REMARK  status: ('A' for Active; 'I' for Inactive)
REMARK    1  A    between atoms: N_7  and  C_1 
REMARK    2  A    between atoms: N_6  and  C_2 
REMARK    3  A    between atoms: S_8  and  C_3 
REMARK    4  A    between atoms: S_9  and  C_4 
REMARK    5  A    between atoms: C_10  and  S_8 
REMARK    6  A    between atoms: C_11  and  S_9 
ROOT
ATOM      1  C   UNL d   1       1.663   0.669   0.065  0.00  0.00     0.161 C 
ATOM      2  C   UNL d   1       1.653  -0.748  -0.120  0.00  0.00     0.161 C 
ATOM      3  C   UNL d   1       0.391   1.212   0.058  0.00  0.00     0.084 C 
ATOM      4  C   UNL d   1       0.374  -1.274  -0.090  0.00  0.00     0.084 C 
ATOM      5  S   UNL d   1      -0.799  -0.023  -0.011  0.00  0.00    -0.070 SA
ENDROOT
BRANCH   3   6
ATOM      6  S   UNL d   1      -0.111   2.904   0.138  0.00  0.00    -0.062 SA
BRANCH   6   7
ATOM      7  C   UNL d   1       0.464   3.511  -1.449  0.00  0.00     0.074 A 
ATOM      8  N   UNL d   1       1.228   2.703  -2.219  0.00  0.00    -0.360 N 
ATOM      9  C   UNL d   1       1.678   3.206  -3.393  0.00  0.00     0.089 A 
ATOM     10  HN  UNL d   1       1.456   1.752  -1.927  1.00  0.00     0.166 HD
ATOM     11  C   UNL d   1       1.389   4.482  -3.851  0.00  0.00     0.017 A 
ATOM     12  C   UNL d   1       0.595   5.294  -3.056  0.00  0.00     0.004 A 
ATOM     13  C   UNL d   1       0.128   4.807  -1.834  0.00  0.00     0.037 A 
ENDBRANCH   6   7
ENDBRANCH   3   6
BRANCH   1  14
ATOM     14  N   UNL d   1       2.854   1.448   0.204  0.00  0.00    -0.111 N 
ATOM     15  O   UNL d   1       3.700   1.337  -0.691  0.00  0.00    -0.532 OA
ATOM     16  O   UNL d   1       2.954   2.128   1.232  0.00  0.00    -0.532 OA
ENDBRANCH   1  14
BRANCH   2  17
ATOM     17  N   UNL d   1       2.832  -1.545  -0.272  0.00  0.00    -0.111 N 
ATOM     18  O   UNL d   1       3.707  -1.414   0.593  0.00  0.00    -0.532 OA
ATOM     19  O   UNL d   1       2.894  -2.259  -1.279  0.00  0.00    -0.532 OA
ENDBRANCH   2  17
BRANCH   4  20
ATOM     20  S   UNL d   1      -0.150  -2.961  -0.144  0.00  0.00    -0.062 SA
BRANCH  20  21
ATOM     21  C   UNL d   1       0.454  -3.557   1.436  0.00  0.00     0.074 A 
ATOM     22  N   UNL d   1       1.255  -2.754   2.174  0.00  0.00    -0.360 N 
ATOM     23  C   UNL d   1       1.721  -3.246   3.345  0.00  0.00     0.089 A 
ATOM     24  HN  UNL d   1       1.498  -1.814   1.859  1.00  0.00     0.166 HD
ATOM     25  C   UNL d   1       1.410  -4.503   3.833  0.00  0.00     0.017 A 
ATOM     26  C   UNL d   1       0.580  -5.313   3.070  0.00  0.00     0.004 A 
ATOM     27  C   UNL d   1       0.098  -4.838   1.850  0.00  0.00     0.037 A 
ENDBRANCH  20  21
ENDBRANCH   4  20
TORSDOF 6
