REMARK  6 active torsions:
REMARK  status: ('A' for Active; 'I' for Inactive)
REMARK    1  A    between atoms: C_13  and  C_3 
REMARK    2  A    between atoms: N_10  and  C_4 
REMARK    3  A    between atoms: C_7  and  O_17 
REMARK    4  A    between atoms: C_22  and  N_10 
REMARK    5  A    between atoms: C_15  and  C_16 
REMARK    6  A    between atoms: O_17  and  C_26 
ROOT
ATOM      1  C   UNL d   1      -0.021  -0.486   0.066  0.00  0.00     0.076 A 
ATOM      2  S   UNL d   1       1.669  -0.783   0.112  0.00  0.00    -0.084 SA
ATOM      3  C   UNL d   1       2.064   0.889   0.034  0.00  0.00     0.018 A 
ATOM      4  C   UNL d   1      -1.093  -1.388   0.073  0.00  0.00     0.126 A 
ATOM      5  C   UNL d   1       0.913   1.652  -0.030  0.00  0.00     0.050 A 
ATOM      6  C   UNL d   1      -0.280   0.874  -0.016  0.00  0.00     0.055 A 
ATOM      7  N   UNL d   1      -2.340  -0.864  -0.005  0.00  0.00    -0.337 N 
ATOM      8  HN  UNL d   1      -3.155  -1.477  -0.019  1.00  0.00     0.168 HD
ATOM      9  N   UNL d   1      -1.533   1.384  -0.077  0.00  0.00    -0.351 N 
ATOM     10  HN  UNL d   1      -1.724   2.385  -0.129  1.00  0.00     0.166 HD
ATOM     11  C   UNL d   1      -2.494   0.461  -0.064  0.00  0.00     0.182 A 
ENDROOT
BRANCH   4  12
ATOM     12  N   UNL d   1      -0.920  -2.773   0.190  0.00  0.00    -0.341 N 
ATOM     13  H   UNL d   1       0.024  -3.068   0.393  0.00  0.00     0.167 HD
BRANCH  12  14
ATOM     14  C   UNL d   1      -1.751  -3.785  -0.318  0.00  0.00     0.033 A 
ATOM     15  C   UNL d   1      -2.575  -3.585  -1.434  0.00  0.00     0.032 A 
ATOM     16  C   UNL d   1      -3.409  -4.599  -1.919  0.00  0.00     0.039 A 
ATOM     17  C   UNL d   1      -3.428  -5.841  -1.292  0.00  0.00     0.078 A 
ATOM     18  C   UNL d   1      -2.650  -6.032  -0.145  0.00  0.00     0.039 A 
ATOM     19  C   UNL d   1      -1.809  -5.021   0.329  0.00  0.00     0.032 A 
BRANCH  17  20
ATOM     20  O   UNL d   1      -4.155  -6.928  -1.668  0.00  0.00    -0.255 OA
BRANCH  20  21
ATOM     21  C   UNL d   1      -4.612  -7.020  -3.007  0.00  0.00     0.530 C 
ATOM     22  F   UNL d   1      -3.819  -6.376  -3.891  0.00  0.00    -0.144 F 
ATOM     23  F   UNL d   1      -4.630  -8.328  -3.356  0.00  0.00    -0.144 F 
ATOM     24  F   UNL d   1      -5.869  -6.541  -3.104  0.00  0.00    -0.144 F 
ENDBRANCH  20  21
ENDBRANCH  17  20
ENDBRANCH  12  14
ENDBRANCH   4  12
BRANCH   3  25
ATOM     25  C   UNL d   1       3.467   1.340   0.017  0.00  0.00    -0.019 A 
ATOM     26  C   UNL d   1       3.825   2.528  -0.633  0.00  0.00     0.013 A 
ATOM     27  C   UNL d   1       5.153   2.969  -0.658  0.00  0.00     0.009 A 
ATOM     28  C   UNL d   1       6.184   2.238  -0.038  0.00  0.00    -0.051 A 
ATOM     29  C   UNL d   1       5.816   1.058   0.621  0.00  0.00     0.009 A 
ATOM     30  C   UNL d   1       4.485   0.620   0.652  0.00  0.00     0.013 A 
BRANCH  28  31
ATOM     31  C   UNL d   1       7.641   2.725  -0.106  0.00  0.00    -0.024 C 
ATOM     32  C   UNL d   1       8.643   1.782   0.596  0.00  0.00     0.019 C 
ATOM     33  C   UNL d   1       8.077   2.834  -1.584  0.00  0.00     0.019 C 
ATOM     34  C   UNL d   1       7.766   4.109   0.564  0.00  0.00     0.019 C 
ENDBRANCH  28  31
ENDBRANCH   3  25
TORSDOF 6
