REMARK  4 active torsions:
REMARK  status: ('A' for Active; 'I' for Inactive)
REMARK    1  A    between atoms: C_3  and  N_1 
REMARK    2  A    between atoms: N_9  and  N_6 
REMARK    3  A    between atoms: C_12  and  C_15 
REMARK    4  A    between atoms: O_19  and  C_14 
ROOT
ATOM      1  N   UNL d   1      -0.324   1.126  -0.054  0.00  0.00    -0.260 N 
ATOM      2  C   UNL d   1       0.980   0.706  -0.184  0.00  0.00     0.169 C 
ATOM      3  C   UNL d   1      -1.283   0.145   0.127  0.00  0.00     0.240 C 
ATOM      4  S   UNL d   1       1.077  -1.042  -0.144  0.00  0.00    -0.083 SA
ATOM      5  N   UNL d   1       1.991   1.519  -0.263  0.00  0.00    -0.280 N 
ATOM      6  HN  UNL d   1       1.881   2.532  -0.278  1.00  0.00     0.189 HD
ATOM      7  C   UNL d   1      -0.705  -1.237  -0.026  0.00  0.00     0.186 C 
ATOM      8  O   UNL d   1      -2.482   0.320   0.326  0.00  0.00    -0.272 OA
ENDROOT
BRANCH   1   9
ATOM      9  C   UNL d   1      -0.676   2.501  -0.070  0.00  0.00     0.047 A 
ATOM     10  C   UNL d   1      -0.280   3.313  -1.139  0.00  0.00     0.072 A 
ATOM     11  C   UNL d   1      -0.660   4.651  -1.164  0.00  0.00     0.118 A 
ATOM     12  F   UNL d   1      -0.323   5.410  -2.216  0.00  0.00    -0.206 F 
ATOM     13  C   UNL d   1      -1.393   5.210  -0.125  0.00  0.00     0.042 A 
ATOM     14  C   UNL d   1      -1.774   4.413   0.953  0.00  0.00     0.005 A 
ATOM     15  C   UNL d   1      -1.436   3.057   0.969  0.00  0.00     0.030 A 
ENDBRANCH   1   9
BRANCH   5  16
ATOM     16  N   UNL d   1       3.234   0.901  -0.324  0.00  0.00    -0.309 N 
ATOM     17  C   UNL d   1       4.197   1.769  -0.303  0.00  0.00     0.121 C 
ATOM     18  HN  UNL d   1       3.371  -0.108  -0.379  1.00  0.00     0.186 HD
BRANCH  17  19
ATOM     19  C   UNL d   1       5.607   1.334  -0.352  0.00  0.00     0.014 A 
ATOM     20  C   UNL d   1       5.968  -0.019  -0.391  0.00  0.00     0.077 A 
ATOM     21  C   UNL d   1       7.310  -0.386  -0.454  0.00  0.00     0.037 A 
ATOM     22  C   UNL d   1       8.300   0.600  -0.473  0.00  0.00     0.003 A 
ATOM     23  C   UNL d   1       7.945   1.949  -0.427  0.00  0.00     0.001 A 
ATOM     24  C   UNL d   1       6.600   2.319  -0.365  0.00  0.00     0.015 A 
BRANCH  20  25
ATOM     25  O   UNL d   1       5.062  -1.043  -0.370  0.00  0.00    -0.360 OA
ATOM     26  H   UNL d   1       4.162  -0.648  -0.328  0.00  0.00     0.217 HD
ENDBRANCH  20  25
ENDBRANCH  17  19
ENDBRANCH   5  16
TORSDOF 4
