REMARK  3 active torsions:
REMARK  status: ('A' for Active; 'I' for Inactive)
REMARK    1  A    between atoms: C_7  and  N_1 
REMARK    2  A    between atoms: C_3  and  C_2 
REMARK    3  A    between atoms: C_4  and  C_9 
ROOT
ATOM      1  C   UNL d   1      -3.026  -4.966  -1.055  0.00  0.00     0.038 C 
ATOM      2  C   UNL d   1      -1.991  -4.903  -0.189  0.00  0.00     0.055 C 
ATOM      3  C   UNL d   1      -1.244  -3.689  -0.039  0.00  0.00     0.100 C 
ATOM      4  N   UNL d   1      -0.648  -2.702   0.099  0.00  0.00    -0.191 NA
ENDROOT
BRANCH   2   5
ATOM      5  C   UNL d   1      -1.624  -6.089   0.640  0.00  0.00    -0.015 A 
ATOM      6  C   UNL d   1      -1.731  -7.402   0.141  0.00  0.00     0.015 A 
ATOM      7  C   UNL d   1      -1.350  -8.508   0.912  0.00  0.00     0.037 A 
ATOM      8  C   UNL d   1      -0.837  -8.312   2.198  0.00  0.00     0.102 A 
ATOM      9  C   UNL d   1      -0.714  -7.020   2.716  0.00  0.00     0.037 A 
ATOM     10  C   UNL d   1      -1.107  -5.921   1.939  0.00  0.00     0.015 A 
BRANCH   8  11
ATOM     11  N   UNL d   1      -0.416  -9.467   3.002  0.00  0.00    -0.116 N 
ATOM     12  O   UNL d   1       0.044  -9.246   4.131  0.00  0.00    -0.532 OA
ATOM     13  O   UNL d   1      -0.547 -10.594   2.504  0.00  0.00    -0.532 OA
ENDBRANCH   8  11
ENDBRANCH   2   5
BRANCH   1  14
ATOM     14  C   UNL d   1      -3.472  -3.871  -1.946  0.00  0.00     0.009 A 
ATOM     15  C   UNL d   1      -2.905  -3.697  -3.223  0.00  0.00     0.046 A 
ATOM     16 CL   UNL d   1      -1.620  -4.708  -3.793  0.00  0.00    -0.083 Cl
ATOM     17  C   UNL d   1      -3.374  -2.702  -4.089  0.00  0.00     0.025 A 
ATOM     18  C   UNL d   1      -4.417  -1.867  -3.698  0.00  0.00     0.003 A 
ATOM     19  C   UNL d   1      -4.978  -2.010  -2.430  0.00  0.00     0.025 A 
ATOM     20  C   UNL d   1      -4.505  -2.998  -1.558  0.00  0.00     0.046 A 
ATOM     21 CL   UNL d   1      -5.247  -3.103   0.003  0.00  0.00    -0.083 Cl
ENDBRANCH   1  14
TORSDOF 3
