REMARK  4 active torsions:
REMARK  status: ('A' for Active; 'I' for Inactive)
REMARK    1  A    between atoms: C_5  and  C_1 
REMARK       I    between atoms: N_10  and  C_5 
REMARK    2  A    between atoms: C_18  and  N_10 
REMARK    3  A    between atoms: C_12  and  C_21 
REMARK    4  A    between atoms: C_21  and  C_18 
ROOT
ATOM      1  C   UNL d   1      -2.930  -2.292  -0.187  0.00  0.00     0.257 C 
ATOM      2  O   UNL d   1      -2.665  -3.493  -0.218  0.00  0.00    -0.267 OA
ATOM      3  N   UNL d   1      -4.222  -1.832  -0.240  0.00  0.00    -0.356 N 
ATOM      4  H   UNL d   1      -4.393  -0.826  -0.211  0.00  0.00     0.162 HD
ENDROOT
BRANCH   1   5
ATOM      5  C   UNL d   1      -1.850  -1.258  -0.101  0.00  0.00     0.108 A 
ATOM      6  C   UNL d   1      -2.120   0.197  -0.078  0.00  0.00     0.304 A 
ATOM      7  O   UNL d   1      -1.022   1.054  -0.061  0.00  0.00    -0.274 OA
ATOM      8  O   UNL d   1      -3.264   0.644  -0.082  0.00  0.00    -0.259 OA
ATOM      9  C   UNL d   1       0.296   0.565  -0.021  0.00  0.00     0.089 A 
ATOM     10  C   UNL d   1       0.541  -0.803  -0.000  0.00  0.00    -0.001 A 
ATOM     11  C   UNL d   1       1.333   1.494   0.000  0.00  0.00     0.038 A 
ATOM     12  C   UNL d   1      -0.587  -1.717  -0.054  0.00  0.00     0.037 A 
ATOM     13  C   UNL d   1       1.862  -1.253   0.056  0.00  0.00     0.014 A 
ATOM     14  C   UNL d   1       2.914  -0.332   0.082  0.00  0.00     0.001 A 
ATOM     15  C   UNL d   1       2.650   1.040   0.051  0.00  0.00     0.003 A 
ENDBRANCH   1   5
BRANCH   3  16
ATOM     16  C   UNL d   1      -5.341  -2.749  -0.370  0.00  0.00     0.127 C 
BRANCH  16  17
ATOM     17  C   UNL d   1      -6.690  -2.032  -0.415  0.00  0.00     0.058 C 
BRANCH  17  18
ATOM     18  C   UNL d   1      -7.843  -2.995  -0.574  0.00  0.00    -0.057 A 
ATOM     19  C   UNL d   1      -8.469  -3.548   0.553  0.00  0.00     0.009 A 
ATOM     20  C   UNL d   1      -9.535  -4.440   0.404  0.00  0.00     0.024 A 
ATOM     21  C   UNL d   1      -9.975  -4.788  -0.870  0.00  0.00     0.034 A 
ATOM     22  C   UNL d   1      -9.356  -4.256  -1.999  0.00  0.00     0.024 A 
ATOM     23 CL   UNL d   1     -11.292  -5.881  -1.052  0.00  0.00    -0.084 Cl
ATOM     24  C   UNL d   1      -8.291  -3.364  -1.851  0.00  0.00     0.009 A 
ENDBRANCH  17  18
ENDBRANCH  16  17
ENDBRANCH   3  16
TORSDOF 4
