REMARK  3 active torsions:
REMARK  status: ('A' for Active; 'I' for Inactive)
REMARK    1  A    between atoms: C_6  and  C_1 
REMARK    2  A    between atoms: C_2  and  C_7 
REMARK    3  A    between atoms: C_11  and  C_3 
ROOT
ATOM      1  C   UNL d   1      -0.314   0.876   4.667  0.00  0.00     0.057 C 
ATOM      2  C   UNL d   1      -0.437   1.753   5.684  0.00  0.00     0.053 C 
ATOM      3  C   UNL d   1      -0.067   1.342   3.331  0.00  0.00     0.100 C 
ATOM      4  N   UNL d   1       0.128   1.709   2.247  0.00  0.00    -0.191 NA
ENDROOT
BRANCH   1   5
ATOM      5  C   UNL d   1      -0.399  -0.589   4.931  0.00  0.00    -0.015 A 
ATOM      6  C   UNL d   1      -1.255  -1.108   5.920  0.00  0.00     0.029 A 
ATOM      7  C   UNL d   1      -1.338  -2.490   6.176  0.00  0.00     0.048 A 
ATOM      8  C   UNL d   1      -0.570  -3.369   5.404  0.00  0.00     0.016 A 
ATOM      9  C   UNL d   1       0.269  -2.877   4.407  0.00  0.00     0.002 A 
ATOM     10  C   UNL d   1       0.356  -1.501   4.175  0.00  0.00     0.013 A 
BRANCH   7  11
ATOM     11  C   UNL d   1      -2.233  -3.028   7.267  0.00  0.00     0.417 C 
ATOM     12  F   UNL d   1      -2.882  -2.054   7.966  0.00  0.00    -0.166 F 
ATOM     13  F   UNL d   1      -1.547  -3.754   8.192  0.00  0.00    -0.166 F 
ATOM     14  F   UNL d   1      -3.204  -3.852   6.787  0.00  0.00    -0.166 F 
ENDBRANCH   7  11
ENDBRANCH   1   5
BRANCH   2  15
ATOM     15  C   UNL d   1      -0.375   3.204   5.513  0.00  0.00     0.033 A 
ATOM     16  N   UNL d   1       0.848   3.752   5.660  0.00  0.00    -0.366 N 
ATOM     17  C   UNL d   1       0.948   5.080   5.432  0.00  0.00     0.088 A 
ATOM     18  HN  UNL d   1       1.657   3.192   5.929  1.00  0.00     0.165 HD
ATOM     19  C   UNL d   1      -0.123   5.886   5.081  0.00  0.00     0.017 A 
ATOM     20  C   UNL d   1      -1.377   5.299   4.963  0.00  0.00     0.004 A 
ATOM     21  C   UNL d   1      -1.512   3.932   5.182  0.00  0.00     0.029 A 
ENDBRANCH   2  15
TORSDOF 3
