REMARK  5 active torsions:
REMARK  status: ('A' for Active; 'I' for Inactive)
REMARK    1  A    between atoms: O_11  and  C_1 
REMARK    2  A    between atoms: O_12  and  C_2 
REMARK    3  A    between atoms: O_13  and  C_3 
REMARK    4  A    between atoms: N_10  and  N_6 
REMARK    5  A    between atoms: C_9  and  C_8 
ROOT
ATOM      1  C   UNL d   1       1.387  -0.374  -0.077  0.00  0.00     0.135 A 
ATOM      2  C   UNL d   1       0.438  -1.413   0.099  0.00  0.00     0.105 A 
ATOM      3  C   UNL d   1       0.952   0.951  -0.245  0.00  0.00     0.105 A 
ATOM      4  C   UNL d   1      -0.925  -1.133  -0.003  0.00  0.00     0.052 A 
ATOM      5  C   UNL d   1      -0.422   1.213  -0.314  0.00  0.00     0.052 A 
ATOM      6  C   UNL d   1      -1.353   0.178  -0.208  0.00  0.00    -0.014 A 
ENDROOT
BRANCH   6   7
ATOM      7  C   UNL d   1      -2.802   0.445  -0.291  0.00  0.00     0.112 C 
ATOM      8  N   UNL d   1      -3.274   1.631  -0.524  0.00  0.00    -0.334 N 
ATOM      9  HN  UNL d   1      -2.685   2.451  -0.667  1.00  0.00     0.179 HD
BRANCH   8  10
ATOM     10  N   UNL d   1      -4.625   1.670  -0.560  0.00  0.00    -0.250 NA
ATOM     11  H   UNL d   1      -4.930   2.633  -0.725  0.00  0.00     0.143 HD
ATOM     12  H   UNL d   1      -4.994   1.130  -1.346  0.00  0.00     0.143 HD
ENDBRANCH   8  10
ENDBRANCH   6   7
BRANCH   3  13
ATOM     13  O   UNL d   1       1.700   2.092  -0.369  0.00  0.00    -0.353 OA
ATOM     14  C   UNL d   1       3.107   2.020  -0.200  0.00  0.00     0.210 C 
ENDBRANCH   3  13
BRANCH   2  15
ATOM     15  O   UNL d   1       0.937  -2.666   0.364  0.00  0.00    -0.353 OA
ATOM     16  C   UNL d   1       0.035  -3.621   0.912  0.00  0.00     0.210 C 
ENDBRANCH   2  15
BRANCH   1  17
ATOM     17  O   UNL d   1       2.732  -0.644   0.010  0.00  0.00    -0.351 OA
ATOM     18  C   UNL d   1       3.198  -1.567  -0.975  0.00  0.00     0.210 C 
ENDBRANCH   1  17
TORSDOF 5
