REMARK  7 active torsions:
REMARK  status: ('A' for Active; 'I' for Inactive)
REMARK    1  A    between atoms: C_7  and  C_1 
REMARK    2  A    between atoms: O_21  and  C_2 
REMARK    3  A    between atoms: C_3  and  N_9 
REMARK    4  A    between atoms: N_14  and  C_3 
REMARK    5  A    between atoms: N_9  and  N_5 
REMARK    6  A    between atoms: C_11  and  C_19 
REMARK    7  A    between atoms: C_19  and  N_14 
ROOT
ATOM      1  N   UNL d   1      -1.499   3.890  -0.049  0.00  0.00    -0.302 N 
ATOM      2  HN  UNL d   1      -1.662   4.872  -0.269  1.00  0.00     0.186 HD
ATOM      3  C   UNL d   1      -0.284   3.412   0.027  0.00  0.00     0.035 C 
ATOM      4  C   UNL d   1       0.059   1.952   0.279  0.00  0.00     0.070 C 
ENDROOT
BRANCH   1   5
ATOM      5  N   UNL d   1      -2.539   3.044   0.173  0.00  0.00    -0.276 N 
ATOM      6  H   UNL d   1      -3.327   3.495   0.645  0.00  0.00     0.189 HD
BRANCH   5   7
ATOM      7  C   UNL d   1      -2.962   2.035  -0.675  0.00  0.00     0.186 C 
ATOM      8  S   UNL d   1      -2.490   1.774  -2.254  0.00  0.00    -0.040 SA
BRANCH   7   9
ATOM      9  N   UNL d   1      -3.826   1.143  -0.088  0.00  0.00    -0.360 N 
ATOM     10  H   UNL d   1      -4.120   0.374  -0.678  0.00  0.00     0.162 HD
BRANCH   9  11
ATOM     11  C   UNL d   1      -4.135   1.069   1.330  0.00  0.00     0.187 C 
BRANCH  11  12
ATOM     12  C   UNL d   1      -5.249   1.996   1.636  0.00  0.00     0.070 A 
ATOM     13  O   UNL d   1      -4.913   3.292   1.904  0.00  0.00    -0.325 OA
ATOM     14  C   UNL d   1      -6.068   3.963   2.139  0.00  0.00     0.142 A 
ATOM     15  C   UNL d   1      -7.146   3.118   2.026  0.00  0.00     0.027 A 
ATOM     16  C   UNL d   1      -6.618   1.843   1.702  0.00  0.00     0.036 A 
ENDBRANCH  11  12
ENDBRANCH   9  11
ENDBRANCH   7   9
ENDBRANCH   5   7
ENDBRANCH   1   5
BRANCH   3  17
ATOM     17  C   UNL d   1       0.861   4.390  -0.059  0.00  0.00     0.024 A 
ATOM     18  C   UNL d   1       0.636   5.782  -0.039  0.00  0.00     0.099 A 
ATOM     19  C   UNL d   1       1.720   6.671  -0.015  0.00  0.00     0.069 A 
ATOM     20 CL   UNL d   1       1.486   8.382   0.035  0.00  0.00    -0.081 Cl
ATOM     21  C   UNL d   1       3.030   6.191  -0.012  0.00  0.00     0.050 A 
ATOM     22  C   UNL d   1       3.251   4.820  -0.045  0.00  0.00     0.036 A 
ATOM     23  C   UNL d   1       2.184   3.922  -0.077  0.00  0.00     0.040 A 
ATOM     24 CL   UNL d   1       4.863   4.216  -0.021  0.00  0.00    -0.084 Cl
BRANCH  18  25
ATOM     25  O   UNL d   1      -0.629   6.317  -0.020  0.00  0.00    -0.358 OA
ATOM     26  H   UNL d   1      -1.274   5.578  -0.084  0.00  0.00     0.217 HD
ENDBRANCH  18  25
ENDBRANCH   3  17
TORSDOF 7
