REMARK  4 active torsions:
REMARK  status: ('A' for Active; 'I' for Inactive)
REMARK    1  A    between atoms: C_2  and  S_1 
REMARK    2  A    between atoms: C_4  and  S_1 
REMARK    3  A    between atoms: C_3  and  C_2 
REMARK    4  A    between atoms: C_8  and  C_3 
ROOT
ATOM      1  S   UNL d   1       0.900  -0.045   0.033  0.00  0.00     0.182 S 
ATOM      2  O   UNL d   1       0.248   0.715   1.085  0.00  0.00    -0.222 OA
ATOM      3  O   UNL d   1       2.348  -0.136  -0.001  0.00  0.00    -0.222 OA
ENDROOT
BRANCH   1   4
ATOM      4  C   UNL d   1       0.371   0.605  -1.520  0.00  0.00     0.229 C 
BRANCH   4   5
ATOM      5  C   UNL d   1      -1.123   0.577  -1.621  0.00  0.00     0.173 C 
ATOM      6  O   UNL d   1      -1.695  -0.416  -2.070  0.00  0.00    -0.291 OA
BRANCH   5   7
ATOM      7  C   UNL d   1      -1.938   1.760  -1.203  0.00  0.00     0.011 A 
ATOM      8  C   UNL d   1      -1.371   2.945  -0.721  0.00  0.00     0.015 A 
ATOM      9  C   UNL d   1      -2.188   4.017  -0.351  0.00  0.00     0.001 A 
ATOM     10  C   UNL d   1      -3.573   3.914  -0.457  0.00  0.00     0.000 A 
ATOM     11  C   UNL d   1      -4.148   2.741  -0.936  0.00  0.00     0.001 A 
ATOM     12  C   UNL d   1      -3.334   1.668  -1.308  0.00  0.00     0.015 A 
ENDBRANCH   5   7
ENDBRANCH   4   5
ENDBRANCH   1   4
BRANCH   1  13
ATOM     13  C   UNL d   1       0.286  -1.708   0.075  0.00  0.00     0.059 A 
ATOM     14  C   UNL d   1       0.736  -2.618  -0.885  0.00  0.00     0.024 A 
ATOM     15  C   UNL d   1       0.208  -3.908  -0.905  0.00  0.00     0.008 A 
ATOM     16  C   UNL d   1      -0.752  -4.297   0.039  0.00  0.00    -0.062 A 
ATOM     17  C   UNL d   1      -1.170  -3.380   1.013  0.00  0.00     0.008 A 
ATOM     18  C   UNL d   1      -1.321  -5.684  -0.008  0.00  0.00     0.048 C 
ATOM     19  C   UNL d   1      -0.652  -2.084   1.036  0.00  0.00     0.024 A 
ENDBRANCH   1  13
TORSDOF 4
