REMARK  5 active torsions:
REMARK  status: ('A' for Active; 'I' for Inactive)
REMARK    1  A    between atoms: C_2  and  S_1 
REMARK    2  A    between atoms: N_6  and  S_1 
REMARK    3  A    between atoms: C_10  and  C_3 
REMARK    4  A    between atoms: C_4  and  N_7 
REMARK    5  A    between atoms: O_24  and  C_10 
ROOT
ATOM      1  N   UNL d   1       0.665  -1.180  -0.875  0.00  0.00    -0.304 N 
ATOM      2  N   UNL d   1      -0.659  -3.341   0.565  0.00  0.00    -0.373 N 
ATOM      3  C   UNL d   1      -0.822  -1.272  -0.768  0.00  0.00     0.155 C 
ATOM      4  C   UNL d   1       1.322  -2.519  -0.674  0.00  0.00     0.155 C 
ATOM      5  C   UNL d   1       0.817  -3.292   0.570  0.00  0.00     0.143 C 
ATOM      6  C   UNL d   1      -1.260  -1.995   0.518  0.00  0.00     0.143 C 
ENDROOT
BRANCH   1   7
ATOM      7  S   UNL d   1       1.381   0.143  -0.141  0.00  0.00     0.262 S 
ATOM      8  O   UNL d   1       0.626   0.450   1.054  0.00  0.00    -0.200 OA
ATOM      9  O   UNL d   1       2.811  -0.085  -0.078  0.00  0.00    -0.200 OA
BRANCH   7  10
ATOM     10  C   UNL d   1       1.305   1.641  -1.037  0.00  0.00     0.102 A 
ATOM     11  C   UNL d   1       0.935   1.935  -2.406  0.00  0.00     0.069 A 
ATOM     12  C   UNL d   1       1.122   3.297  -2.650  0.00  0.00     0.068 A 
ATOM     13  S   UNL d   1       1.696   4.182  -1.317  0.00  0.00    -0.111 SA
ATOM     14  C   UNL d   1       1.728   2.780  -0.362  0.00  0.00     0.075 A 
BRANCH  11  15
ATOM     15  C   UNL d   1       0.428   1.073  -3.480  0.00  0.00     0.295 C 
ATOM     16  O   UNL d   1       0.144  -0.104  -3.348  0.00  0.00    -0.259 OA
BRANCH  15  17
ATOM     17  O   UNL d   1       0.259   1.767  -4.647  0.00  0.00    -0.322 OA
ATOM     18  C   UNL d   1      -0.314   1.099  -5.777  0.00  0.00     0.213 C 
ENDBRANCH  15  17
ENDBRANCH  11  15
ENDBRANCH   7  10
ENDBRANCH   1   7
BRANCH   2  19
ATOM     19  C   UNL d   1      -1.420  -4.490   0.812  0.00  0.00     0.104 A 
ATOM     20  C   UNL d   1      -0.939  -5.569   1.752  0.00  0.00     0.213 A 
ATOM     21  C   UNL d   1      -1.863  -6.699   1.991  0.00  0.00     0.050 A 
ATOM     22  O   UNL d   1       0.143  -5.525   2.330  0.00  0.00    -0.285 OA
ATOM     23  C   UNL d   1      -1.541  -7.716   2.897  0.00  0.00     0.018 A 
ATOM     24  C   UNL d   1      -3.079  -6.737   1.314  0.00  0.00     0.089 A 
ATOM     25  C   UNL d   1      -2.440  -8.764   3.116  0.00  0.00     0.001 A 
ATOM     26  C   UNL d   1      -3.656  -8.798   2.432  0.00  0.00     0.003 A 
ATOM     27  C   UNL d   1      -3.976  -7.785   1.529  0.00  0.00     0.038 A 
ATOM     28  O   UNL d   1      -3.461  -5.772   0.424  0.00  0.00    -0.319 OA
ATOM     29  C   UNL d   1      -2.623  -4.705   0.250  0.00  0.00     0.176 A 
ENDBRANCH   2  19
TORSDOF 5
