REMARK  8 active torsions:
REMARK  status: ('A' for Active; 'I' for Inactive)
REMARK    1  A    between atoms: N_2  and  C_1 
REMARK    2  A    between atoms: N_4  and  C_1 
REMARK    3  A    between atoms: C_5  and  N_2 
REMARK    4  A    between atoms: C_20  and  N_4 
REMARK    5  A    between atoms: C_6  and  S_8 
REMARK    6  A    between atoms: S_8  and  C_21 
REMARK    7  A    between atoms: O_19  and  C_9 
REMARK    8  A    between atoms: C_21  and  C_20 
ROOT
ATOM      1  C   UNL d   1       1.101  -0.011   0.031  0.00  0.00     0.172 C 
ATOM      2  S   UNL d   1       0.492  -1.234  -0.932  0.00  0.00    -0.041 SA
ENDROOT
BRANCH   1   3
ATOM      3  N   UNL d   1       0.402   0.856   0.842  0.00  0.00    -0.333 N 
ATOM      4  H   UNL d   1       0.729   1.812   0.779  0.00  0.00     0.168 HD
BRANCH   3   5
ATOM      5  C   UNL d   1      -0.872   0.680   1.417  0.00  0.00     0.034 A 
ATOM      6  C   UNL d   1      -1.321  -0.564   1.864  0.00  0.00     0.032 A 
ATOM      7  C   UNL d   1      -2.592  -0.697   2.433  0.00  0.00     0.039 A 
ATOM      8  C   UNL d   1      -3.425   0.413   2.549  0.00  0.00     0.068 A 
ATOM      9  C   UNL d   1      -2.952   1.669   2.169  0.00  0.00     0.039 A 
ATOM     10  C   UNL d   1      -1.674   1.806   1.616  0.00  0.00     0.032 A 
BRANCH   8  11
ATOM     11  O   UNL d   1      -4.699   0.385   3.049  0.00  0.00    -0.356 OA
ATOM     12  C   UNL d   1      -5.400  -0.836   2.824  0.00  0.00     0.210 C 
ENDBRANCH   8  11
ENDBRANCH   3   5
ENDBRANCH   1   3
BRANCH   1  13
ATOM     13  N   UNL d   1       2.455   0.219  -0.020  0.00  0.00    -0.366 N 
ATOM     14  H   UNL d   1       2.905  -0.465  -0.621  0.00  0.00     0.161 HD
BRANCH  13  15
ATOM     15  C   UNL d   1       3.222   0.610   1.159  0.00  0.00     0.132 C 
BRANCH  15  16
ATOM     16  C   UNL d   1       4.665   0.999   0.837  0.00  0.00     0.099 C 
BRANCH  16  17
ATOM     17  S   UNL d   1       5.519   1.328   2.417  0.00  0.00    -0.128 SA
BRANCH  17  18
ATOM     18  C   UNL d   1       7.085   1.946   1.844  0.00  0.00     0.000 A 
ATOM     19  C   UNL d   1       7.461   3.248   2.195  0.00  0.00     0.020 A 
ATOM     20  C   UNL d   1       8.725   3.735   1.857  0.00  0.00     0.025 A 
ATOM     21  C   UNL d   1       9.621   2.916   1.174  0.00  0.00     0.034 A 
ATOM     22  C   UNL d   1       9.256   1.619   0.815  0.00  0.00     0.025 A 
ATOM     23 CL   UNL d   1      11.193   3.501   0.793  0.00  0.00    -0.084 Cl
ATOM     24  C   UNL d   1       7.988   1.133   1.151  0.00  0.00     0.020 A 
ENDBRANCH  17  18
ENDBRANCH  16  17
ENDBRANCH  15  16
ENDBRANCH  13  15
ENDBRANCH   1  13
TORSDOF 8
