REMARK  5 active torsions:
REMARK  status: ('A' for Active; 'I' for Inactive)
REMARK    1  A    between atoms: N_5  and  C_1 
REMARK       I    between atoms: C_4  and  N_5 
REMARK       I    between atoms: N_9  and  C_4 
REMARK    2  A    between atoms: O_20  and  C_8 
REMARK    3  A    between atoms: C_10  and  N_9 
REMARK    4  A    between atoms: C_23  and  C_16 
REMARK    5  A    between atoms: C_24  and  C_23 
ROOT
ATOM      1  C   UNL d   1       1.359  -3.642   0.910  0.00  0.00     0.170 C 
ATOM      2  N   UNL d   1       1.900  -2.634   0.180  0.00  0.00    -0.166 N 
ATOM      3  N   UNL d   1       2.064  -4.816   0.985  0.00  0.00    -0.228 NA
ATOM      4  N   UNL d   1       0.253  -3.602   1.589  0.00  0.00    -0.375 N 
ATOM      5  HN  UNL d   1      -0.130  -4.352   2.163  1.00  0.00     0.158 HD
ATOM      6  H   UNL d   1       2.908  -2.600   0.128  0.00  0.00     0.187 HD
ATOM      7  H   UNL d   1       1.538  -5.423   1.611  0.00  0.00     0.136 HD
ATOM      8  H   UNL d   1      -0.165  -2.673   1.439  0.00  0.00     0.158 HD
ENDROOT
BRANCH   2   9
ATOM      9  C   UNL d   1       1.340  -1.377   0.007  0.00  0.00     0.686 A 
ATOM     10  N   UNL d   1       0.007  -1.269  -0.116  0.00  0.00    -0.170 N 
ATOM     11  C   UNL d   1      -0.462  -0.033  -0.273  0.00  0.00     0.157 A 
ATOM     12  HN  UNL d   1      -0.607  -2.082  -0.089  1.00  0.00     0.186 HD
ATOM     13  C   UNL d   1       0.289   1.106  -0.250  0.00  0.00     0.082 A 
ATOM     14  C   UNL d   1       1.642   0.915  -0.067  0.00  0.00     0.030 A 
ATOM     15  N   UNL d   1       2.176  -0.324   0.012  0.00  0.00    -0.195 N 
ATOM     16  HN  UNL d   1       3.186  -0.456   0.074  1.00  0.00     0.184 HD
BRANCH  11  17
ATOM     17  O   UNL d   1      -1.810   0.034  -0.411  0.00  0.00    -0.346 OA
ATOM     18  H   UNL d   1      -2.045  -0.911  -0.372  0.00  0.00     0.219 HD
ENDBRANCH  11  17
BRANCH  14  19
ATOM     19  C   UNL d   1       2.504   2.121   0.240  0.00  0.00     0.057 C 
BRANCH  19  20
ATOM     20  C   UNL d   1       4.017   2.014   0.027  0.00  0.00     0.002 C 
ATOM     21  C   UNL d   1       4.749   1.124   1.022  0.00  0.00     0.005 C 
ENDBRANCH  19  20
ENDBRANCH  14  19
ENDBRANCH   2   9
BRANCH   3  22
ATOM     22  C   UNL d   1       2.462  -5.531  -0.175  0.00  0.00     0.054 A 
ATOM     23  C   UNL d   1       3.350  -5.003  -1.127  0.00  0.00     0.140 A 
ATOM     24  C   UNL d   1       3.668  -5.698  -2.294  0.00  0.00     0.086 A 
ATOM     25  F   UNL d   1       3.941  -3.816  -0.923  0.00  0.00    -0.204 F 
ATOM     26  C   UNL d   1       3.103  -6.946  -2.504  0.00  0.00     0.119 A 
ATOM     27  C   UNL d   1       2.242  -7.514  -1.572  0.00  0.00     0.044 A 
ATOM     28  F   UNL d   1       3.397  -7.621  -3.623  0.00  0.00    -0.206 F 
ATOM     29  C   UNL d   1       1.922  -6.807  -0.409  0.00  0.00     0.030 A 
ENDBRANCH   3  22
TORSDOF 5
