REMARK  8 active torsions:
REMARK  status: ('A' for Active; 'I' for Inactive)
REMARK    1  A    between atoms: N_4  and  C_1 
REMARK    2  A    between atoms: S_2  and  C_3 
REMARK    3  A    between atoms: N_15  and  S_2 
REMARK    4  A    between atoms: N_5  and  C_7 
REMARK    5  A    between atoms: C_19  and  N_15 
REMARK    6  A    between atoms: N_17  and  C_20 
REMARK    7  A    between atoms: C_18  and  C_19 
REMARK    8  A    between atoms: C_20  and  C_18 
ROOT
ATOM      1  C   UNL d   1       0.590  -2.013  -2.606  0.00  0.00     0.128 A 
ATOM      2  C   UNL d   1       0.424  -3.033  -1.664  0.00  0.00     0.112 A 
ATOM      3  C   UNL d   1      -0.043  -2.073  -3.863  0.00  0.00     0.073 A 
ATOM      4  C   UNL d   1      -0.881  -3.156  -4.152  0.00  0.00     0.105 A 
ATOM      5  C   UNL d   1      -0.418  -4.114  -1.973  0.00  0.00     0.030 A 
ATOM      6  C   UNL d   1      -1.074  -4.176  -3.210  0.00  0.00     0.038 A 
ENDROOT
BRANCH   2   7
ATOM      7  S   UNL d   1       1.044  -2.903  -0.008  0.00  0.00     0.261 S 
ATOM      8  O   UNL d   1       0.801  -1.546   0.414  0.00  0.00    -0.200 OA
ATOM      9  O   UNL d   1       0.530  -4.024   0.751  0.00  0.00    -0.200 OA
BRANCH   7  10
ATOM     10  N   UNL d   1       2.695  -3.097  -0.149  0.00  0.00    -0.315 N 
ATOM     11  H   UNL d   1       3.217  -2.358   0.328  0.00  0.00     0.172 HD
BRANCH  10  12
ATOM     12  C   UNL d   1       3.285  -4.436  -0.224  0.00  0.00     0.134 C 
BRANCH  12  13
ATOM     13  C   UNL d   1       4.804  -4.302  -0.346  0.00  0.00     0.050 C 
BRANCH  13  14
ATOM     14  C   UNL d   1       5.516  -5.657  -0.447  0.00  0.00     0.273 C 
BRANCH  14  15
ATOM     15  N   UNL d   1       5.088  -6.489  -1.584  0.00  0.00     0.080 N 
ATOM     16  C   UNL d   1       5.395  -5.862  -2.872  0.00  0.00     0.309 C 
ATOM     17  C   UNL d   1       5.740  -7.802  -1.513  0.00  0.00     0.309 C 
ENDBRANCH  14  15
ENDBRANCH  13  14
ENDBRANCH  12  13
ENDBRANCH  10  12
ENDBRANCH   7  10
ENDBRANCH   2   7
BRANCH   1  18
ATOM     18  N   UNL d   1       1.392  -0.831  -2.341  0.00  0.00    -0.114 N 
ATOM     19  O   UNL d   1       2.587  -1.004  -2.074  0.00  0.00    -0.532 OA
ATOM     20  O   UNL d   1       0.837   0.261  -2.502  0.00  0.00    -0.532 OA
ENDBRANCH   1  18
BRANCH   4  21
ATOM     21  N   UNL d   1      -1.584  -3.214  -5.441  0.00  0.00    -0.116 N 
ATOM     22  O   UNL d   1      -1.350  -2.315  -6.259  0.00  0.00    -0.532 OA
ATOM     23  O   UNL d   1      -2.364  -4.158  -5.628  0.00  0.00    -0.532 OA
ENDBRANCH   4  21
TORSDOF 8
