REMARK  2 active torsions:
REMARK  status: ('A' for Active; 'I' for Inactive)
REMARK    1  A    between atoms: C_8  and  C_3 
REMARK    2  A    between atoms: C_10  and  C_7 
ROOT
ATOM      1  N   UNL d   1      -0.808   0.038  -0.005  0.00  0.00    -0.331 N 
ATOM      2  HN  UNL d   1      -1.792  -0.224   0.042  1.00  0.00     0.168 HD
ATOM      3  C   UNL d   1      -0.290   1.221  -0.081  0.00  0.00     0.162 A 
ATOM      4  C   UNL d   1       0.293  -0.774  -0.002  0.00  0.00     0.111 A 
ATOM      5  O   UNL d   1       1.060   1.317  -0.120  0.00  0.00    -0.256 OA
ATOM      6  C   UNL d   1       1.536   0.039  -0.067  0.00  0.00     0.316 A 
ATOM      7  C   UNL d   1       0.306  -2.110   0.026  0.00  0.00     0.047 C 
ATOM      8  O   UNL d   1       2.697  -0.318  -0.079  0.00  0.00    -0.257 OA
ENDROOT
BRANCH   7   9
ATOM      9  C   UNL d   1      -0.919  -2.909   0.045  0.00  0.00    -0.034 A 
ATOM     10  C   UNL d   1      -1.520  -3.297  -1.156  0.00  0.00     0.012 A 
ATOM     11  C   UNL d   1      -2.685  -4.067  -1.144  0.00  0.00     0.007 A 
ATOM     12  C   UNL d   1      -3.266  -4.456   0.069  0.00  0.00    -0.062 A 
ATOM     13  C   UNL d   1      -2.674  -4.046   1.270  0.00  0.00     0.007 A 
ATOM     14  C   UNL d   1      -4.499  -5.310   0.067  0.00  0.00     0.048 C 
ATOM     15  C   UNL d   1      -1.508  -3.276   1.258  0.00  0.00     0.012 A 
ENDBRANCH   7   9
BRANCH   3  16
ATOM     16  C   UNL d   1      -1.037   2.486  -0.133  0.00  0.00     0.015 A 
ATOM     17  C   UNL d   1      -2.429   2.443   0.028  0.00  0.00     0.017 A 
ATOM     18  C   UNL d   1      -3.181   3.617  -0.042  0.00  0.00     0.025 A 
ATOM     19  C   UNL d   1      -2.542   4.833  -0.274  0.00  0.00     0.034 A 
ATOM     20  C   UNL d   1      -1.156   4.885  -0.431  0.00  0.00     0.025 A 
ATOM     21 CL   UNL d   1      -3.469   6.278  -0.375  0.00  0.00    -0.084 Cl
ATOM     22  C   UNL d   1      -0.399   3.711  -0.358  0.00  0.00     0.017 A 
ENDBRANCH   3  16
TORSDOF 2
