REMARK  5 active torsions:
REMARK  status: ('A' for Active; 'I' for Inactive)
REMARK    1  A    between atoms: C_3  and  C_1 
REMARK    2  A    between atoms: C_2  and  C_4 
REMARK    3  A    between atoms: C_6  and  C_5 
REMARK       I    between atoms: N_11  and  C_6 
REMARK    4  A    between atoms: C_7  and  N_12 
REMARK    5  A    between atoms: N_12  and  N_11 
ROOT
ATOM      1  C   UNL d   1       0.665   0.308  -1.276  0.00  0.00     0.049 A 
ATOM      2  C   UNL d   1      -0.560  -0.068  -3.355  0.00  0.00     0.049 A 
ATOM      3  C   UNL d   1       0.198   2.184  -2.770  0.00  0.00     0.035 A 
ATOM      4  C   UNL d   1       0.009  -0.554  -2.170  0.00  0.00     0.032 A 
ATOM      5  C   UNL d   1      -0.456   1.302  -3.646  0.00  0.00     0.033 A 
ATOM      6  C   UNL d   1       0.756   1.678  -1.588  0.00  0.00     0.033 A 
ENDROOT
BRANCH   3   7
ATOM      7  C   UNL d   1       0.205   3.638  -3.117  0.00  0.00     0.270 C 
ATOM      8  N   UNL d   1       0.987   4.474  -2.346  0.00  0.00    -0.264 N 
ATOM      9  H   UNL d   1       1.664   4.174  -1.652  0.00  0.00     0.190 HD
ATOM     10  O   UNL d   1      -0.477   4.057  -4.051  0.00  0.00    -0.266 OA
BRANCH   8  11
ATOM     11  N   UNL d   1       0.937   5.849  -2.605  0.00  0.00    -0.274 N 
ATOM     12  H   UNL d   1       0.359   6.116  -3.401  0.00  0.00     0.189 HD
BRANCH  11  13
ATOM     13  C   UNL d   1       1.919   6.688  -2.146  0.00  0.00     0.184 C 
ATOM     14  S   UNL d   1       3.219   6.258  -1.198  0.00  0.00    -0.040 SA
ATOM     15  N   UNL d   1       1.744   7.984  -2.517  0.00  0.00    -0.375 N 
ATOM     16  H   UNL d   1       0.820   8.318  -2.757  0.00  0.00     0.158 HD
ATOM     17  H   UNL d   1       2.374   8.667  -2.114  0.00  0.00     0.158 HD
ENDBRANCH  11  13
ENDBRANCH   8  11
ENDBRANCH   3   7
BRANCH   1  18
ATOM     18  C   UNL d   1       1.268  -0.207   0.012  0.00  0.00     0.417 C 
ATOM     19  F   UNL d   1       0.966  -1.507   0.272  0.00  0.00    -0.166 F 
ATOM     20  F   UNL d   1       0.847   0.502   1.095  0.00  0.00    -0.166 F 
ATOM     21  F   UNL d   1       2.625  -0.124   0.013  0.00  0.00    -0.166 F 
ENDBRANCH   1  18
BRANCH   2  22
ATOM     22  C   UNL d   1      -1.291  -0.985  -4.310  0.00  0.00     0.417 C 
ATOM     23  F   UNL d   1      -1.360  -2.273  -3.873  0.00  0.00    -0.166 F 
ATOM     24  F   UNL d   1      -2.578  -0.595  -4.523  0.00  0.00    -0.166 F 
ATOM     25  F   UNL d   1      -0.702  -1.036  -5.535  0.00  0.00    -0.166 F 
ENDBRANCH   2  22
TORSDOF 5
