REMARK  1 active torsions:
REMARK  status: ('A' for Active; 'I' for Inactive)
REMARK    1  A    between atoms: C_7  and  C_4 
ROOT
ATOM      1  C   UNL d   1       1.220  -1.405   0.037  0.00  0.00     0.189 C 
ATOM      2  C   UNL d   1       2.249  -0.702  -0.772  0.00  0.00    -0.006 C 
ATOM      3  C   UNL d   1      -0.131  -0.788   0.063  0.00  0.00     0.021 A 
ATOM      4  C   UNL d   1       2.595  -1.316  -1.922  0.00  0.00     0.022 C 
ATOM      5  O   UNL d   1       1.428  -2.503   0.535  0.00  0.00    -0.287 OA
ATOM      6  C   UNL d   1      -0.361   0.565   0.368  0.00  0.00    -0.044 A 
ATOM      7  C   UNL d   1       2.818   0.579  -0.234  0.00  0.00     0.043 C 
ATOM      8  C   UNL d   1      -1.203  -1.629  -0.275  0.00  0.00     0.016 A 
ATOM      9  C   UNL d   1       1.815   1.725  -0.199  0.00  0.00     0.009 C 
ATOM     10  C   UNL d   1       0.725   1.495   0.841  0.00  0.00     0.040 C 
ATOM     11  C   UNL d   1      -1.675   1.057   0.280  0.00  0.00     0.008 A 
ATOM     12  C   UNL d   1      -2.499  -1.121  -0.355  0.00  0.00     0.001 A 
ATOM     13  C   UNL d   1      -2.732   0.224  -0.088  0.00  0.00     0.001 A 
ENDROOT
BRANCH   4  14
ATOM     14  C   UNL d   1       3.520  -0.692  -2.866  0.00  0.00    -0.036 A 
ATOM     15  C   UNL d   1       4.901  -0.852  -2.728  0.00  0.00     0.012 A 
ATOM     16  C   UNL d   1       5.770  -0.069  -3.492  0.00  0.00     0.007 A 
ATOM     17  C   UNL d   1       5.267   0.872  -4.400  0.00  0.00    -0.062 A 
ATOM     18  C   UNL d   1       3.884   0.983  -4.576  0.00  0.00     0.007 A 
ATOM     19  C   UNL d   1       6.205   1.796  -5.119  0.00  0.00     0.048 C 
ATOM     20  C   UNL d   1       3.014   0.203  -3.814  0.00  0.00     0.012 A 
ENDBRANCH   4  14
TORSDOF 1
