REMARK  2 active torsions:
REMARK  status: ('A' for Active; 'I' for Inactive)
REMARK    1  A    between atoms: C_8  and  C_3 
REMARK    2  A    between atoms: S_9  and  C_6 
ROOT
ATOM      1  N   UNL d   1       0.026  -0.638  -0.914  0.00  0.00    -0.329 N 
ATOM      2  HN  UNL d   1       0.101  -1.271  -1.710  1.00  0.00     0.168 HD
ATOM      3  C   UNL d   1       0.998  -0.454   0.081  0.00  0.00     0.123 A 
ATOM      4  N   UNL d   1       0.735   0.414   1.070  0.00  0.00    -0.310 N 
ATOM      5  HN  UNL d   1       1.345   0.638   1.856  1.00  0.00     0.176 HD
ATOM      6  C   UNL d   1      -0.996   0.142  -0.648  0.00  0.00     0.127 A 
ATOM      7  S   UNL d   1      -0.774   1.059   0.773  0.00  0.00     0.012 SA
ENDROOT
BRANCH   3   8
ATOM      8  C   UNL d   1       2.266  -1.190   0.015  0.00  0.00     0.009 A 
ATOM      9  C   UNL d   1       2.515  -2.090  -1.033  0.00  0.00     0.015 A 
ATOM     10  C   UNL d   1       3.731  -2.775  -1.111  0.00  0.00     0.001 A 
ATOM     11  C   UNL d   1       4.712  -2.572  -0.143  0.00  0.00     0.000 A 
ATOM     12  C   UNL d   1       4.477  -1.688   0.908  0.00  0.00     0.001 A 
ATOM     13  C   UNL d   1       3.262  -1.003   0.987  0.00  0.00     0.015 A 
ENDBRANCH   3   8
BRANCH   6  14
ATOM     14  S   UNL d   1      -2.403   0.203  -1.663  0.00  0.00    -0.117 SA
ATOM     15  H   UNL d   1      -2.000  -0.740  -2.525  0.00  0.00     0.109 HD
ENDBRANCH   6  14
TORSDOF 2
