REMARK  8 active torsions:
REMARK  status: ('A' for Active; 'I' for Inactive)
REMARK    1  A    between atoms: N_2  and  C_1 
REMARK    2  A    between atoms: C_5  and  C_1 
REMARK    3  A    between atoms: C_6  and  C_1 
REMARK    4  A    between atoms: N_7  and  C_1 
REMARK       I    between atoms: C_3  and  N_2 
REMARK    5  A    between atoms: C_4  and  C_3 
REMARK    6  A    between atoms: C_8  and  C_4 
REMARK    7  A    between atoms: C_9  and  C_4 
REMARK    8  A    between atoms: C_10  and  N_7 
ROOT
ATOM      1  C   UNL d   1       0.561  -0.116  -0.014  0.00  0.00     0.306 C 
ENDROOT
BRANCH   1   2
ATOM      2  N   UNL d   1       0.103   0.392  -1.344  0.00  0.00    -0.319 N 
ATOM      3  C   UNL d   1       0.193   1.683  -1.808  0.00  0.00     0.241 C 
ATOM      4  O   UNL d   1       0.521   2.604  -1.073  0.00  0.00    -0.272 OA
ATOM      5  H   UNL d   1      -0.150  -0.353  -1.989  0.00  0.00     0.165 HD
BRANCH   3   6
ATOM      6  C   UNL d   1      -0.079   1.836  -3.271  0.00  0.00     0.291 C 
BRANCH   6   7
ATOM      7  C   UNL d   1      -1.492   1.486  -3.562  0.00  0.00     0.408 C 
ATOM      8  F   UNL d   1      -1.714   0.178  -3.271  0.00  0.00    -0.170 F 
ATOM      9  F   UNL d   1      -2.372   2.201  -2.841  0.00  0.00    -0.170 F 
ATOM     10  F   UNL d   1      -1.790   1.638  -4.873  0.00  0.00    -0.170 F 
ENDBRANCH   6   7
BRANCH   6  11
ATOM     11  C   UNL d   1       0.143   3.228  -3.775  0.00  0.00     0.408 C 
ATOM     12  F   UNL d   1       1.259   3.804  -3.264  0.00  0.00    -0.170 F 
ATOM     13  F   UNL d   1       0.349   3.180  -5.118  0.00  0.00    -0.170 F 
ATOM     14  F   UNL d   1      -0.894   4.052  -3.565  0.00  0.00    -0.170 F 
ENDBRANCH   6  11
ENDBRANCH   3   6
ENDBRANCH   1   2
BRANCH   1  15
ATOM     15  C   UNL d   1      -0.205  -1.425   0.407  0.00  0.00     0.441 C 
ATOM     16  F   UNL d   1      -1.492  -1.375  -0.037  0.00  0.00    -0.166 F 
ATOM     17  F   UNL d   1       0.336  -2.540  -0.143  0.00  0.00    -0.166 F 
ATOM     18  F   UNL d   1      -0.259  -1.675   1.731  0.00  0.00    -0.166 F 
ENDBRANCH   1  15
BRANCH   1  19
ATOM     19  C   UNL d   1       0.230   0.875   1.171  0.00  0.00     0.441 C 
ATOM     20  F   UNL d   1      -1.023   1.372   1.080  0.00  0.00    -0.166 F 
ATOM     21  F   UNL d   1       0.352   0.321   2.399  0.00  0.00    -0.166 F 
ATOM     22  F   UNL d   1       1.101   1.917   1.193  0.00  0.00    -0.166 F 
ENDBRANCH   1  19
BRANCH   1  23
ATOM     23  N   UNL d   1       2.043  -0.278  -0.180  0.00  0.00    -0.347 N 
ATOM     24  H   UNL d   1       2.515   0.542   0.215  0.00  0.00     0.162 HD
BRANCH  23  25
ATOM     25  C   UNL d   1       2.835  -0.897  -1.143  0.00  0.00     0.052 A 
ATOM     26  C   UNL d   1       2.476  -1.711  -2.241  0.00  0.00     0.060 A 
ATOM     27 CL   UNL d   1       0.863  -2.015  -2.792  0.00  0.00    -0.082 Cl
ATOM     28  C   UNL d   1       3.457  -2.314  -3.056  0.00  0.00     0.026 A 
ATOM     29  C   UNL d   1       4.810  -2.137  -2.808  0.00  0.00     0.002 A 
ATOM     30  C   UNL d   1       5.199  -1.359  -1.733  0.00  0.00     0.002 A 
ATOM     31  C   UNL d   1       4.225  -0.764  -0.917  0.00  0.00     0.031 A 
ENDBRANCH  23  25
ENDBRANCH   1  23
TORSDOF 8
