REMARK  4 active torsions:
REMARK  status: ('A' for Active; 'I' for Inactive)
REMARK    1  A    between atoms: C_3  and  C_1 
REMARK    2  A    between atoms: C_5  and  CA_2 
REMARK       I    between atoms: N_4  and  C_3 
REMARK    3  A    between atoms: OXT_16  and  C_5 
REMARK    4  A    between atoms: O_18  and  C_17 
ROOT
ATOM      1  C   UNL d   1      -0.865  -1.398   0.974  0.00  0.00     0.134 A 
ATOM      2  CA  UNL d   1      -1.643  -0.325   1.381  0.00  0.00     0.139 A 
ATOM      3  N   UNL d   1       0.441  -1.522   1.375  0.00  0.00    -0.358 N 
ATOM      4  HN  UNL d   1       1.029  -2.296   1.066  1.00  0.00     0.165 HD
ATOM      5  N   UNL d   1      -1.154   0.677   2.193  0.00  0.00    -0.357 N 
ATOM      6  HN  UNL d   1      -1.718   1.482   2.467  1.00  0.00     0.165 HD
ATOM      7  C   UNL d   1       0.903  -0.558   2.204  0.00  0.00     0.105 A 
ATOM      8  C   UNL d   1       0.127   0.518   2.599  0.00  0.00     0.105 A 
ENDROOT
BRANCH   1   9
ATOM      9  C   UNL d   1      -1.330  -2.369  -0.049  0.00  0.00     0.273 C 
ATOM     10  N   UNL d   1      -1.156  -3.751   0.158  0.00  0.00    -0.346 N 
ATOM     11  C   UNL d   1      -1.404  -4.627  -0.986  0.00  0.00     0.128 C 
ATOM     12  C   UNL d   1      -0.343  -4.311   1.240  0.00  0.00     0.128 C 
ATOM     13  C   UNL d   1      -1.898  -6.008  -0.569  0.00  0.00     0.051 C 
ATOM     14  C   UNL d   1      -1.012  -6.642   0.497  0.00  0.00     0.121 C 
ATOM     15  C   UNL d   1      -0.804  -5.697   1.674  0.00  0.00     0.051 C 
ATOM     16  O   UNL d   1      -1.802  -1.899  -1.084  0.00  0.00    -0.266 OA
BRANCH  14  17
ATOM     17  O   UNL d   1       0.241  -7.048  -0.048  0.00  0.00    -0.395 OA
ATOM     18  H   UNL d   1       0.688  -6.278  -0.435  0.00  0.00     0.210 HD
ENDBRANCH  14  17
ENDBRANCH   1   9
BRANCH   2  19
ATOM     19  C   UNL d   1      -3.087  -0.185   1.062  0.00  0.00     0.196 C 
ATOM     20  O   UNL d   1      -3.844  -1.085   0.750  0.00  0.00    -0.645 OA
BRANCH  19  21
ATOM     21  OXT UNL d   1      -3.489   1.096   1.276  0.00  0.00    -0.772 OA
ATOM     22  HXT UNL d   1      -2.743   1.622   1.647  0.00  0.00     0.167 HD
ENDBRANCH  19  21
ENDBRANCH   2  19
TORSDOF 4
