REMARK  7 active torsions:
REMARK  status: ('A' for Active; 'I' for Inactive)
REMARK    1  A    between atoms: O_9  and  S_1 
REMARK    2  A    between atoms: N_11  and  S_1 
REMARK    3  A    between atoms: C_4  and  C_16 
REMARK    4  A    between atoms: C_10  and  C_5 
REMARK    5  A    between atoms: C_22  and  O_9 
REMARK    6  A    between atoms: O_25  and  C_15 
REMARK    7  A    between atoms: O_26  and  C_17 
ROOT
ATOM      1  N   UNL d   1       2.692   4.087   6.165  0.00  0.00    -0.319 N 
ATOM      2  HN  UNL d   1       3.282   4.610   5.518  1.00  0.00     0.169 HD
ATOM      3  C   UNL d   1       1.756   3.119   5.887  0.00  0.00     0.138 A 
ATOM      4  C   UNL d   1       2.637   4.170   7.476  0.00  0.00     0.182 A 
ATOM      5  N   UNL d   1       1.155   2.611   6.976  0.00  0.00    -0.242 N 
ATOM      6  HN  UNL d   1       0.438   1.887   7.019  1.00  0.00     0.196 HD
ATOM      7  O   UNL d   1       1.740   3.307   8.031  0.00  0.00    -0.217 OA
ENDROOT
BRANCH   3   8
ATOM      8  C   UNL d   1       1.453   2.709   4.523  0.00  0.00     0.010 A 
ATOM      9  C   UNL d   1       2.164   3.242   3.437  0.00  0.00     0.018 A 
ATOM     10  C   UNL d   1       1.855   2.856   2.127  0.00  0.00     0.039 A 
ATOM     11  C   UNL d   1       0.826   1.942   1.892  0.00  0.00     0.090 A 
ATOM     12  C   UNL d   1       0.139   1.382   2.969  0.00  0.00     0.039 A 
ATOM     13  C   UNL d   1       0.441   1.775   4.273  0.00  0.00     0.018 A 
BRANCH  11  14
ATOM     14  O   UNL d   1       0.555   1.647   0.580  0.00  0.00    -0.221 OA
BRANCH  14  15
ATOM     15  S   UNL d   1      -0.947   1.192   0.122  0.00  0.00     0.344 S 
ATOM     16  O   UNL d   1      -1.914   2.079   0.740  0.00  0.00    -0.180 OA
ATOM     17  O   UNL d   1      -1.057  -0.242   0.276  0.00  0.00    -0.180 OA
BRANCH  15  18
ATOM     18  N   UNL d   1      -0.981   1.540  -1.545  0.00  0.00    -0.196 NA
ATOM     19  C   UNL d   1      -0.747   2.957  -1.874  0.00  0.00     0.131 C 
ATOM     20  C   UNL d   1      -0.237   0.607  -2.404  0.00  0.00     0.131 C 
ENDBRANCH  15  18
ENDBRANCH  14  15
ENDBRANCH  11  14
ENDBRANCH   3   8
BRANCH   4  21
ATOM     21  C   UNL d   1       3.335   5.082   8.366  0.00  0.00     0.020 A 
ATOM     22  C   UNL d   1       4.121   6.100   7.800  0.00  0.00     0.055 A 
ATOM     23  C   UNL d   1       4.766   7.066   8.586  0.00  0.00     0.102 A 
ATOM     24  C   UNL d   1       4.644   6.985   9.984  0.00  0.00     0.101 A 
ATOM     25  C   UNL d   1       3.881   5.951  10.551  0.00  0.00     0.040 A 
ATOM     26  C   UNL d   1       3.228   5.010   9.755  0.00  0.00     0.019 A 
BRANCH  23  27
ATOM     27  O   UNL d   1       5.496   8.088   8.044  0.00  0.00    -0.353 OA
ATOM     28  C   UNL d   1       5.598   8.170   6.627  0.00  0.00     0.210 C 
ENDBRANCH  23  27
BRANCH  24  29
ATOM     29  O   UNL d   1       5.183   7.805  10.941  0.00  0.00    -0.353 OA
ATOM     30  C   UNL d   1       5.960   8.918  10.530  0.00  0.00     0.210 C 
ENDBRANCH  24  29
ENDBRANCH   4  21
TORSDOF 7
