REMARK  2 active torsions:
REMARK  status: ('A' for Active; 'I' for Inactive)
REMARK    1  A    between atoms: C_8  and  C_1 
REMARK    2  A    between atoms: O_10  and  C_4 
ROOT
ATOM      1  C   UNL d   1      -1.494   2.426  -0.014  0.00  0.00     0.076 A 
ATOM      2  C   UNL d   1       0.005   2.432  -0.005  0.00  0.00     0.262 A 
ATOM      3  N   UNL d   1       0.664   1.207  -0.022  0.00  0.00    -0.312 N 
ATOM      4  C   UNL d   1      -2.161   1.257  -0.039  0.00  0.00     0.094 A 
ATOM      5  C   UNL d   1      -1.435  -0.022  -0.032  0.00  0.00     0.026 A 
ATOM      6  C   UNL d   1      -0.028  -0.026  -0.024  0.00  0.00     0.056 A 
ATOM      7  O   UNL d   1       0.607   3.506   0.014  0.00  0.00    -0.267 OA
ATOM      8  C   UNL d   1       0.664  -1.243  -0.011  0.00  0.00    -0.030 A 
ATOM      9  C   UNL d   1       2.110   1.266  -0.012  0.00  0.00     0.133 C 
ATOM     10  C   UNL d   1      -2.131  -1.242  -0.024  0.00  0.00     0.016 A 
ATOM     11  C   UNL d   1       2.913  -0.021  -0.063  0.00  0.00     0.025 C 
ATOM     12  C   UNL d   1      -1.446  -2.451  -0.013  0.00  0.00     0.002 A 
ATOM     13  C   UNL d   1      -0.056  -2.450  -0.007  0.00  0.00     0.009 A 
ATOM     14  C   UNL d   1       2.156  -1.329   0.035  0.00  0.00     0.042 C 
ENDROOT
BRANCH   1  15
ATOM     15  C   UNL d   1      -2.217   3.710   0.013  0.00  0.00    -0.018 A 
ATOM     16  C   UNL d   1      -2.541   4.308   1.238  0.00  0.00     0.012 A 
ATOM     17  C   UNL d   1      -3.267   5.499   1.269  0.00  0.00     0.001 A 
ATOM     18  C   UNL d   1      -3.678   6.096   0.077  0.00  0.00     0.000 A 
ATOM     19  C   UNL d   1      -3.356   5.508  -1.146  0.00  0.00     0.001 A 
ATOM     20  C   UNL d   1      -2.625   4.319  -1.180  0.00  0.00     0.012 A 
ENDBRANCH   1  15
BRANCH   4  21
ATOM     21  O   UNL d   1      -3.542   1.154  -0.066  0.00  0.00    -0.359 OA
ATOM     22  H   UNL d   1      -3.927   2.047  -0.101  0.00  0.00     0.217 HD
ENDBRANCH   4  21
TORSDOF 2
