REMARK  5 active torsions:
REMARK  status: ('A' for Active; 'I' for Inactive)
REMARK    1  A    between atoms: C_11  and  C_1 
REMARK       I    between atoms: C_5  and  N_10 
REMARK    2  A    between atoms: C_6  and  C_5 
REMARK    3  A    between atoms: C_7  and  C_8 
REMARK    4  A    between atoms: O_14  and  C_7 
REMARK    5  A    between atoms: N_10  and  C_11 
ROOT
ATOM      1  C   UNL d   1       0.509  -7.525   0.565  0.00  0.00     0.241 C 
ATOM      2  N   UNL d   1       1.404  -8.453   0.087  0.00  0.00    -0.353 N 
ATOM      3  O   UNL d   1       0.819  -6.481   1.119  0.00  0.00    -0.269 OA
ATOM      4  H   UNL d   1       1.075  -9.240  -0.454  0.00  0.00     0.163 HD
ENDROOT
BRANCH   2   5
ATOM      5  C   UNL d   1       2.819  -8.158   0.045  0.00  0.00     0.162 C 
BRANCH   5   6
ATOM      6  C   UNL d   1       3.616  -9.414   0.249  0.00  0.00    -0.022 A 
ATOM      7  C   UNL d   1       3.493 -10.224   1.363  0.00  0.00     0.060 A 
ATOM      8  S   UNL d   1       4.597 -11.517   1.380  0.00  0.00    -0.101 SA
ATOM      9  C   UNL d   1       5.306 -11.027  -0.108  0.00  0.00     0.015 A 
ATOM     10  C   UNL d   1       4.666  -9.899  -0.634  0.00  0.00    -0.011 A 
ATOM     11  C   UNL d   1       6.397 -11.638  -0.759  0.00  0.00     0.019 A 
ATOM     12  C   UNL d   1       5.142  -9.402  -1.876  0.00  0.00     0.013 A 
ATOM     13  C   UNL d   1       6.220 -10.012  -2.532  0.00  0.00     0.001 A 
ATOM     14  C   UNL d   1       6.845 -11.115  -1.971  0.00  0.00     0.001 A 
ENDBRANCH   5   6
ENDBRANCH   2   5
BRANCH   1  15
ATOM     15  C   UNL d   1      -0.900  -7.957   0.397  0.00  0.00     0.080 C 
ATOM     16  C   UNL d   1      -1.952  -7.145   0.224  0.00  0.00     0.086 C 
BRANCH  16  17
ATOM     17  C   UNL d   1      -1.958  -5.687   0.050  0.00  0.00     0.165 C 
ATOM     18  O   UNL d   1      -2.886  -4.967   0.377  0.00  0.00    -0.647 OA
BRANCH  17  19
ATOM     19  O   UNL d   1      -0.913  -5.226  -0.644  0.00  0.00    -0.773 OA
ATOM     20  H   UNL d   1      -1.034  -4.254  -0.639  0.00  0.00     0.167 HD
ENDBRANCH  17  19
ENDBRANCH  16  17
ENDBRANCH   1  15
TORSDOF 5
