REMARK  4 active torsions:
REMARK  status: ('A' for Active; 'I' for Inactive)
REMARK    1  A    between atoms: C_14  and  C_3 
REMARK    2  A    between atoms: C_15  and  C_4 
REMARK       I    between atoms: C_7  and  N_10 
REMARK    3  A    between atoms: C_11  and  C_7 
REMARK    4  A    between atoms: C_8  and  C_12 
ROOT
ATOM      1  C   UNL d   1       4.005  -5.027   1.633  0.00  0.00     0.253 C 
ATOM      2  N   UNL d   1       3.344  -3.976   0.985  0.00  0.00    -0.348 N 
ATOM      3  C   UNL d   1       1.789  -1.888  -0.228  0.00  0.00     0.066 C 
ATOM      4  O   UNL d   1       3.997  -6.183   1.220  0.00  0.00    -0.267 OA
ATOM      5  C   UNL d   1       2.538  -4.286  -0.199  0.00  0.00     0.127 C 
ATOM      6  C   UNL d   1       3.784  -2.586   1.085  0.00  0.00     0.127 C 
ATOM      7  C   UNL d   1       2.577  -1.676   1.075  0.00  0.00     0.033 C 
ATOM      8  C   UNL d   1       1.333  -3.341  -0.336  0.00  0.00     0.033 C 
ENDROOT
BRANCH   3   9
ATOM      9  C   UNL d   1       0.734  -0.847  -0.280  0.00  0.00     0.152 C 
ATOM     10  N   UNL d   1       0.966   0.423  -0.508  0.00  0.00    -0.322 N 
ATOM     11  C   UNL d   1      -0.120   1.035   0.066  0.00  0.00     0.137 C 
ATOM     12  HN  UNL d   1       1.756   0.850  -0.992  1.00  0.00     0.169 HD
ATOM     13  N   UNL d   1      -1.075   0.180   0.471  0.00  0.00    -0.242 N 
ATOM     14  O   UNL d   1      -0.489  -1.082   0.268  0.00  0.00    -0.222 OA
ATOM     15  HN  UNL d   1      -2.002   0.395   0.837  1.00  0.00     0.196 HD
BRANCH  11  16
ATOM     16  C   UNL d   1      -0.066   2.460   0.371  0.00  0.00     0.010 A 
ATOM     17  C   UNL d   1       1.178   3.116   0.313  0.00  0.00     0.017 A 
ATOM     18  C   UNL d   1       1.306   4.452   0.692  0.00  0.00     0.025 A 
ATOM     19  C   UNL d   1       0.183   5.150   1.124  0.00  0.00     0.034 A 
ATOM     20  C   UNL d   1      -1.061   4.519   1.172  0.00  0.00     0.025 A 
ATOM     21 CL   UNL d   1       0.340   6.790   1.615  0.00  0.00    -0.084 Cl
ATOM     22  C   UNL d   1      -1.188   3.176   0.801  0.00  0.00     0.017 A 
ENDBRANCH  11  16
ENDBRANCH   3   9
BRANCH   1  23
ATOM     23  C   UNL d   1       4.741  -4.741   2.895  0.00  0.00     0.033 A 
ATOM     24  C   UNL d   1       4.180  -3.930   3.893  0.00  0.00     0.033 A 
ATOM     25  C   UNL d   1       4.920  -3.593   5.037  0.00  0.00     0.048 A 
ATOM     26  C   UNL d   1       6.195  -4.155   5.207  0.00  0.00     0.016 A 
ATOM     27  C   UNL d   1       6.727  -5.017   4.245  0.00  0.00     0.002 A 
ATOM     28  C   UNL d   1       6.004  -5.306   3.087  0.00  0.00     0.017 A 
BRANCH  25  29
ATOM     29  C   UNL d   1       4.369  -2.630   6.059  0.00  0.00     0.417 C 
ATOM     30  F   UNL d   1       3.253  -1.975   5.633  0.00  0.00    -0.166 F 
ATOM     31  F   UNL d   1       4.026  -3.240   7.226  0.00  0.00    -0.166 F 
ATOM     32  F   UNL d   1       5.262  -1.657   6.390  0.00  0.00    -0.166 F 
ENDBRANCH  25  29
ENDBRANCH   1  23
TORSDOF 4
