REMARK  6 active torsions:
REMARK  status: ('A' for Active; 'I' for Inactive)
REMARK       I    between atoms: N_4  and  C_1 
REMARK    1  A    between atoms: C_9  and  C_1 
REMARK    2  A    between atoms: C_7  and  N_4 
REMARK    3  A    between atoms: C_5  and  C_10 
REMARK    4  A    between atoms: O_14  and  C_5 
REMARK    5  A    between atoms: C_13  and  C_9 
REMARK    6  A    between atoms: C_10  and  C_13 
ROOT
ATOM      1  N   UNL d   1      -4.279   3.891   0.145  0.00  0.00    -0.191 NA
ATOM      2  C   UNL d   1      -3.776   2.996  -0.404  0.00  0.00     0.099 C 
ATOM      3  C   UNL d   1      -1.171   0.546  -1.484  0.00  0.00     0.036 A 
ATOM      4  C   UNL d   1      -3.162   1.883  -1.063  0.00  0.00     0.046 A 
ATOM      5  C   UNL d   1      -1.783   1.682  -0.944  0.00  0.00     0.052 A 
ATOM      6  C   UNL d   1      -3.319  -0.118  -2.404  0.00  0.00     0.004 A 
ATOM      7  C   UNL d   1      -1.941  -0.325  -2.262  0.00  0.00     0.029 A 
ATOM      8  C   UNL d   1      -3.933   0.971  -1.784  0.00  0.00     0.023 A 
ENDROOT
BRANCH   3   9
ATOM      9  N   UNL d   1       0.182   0.206  -1.231  0.00  0.00    -0.327 N 
ATOM     10  C   UNL d   1       0.956   0.743  -0.212  0.00  0.00     0.222 C 
ATOM     11  O   UNL d   1       0.591   1.621   0.566  0.00  0.00    -0.273 OA
ATOM     12  H   UNL d   1       0.543  -0.614  -1.703  0.00  0.00     0.169 HD
BRANCH  10  13
ATOM     13  C   UNL d   1       2.341   0.123  -0.095  0.00  0.00     0.108 C 
BRANCH  13  14
ATOM     14  C   UNL d   1       3.140   0.723   1.088  0.00  0.00    -0.000 C 
ATOM     15  C   UNL d   1       4.632   0.397   0.992  0.00  0.00     0.011 C 
BRANCH  14  16
ATOM     16  C   UNL d   1       2.589   0.389   2.493  0.00  0.00     0.114 C 
BRANCH  16  17
ATOM     17  C   UNL d   1       2.503  -1.078   2.854  0.00  0.00     0.139 C 
ATOM     18  O   UNL d   1       2.780  -2.013   2.122  0.00  0.00    -0.650 OA
BRANCH  17  19
ATOM     19  O   UNL d   1       2.063  -1.264   4.122  0.00  0.00    -0.776 OA
ATOM     20  H   UNL d   1       1.855  -0.431   4.590  0.00  0.00     0.167 HD
ENDBRANCH  17  19
ENDBRANCH  16  17
ENDBRANCH  14  16
ENDBRANCH  13  14
ENDBRANCH  10  13
ENDBRANCH   3   9
TORSDOF 6
