REMARK  1 active torsions:
REMARK  status: ('A' for Active; 'I' for Inactive)
REMARK    1  A    between atoms: C_2  and  N_1 
ROOT
ATOM      1  C   UNL d   1       0.193   0.833   0.847  0.00  0.00     0.110 A 
ATOM      2  C   UNL d   1       0.624   2.140   1.126  0.00  0.00     0.054 A 
ATOM      3  C   UNL d   1      -0.926   0.265   1.480  0.00  0.00    -0.029 A 
ATOM      4  C   UNL d   1      -1.649   1.074   2.371  0.00  0.00     0.010 A 
ATOM      5  C   UNL d   1      -0.095   2.902   2.042  0.00  0.00     0.008 A 
ATOM      6  C   UNL d   1      -1.236   2.381   2.653  0.00  0.00     0.019 A 
ATOM      7  I   UNL d   1       0.539   4.824   2.512  0.00  0.00    -0.045 I 
ATOM      8  C   UNL d   1      -1.392  -1.148   1.269  0.00  0.00     0.050 C 
ENDROOT
BRANCH   1   9
ATOM      9  N   UNL d   1       0.958   0.084  -0.139  0.00  0.00    -0.115 N 
ATOM     10  O   UNL d   1       2.163  -0.079   0.092  0.00  0.00    -0.532 OA
ATOM     11  O   UNL d   1       0.352  -0.313  -1.140  0.00  0.00    -0.532 OA
ENDBRANCH   1   9
TORSDOF 1
