REMARK  1 active torsions:
REMARK  status: ('A' for Active; 'I' for Inactive)
REMARK    1  A    between atoms: C_9  and  N_1 
ROOT
ATOM      1  N   UNL d   1      -1.683  -3.655   2.181  0.00  0.00    -0.195 NA
ATOM      2  C   UNL d   1      -1.111  -3.261   1.251  0.00  0.00     0.080 C 
ATOM      3  C   UNL d   1      -0.429  -2.788   0.046  0.00  0.00     0.272 C 
ENDROOT
BRANCH   3   4
ATOM      4  N   UNL d   1      -0.213  -1.347   0.052  0.00  0.00    -0.282 N 
ATOM      5  N   UNL d   1       1.057  -0.886   0.021  0.00  0.00    -0.301 N 
ATOM      6  C   UNL d   1       0.930   0.447   0.002  0.00  0.00     0.041 A 
ATOM      7  HN  UNL d   1       1.919  -1.431   0.014  1.00  0.00     0.187 HD
ATOM      8  C   UNL d   1       2.134   1.315  -0.013  0.00  0.00     0.071 C 
ATOM      9  C   UNL d   1      -0.426   0.822  -0.007  0.00  0.00     0.058 A 
ATOM     10  C   UNL d   1      -1.157  -0.344   0.002  0.00  0.00     0.045 A 
ATOM     11 BR   UNL d   1      -1.061   2.585  -0.037  0.00  0.00    -0.047 Br
ATOM     12  C   UNL d   1      -2.622  -0.583  -0.019  0.00  0.00     0.071 C 
ENDBRANCH   3   4
TORSDOF 1
