REMARK  3 active torsions:
REMARK  status: ('A' for Active; 'I' for Inactive)
REMARK    1  A    between atoms: N_13  and  C_1 
REMARK    2  A    between atoms: C_16  and  N_4 
REMARK    3  A    between atoms: N_11  and  N_13 
ROOT
ATOM      1  C   UNL d   1      -0.247  -1.326   0.010  0.00  0.00     0.142 C 
ATOM      2  C   UNL d   1       1.150  -0.774  -0.067  0.00  0.00     0.297 C 
ATOM      3  N   UNL d   1      -0.323   0.951   0.299  0.00  0.00    -0.289 N 
ATOM      4  N   UNL d   1       1.051   0.616   0.100  0.00  0.00    -0.217 N 
ATOM      5  C   UNL d   1      -1.041  -0.244   0.128  0.00  0.00     0.058 C 
ATOM      6  O   UNL d   1       2.143  -1.465  -0.266  0.00  0.00    -0.264 OA
ATOM      7  C   UNL d   1      -0.810   2.275  -0.069  0.00  0.00     0.178 C 
ATOM      8  C   UNL d   1      -2.534  -0.315   0.099  0.00  0.00     0.072 C 
ENDROOT
BRANCH   1   9
ATOM      9  N   UNL d   1      -0.481  -2.679  -0.130  0.00  0.00    -0.293 N 
ATOM     10  H   UNL d   1      -1.182  -2.877  -0.853  0.00  0.00     0.187 HD
BRANCH   9  11
ATOM     11  N   UNL d   1      -0.548  -3.457   0.998  0.00  0.00    -0.289 N 
ATOM     12  C   UNL d   1      -0.783  -4.740   0.880  0.00  0.00     0.199 C 
ATOM     13  C   UNL d   1      -0.783  -5.575   2.135  0.00  0.00     0.320 C 
ATOM     14  C   UNL d   1      -1.013  -5.430  -0.432  0.00  0.00     0.320 C 
ATOM     15  O   UNL d   1      -0.365  -6.834   1.942  0.00  0.00    -0.278 OA
ATOM     16  O   UNL d   1      -1.085  -5.123   3.227  0.00  0.00    -0.257 OA
ATOM     17  C   UNL d   1      -0.757  -7.491   0.735  0.00  0.00     0.175 C 
ATOM     18  O   UNL d   1      -0.635  -6.721  -0.459  0.00  0.00    -0.278 OA
ATOM     19  C   UNL d   1       0.164  -8.703   0.575  0.00  0.00     0.080 C 
ATOM     20  C   UNL d   1      -2.203  -7.986   0.878  0.00  0.00     0.080 C 
ATOM     21  O   UNL d   1      -1.477  -4.849  -1.396  0.00  0.00    -0.257 OA
ATOM     22  HN  UNL d   1      -0.417  -3.040   1.919  1.00  0.00     0.187 HD
ENDBRANCH   9  11
ENDBRANCH   1   9
BRANCH   4  23
ATOM     23  C   UNL d   1       2.127   1.538   0.044  0.00  0.00     0.060 A 
ATOM     24  C   UNL d   1       3.273   1.234  -0.709  0.00  0.00     0.031 A 
ATOM     25  C   UNL d   1       4.343   2.129  -0.807  0.00  0.00     0.002 A 
ATOM     26  C   UNL d   1       4.290   3.351  -0.146  0.00  0.00     0.000 A 
ATOM     27  C   UNL d   1       3.176   3.665   0.625  0.00  0.00     0.002 A 
ATOM     28  C   UNL d   1       2.112   2.759   0.730  0.00  0.00     0.031 A 
ENDBRANCH   4  23
TORSDOF 3
