REMARK  5 active torsions:
REMARK  status: ('A' for Active; 'I' for Inactive)
REMARK    1  A    between atoms: C_8  and  C_1 
REMARK    2  A    between atoms: O_2  and  C_11 
REMARK    3  A    between atoms: C_7  and  O_2 
REMARK    4  A    between atoms: N_10  and  C_8 
REMARK    5  A    between atoms: C_13  and  N_10 
ROOT
ATOM      1  C   UNL d   1       0.274  -0.361   0.389  0.00  0.00     0.139 C 
ATOM      2  C   UNL d   1       1.438   0.234   0.952  0.00  0.00     0.112 C 
ATOM      3  C   UNL d   1      -0.846   0.465   0.102  0.00  0.00     0.112 C 
ATOM      4  N   UNL d   1       2.402   0.678   1.420  0.00  0.00    -0.191 NA
ATOM      5  N   UNL d   1      -1.769   1.134  -0.122  0.00  0.00    -0.191 NA
ENDROOT
BRANCH   1   6
ATOM      6  C   UNL d   1       0.210  -1.687   0.153  0.00  0.00     0.122 C 
BRANCH   6   7
ATOM      7  N   UNL d   1       1.162  -2.644   0.413  0.00  0.00    -0.362 N 
ATOM      8  H   UNL d   1       2.025  -2.315   0.843  0.00  0.00     0.165 HD
BRANCH   7   9
ATOM      9  C   UNL d   1       1.173  -4.035   0.159  0.00  0.00     0.066 A 
ATOM     10  C   UNL d   1       0.357  -4.735  -0.752  0.00  0.00     0.102 A 
ATOM     11  C   UNL d   1       0.526  -6.124  -0.920  0.00  0.00     0.039 A 
ATOM     12  C   UNL d   1       1.399  -6.846  -0.110  0.00  0.00     0.003 A 
ATOM     13  C   UNL d   1       2.152  -6.181   0.845  0.00  0.00     0.002 A 
ATOM     14  C   UNL d   1       2.050  -4.794   0.964  0.00  0.00     0.032 A 
BRANCH  10  15
ATOM     15  O   UNL d   1      -0.536  -4.035  -1.544  0.00  0.00    -0.307 OA
BRANCH  15  16
ATOM     16  C   UNL d   1      -1.724  -4.643  -1.903  0.00  0.00     0.098 A 
ATOM     17  C   UNL d   1      -2.197  -4.470  -3.211  0.00  0.00     0.069 A 
ATOM     18  C   UNL d   1      -3.377  -5.093  -3.624  0.00  0.00     0.050 A 
ATOM     19 CL   UNL d   1      -1.336  -3.506  -4.356  0.00  0.00    -0.081 Cl
ATOM     20  C   UNL d   1      -4.090  -5.881  -2.723  0.00  0.00     0.035 A 
ATOM     21  C   UNL d   1      -3.654  -6.026  -1.407  0.00  0.00     0.026 A 
ATOM     22 CL   UNL d   1      -5.524  -6.683  -3.235  0.00  0.00    -0.084 Cl
ATOM     23  C   UNL d   1      -2.484  -5.388  -0.990  0.00  0.00     0.041 A 
ENDBRANCH  15  16
ENDBRANCH  10  15
ENDBRANCH   7   9
ENDBRANCH   6   7
ENDBRANCH   1   6
TORSDOF 5
