REMARK  4 active torsions:
REMARK  status: ('A' for Active; 'I' for Inactive)
REMARK       I    between atoms: N_2  and  C_1 
REMARK    1  A    between atoms: O_5  and  C_1 
REMARK    2  A    between atoms: C_3  and  C_4 
REMARK    3  A    between atoms: O_9  and  C_4 
REMARK    4  A    between atoms: C_8  and  O_5 
ROOT
ATOM      1  C   UNL d   1       0.921   0.092   0.130  0.00  0.00     0.364 C 
ATOM      2  N   UNL d   1       0.466   0.415   1.402  0.00  0.00    -0.313 N 
ATOM      3  C   UNL d   1      -0.656  -0.367   1.972  0.00  0.00     0.187 C 
ATOM      4  O   UNL d   1       0.529  -0.890  -0.481  0.00  0.00    -0.238 OA
ATOM      5  C   UNL d   1       0.793   1.669   2.089  0.00  0.00     0.129 C 
ATOM      6  C   UNL d   1      -1.902   0.511   2.119  0.00  0.00     0.036 C 
ATOM      7  C   UNL d   1      -0.437   2.564   2.210  0.00  0.00     0.020 C 
ATOM      8  C   UNL d   1      -1.609   1.821   2.850  0.00  0.00     0.004 C 
ENDROOT
BRANCH   1   9
ATOM      9  O   UNL d   1       1.859   0.961  -0.332  0.00  0.00    -0.294 OA
BRANCH   9  10
ATOM     10  C   UNL d   1       2.424   0.800  -1.663  0.00  0.00     0.061 C 
ATOM     11  C   UNL d   1       1.357   1.010  -2.745  0.00  0.00     0.046 C 
ATOM     12  C   UNL d   1       3.471   1.919  -1.796  0.00  0.00     0.046 C 
ATOM     13  C   UNL d   1       3.144  -0.546  -1.821  0.00  0.00     0.046 C 
ENDBRANCH   9  10
ENDBRANCH   1   9
BRANCH   3  14
ATOM     14  C   UNL d   1      -0.263  -1.066   3.284  0.00  0.00     0.163 C 
ATOM     15  O   UNL d   1      -1.054  -1.505   4.104  0.00  0.00    -0.648 OA
BRANCH  14  16
ATOM     16  O   UNL d   1       1.077  -1.234   3.416  0.00  0.00    -0.775 OA
ATOM     17  H   UNL d   1       1.538  -0.882   2.626  0.00  0.00     0.167 HD
ENDBRANCH  14  16
ENDBRANCH   3  14
TORSDOF 4
