REMARK  5 active torsions:
REMARK  status: ('A' for Active; 'I' for Inactive)
REMARK    1  A    between atoms: C_12  and  C_1 
REMARK    2  A    between atoms: C_3  and  N_10 
REMARK    3  A    between atoms: N_7  and  C_3 
REMARK    4  A    between atoms: C_6  and  N_7 
REMARK    5  A    between atoms: N_10  and  C_12 
ROOT
ATOM      1  C   UNL d   1      -0.289  -5.103   0.213  0.00  0.00     0.172 C 
ATOM      2  S   UNL d   1       0.955  -6.164   0.543  0.00  0.00    -0.041 SA
ENDROOT
BRANCH   1   3
ATOM      3  N   UNL d   1      -0.170  -3.776  -0.108  0.00  0.00    -0.363 N 
ATOM      4  H   UNL d   1      -1.002  -3.220   0.049  0.00  0.00     0.162 HD
BRANCH   3   5
ATOM      5  C   UNL d   1       1.039  -3.042  -0.444  0.00  0.00     0.162 C 
BRANCH   5   6
ATOM      6  C   UNL d   1       1.525  -2.215   0.712  0.00  0.00    -0.022 A 
ATOM      7  C   UNL d   1       2.060  -2.749   1.870  0.00  0.00     0.060 A 
ATOM      8  S   UNL d   1       2.630  -1.575   2.958  0.00  0.00    -0.101 SA
ATOM      9  C   UNL d   1       2.193  -0.288   1.908  0.00  0.00     0.015 A 
ATOM     10  C   UNL d   1       1.587  -0.760   0.738  0.00  0.00    -0.011 A 
ATOM     11  C   UNL d   1       2.402   1.087   2.141  0.00  0.00     0.019 A 
ATOM     12  C   UNL d   1       1.173   0.211  -0.213  0.00  0.00     0.013 A 
ATOM     13  C   UNL d   1       1.373   1.578   0.016  0.00  0.00     0.001 A 
ATOM     14  C   UNL d   1       1.987   2.010   1.181  0.00  0.00     0.001 A 
ENDBRANCH   5   6
ENDBRANCH   3   5
ENDBRANCH   1   3
BRANCH   1  15
ATOM     15  N   UNL d   1      -1.575  -5.566   0.306  0.00  0.00    -0.332 N 
ATOM     16  H   UNL d   1      -1.687  -6.390   0.895  0.00  0.00     0.168 HD
BRANCH  15  17
ATOM     17  C   UNL d   1      -2.659  -5.341  -0.586  0.00  0.00     0.058 A 
ATOM     18  C   UNL d   1      -3.934  -5.852  -0.264  0.00  0.00     0.082 A 
ATOM     19  C   UNL d   1      -4.993  -5.723  -1.177  0.00  0.00     0.058 A 
ATOM     20 CL   UNL d   1      -4.172  -6.633   1.271  0.00  0.00    -0.080 Cl
ATOM     21 CL   UNL d   1      -6.585  -6.312  -0.847  0.00  0.00    -0.082 Cl
ATOM     22  C   UNL d   1      -4.781  -5.109  -2.414  0.00  0.00     0.026 A 
ATOM     23  C   UNL d   1      -3.521  -4.616  -2.742  0.00  0.00     0.004 A 
ATOM     24  C   UNL d   1      -2.468  -4.728  -1.832  0.00  0.00     0.031 A 
ENDBRANCH  15  17
ENDBRANCH   1  15
TORSDOF 5
