REMARK  2 active torsions:
REMARK  status: ('A' for Active; 'I' for Inactive)
REMARK    1  A    between atoms: N_5  and  C_3 
REMARK       I    between atoms: C_4  and  N_5 
REMARK    2  A    between atoms: C_7  and  C_4 
ROOT
ATOM      1  C   UNL d   1       0.037  -1.127   0.295  0.00  0.00    -0.016 C 
ATOM      2  C   UNL d   1       0.041  -0.038   1.421  0.00  0.00    -0.035 C 
ATOM      3  C   UNL d   1      -1.189  -0.699  -0.590  0.00  0.00     0.094 C 
ATOM      4  C   UNL d   1       0.114   1.102   0.375  0.00  0.00    -0.004 C 
ATOM      5  C   UNL d   1      -1.113   0.846  -0.529  0.00  0.00     0.031 C 
ATOM      6  C   UNL d   1       1.337  -0.793  -0.486  0.00  0.00     0.012 C 
ATOM      7  C   UNL d   1       1.362   0.744  -0.465  0.00  0.00     0.006 C 
ATOM      8  C   UNL d   1      -0.014  -2.567   0.773  0.00  0.00     0.018 C 
ATOM      9  C   UNL d   1       1.243  -0.063   2.389  0.00  0.00     0.016 C 
ATOM     10  C   UNL d   1      -1.217  -0.000   2.314  0.00  0.00     0.016 C 
ENDROOT
BRANCH   3  11
ATOM     11  N   UNL d   1      -1.176  -1.185  -1.961  0.00  0.00    -0.350 N 
ATOM     12  C   UNL d   1      -1.843  -2.320  -2.374  0.00  0.00     0.275 C 
ATOM     13  O   UNL d   1      -2.465  -3.038  -1.593  0.00  0.00    -0.265 OA
ATOM     14  H   UNL d   1      -0.629  -0.702  -2.666  0.00  0.00     0.163 HD
BRANCH  12  15
ATOM     15  C   UNL d   1      -1.753  -2.592  -3.795  0.00  0.00     0.142 A 
ATOM     16  O   UNL d   1      -1.114  -1.700  -4.624  0.00  0.00    -0.317 OA
ATOM     17  C   UNL d   1      -1.195  -2.196  -5.888  0.00  0.00     0.143 A 
ATOM     18  C   UNL d   1      -1.862  -3.397  -5.894  0.00  0.00     0.027 A 
ATOM     19  C   UNL d   1      -2.238  -3.645  -4.554  0.00  0.00     0.045 A 
ENDBRANCH  12  15
ENDBRANCH   3  11
TORSDOF 2
