REMARK  3 active torsions:
REMARK  status: ('A' for Active; 'I' for Inactive)
REMARK    1  A    between atoms: C_9  and  C_6 
REMARK    2  A    between atoms: C_10  and  C_7 
REMARK    3  A    between atoms: S_17  and  C_8 
ROOT
ATOM      1  C   UNL d   1      -0.602   0.089  -0.007  0.00  0.00     0.101 A 
ATOM      2  N   UNL d   1       1.484   1.252  -0.016  0.00  0.00    -0.347 N 
ATOM      3  HN  UNL d   1       2.013   2.124  -0.013  1.00  0.00     0.167 HD
ATOM      4  N   UNL d   1       1.474  -1.103  -0.016  0.00  0.00    -0.339 N 
ATOM      5  HN  UNL d   1       1.987  -1.984  -0.012  1.00  0.00     0.168 HD
ATOM      6  C   UNL d   1       2.123   0.070  -0.028  0.00  0.00     0.086 A 
ATOM      7  C   UNL d   1       0.128   1.272  -0.009  0.00  0.00     0.038 A 
ATOM      8  C   UNL d   1       0.128  -1.088  -0.009  0.00  0.00     0.093 A 
ATOM      9  C   UNL d   1      -2.027   0.112   0.012  0.00  0.00     0.104 C 
ATOM     10  N   UNL d   1      -3.188   0.163   0.027  0.00  0.00    -0.191 NA
ENDROOT
BRANCH   7  11
ATOM     11  C   UNL d   1      -0.531   2.641   0.050  0.00  0.00     0.037 A 
ATOM     12  C   UNL d   1      -1.322   3.172  -1.124  0.00  0.00     0.011 A 
ATOM     13  C   UNL d   1       0.005   3.780  -0.791  0.00  0.00     0.011 A 
ENDBRANCH   7  11
BRANCH   8  14
ATOM     14  S   UNL d   1      -0.657  -2.702   0.003  0.00  0.00    -0.115 SA
ATOM     15  C   UNL d   1       0.795  -3.795   0.025  0.00  0.00     0.097 C 
ENDBRANCH   8  14
BRANCH   6  16
ATOM     16  C   UNL d   1       3.628   0.049  -0.052  0.00  0.00     0.053 A 
ATOM     17  C   UNL d   1       4.380   0.698  -1.190  0.00  0.00     0.013 A 
ATOM     18  C   UNL d   1       4.349  -0.797  -1.079  0.00  0.00     0.013 A 
ENDBRANCH   6  16
TORSDOF 3
