REMARK  6 active torsions:
REMARK  status: ('A' for Active; 'I' for Inactive)
REMARK    1  A    between atoms: C_8  and  C_1 
REMARK    2  A    between atoms: C_9  and  C_2 
REMARK    3  A    between atoms: N_7  and  C_3 
REMARK       I    between atoms: C_10  and  N_7 
REMARK       I    between atoms: N_14  and  C_10 
REMARK    4  A    between atoms: C_11  and  C_12 
REMARK    5  A    between atoms: C_16  and  N_14 
REMARK    6  A    between atoms: O_27  and  C_25 
ROOT
ATOM      1  C   UNL d   1       1.732   0.590   0.496  0.00  0.00     0.147 C 
ATOM      2  C   UNL d   1       1.716  -0.835   0.302  0.00  0.00     0.053 C 
ATOM      3  C   UNL d   1       0.401  -1.189   0.570  0.00  0.00     0.139 C 
ATOM      4  N   UNL d   1       0.579   1.007   1.057  0.00  0.00    -0.292 N 
ATOM      5  HN  UNL d   1       0.343   1.952   1.359  1.00  0.00     0.187 HD
ATOM      6  N   UNL d   1      -0.193  -0.089   1.136  0.00  0.00    -0.280 N 
ATOM      7  C   UNL d   1      -1.554   0.076   1.588  0.00  0.00     0.179 C 
ENDROOT
BRANCH   3   8
ATOM      8  N   UNL d   1      -0.201  -2.336   0.092  0.00  0.00    -0.292 N 
ATOM      9  C   UNL d   1      -1.140  -3.216   0.659  0.00  0.00     0.326 C 
ATOM     10  N   UNL d   1      -1.200  -3.225   2.020  0.00  0.00    -0.309 N 
ATOM     11  O   UNL d   1      -1.729  -3.890  -0.161  0.00  0.00    -0.247 OA
ATOM     12  H   UNL d   1      -0.537  -2.664   2.533  0.00  0.00     0.170 HD
ATOM     13  H   UNL d   1      -0.084  -2.515  -0.899  0.00  0.00     0.172 HD
BRANCH  10  14
ATOM     14  C   UNL d   1      -2.127  -3.978   2.782  0.00  0.00     0.039 A 
ATOM     15  C   UNL d   1      -3.035  -4.881   2.211  0.00  0.00     0.066 A 
ATOM     16  C   UNL d   1      -4.017  -5.502   2.985  0.00  0.00     0.070 A 
ATOM     17  C   UNL d   1      -4.062  -5.249   4.354  0.00  0.00     0.037 A 
ATOM     18  C   UNL d   1      -3.131  -4.396   4.946  0.00  0.00     0.005 A 
ATOM     19  C   UNL d   1      -2.160  -3.765   4.163  0.00  0.00     0.030 A 
BRANCH  16  20
ATOM     20  O   UNL d   1      -4.980  -6.354   2.518  0.00  0.00    -0.356 OA
ATOM     21  C   UNL d   1      -5.035  -6.569   1.111  0.00  0.00     0.210 C 
ENDBRANCH  16  20
ENDBRANCH  10  14
ENDBRANCH   3   8
BRANCH   2  22
ATOM     22  C   UNL d   1       2.806  -1.767  -0.019  0.00  0.00    -0.019 A 
ATOM     23  C   UNL d   1       4.080  -1.549   0.530  0.00  0.00     0.028 A 
ATOM     24  C   UNL d   1       5.141  -2.454   0.333  0.00  0.00     0.048 A 
ATOM     25  C   UNL d   1       4.903  -3.636  -0.376  0.00  0.00     0.016 A 
ATOM     26  C   UNL d   1       3.650  -3.878  -0.922  0.00  0.00     0.002 A 
ATOM     27  C   UNL d   1       2.622  -2.942  -0.768  0.00  0.00     0.012 A 
BRANCH  24  28
ATOM     28  C   UNL d   1       6.522  -2.176   0.879  0.00  0.00     0.417 C 
ATOM     29  F   UNL d   1       6.638  -0.944   1.446  0.00  0.00    -0.166 F 
ATOM     30  F   UNL d   1       6.886  -3.069   1.839  0.00  0.00    -0.166 F 
ATOM     31  F   UNL d   1       7.482  -2.240  -0.083  0.00  0.00    -0.166 F 
ENDBRANCH  24  28
ENDBRANCH   2  22
BRANCH   1  32
ATOM     32  C   UNL d   1       2.811   1.587   0.123  0.00  0.00     0.434 C 
ATOM     33  F   UNL d   1       3.801   1.030  -0.623  0.00  0.00    -0.165 F 
ATOM     34  F   UNL d   1       2.316   2.612  -0.621  0.00  0.00    -0.165 F 
ATOM     35  F   UNL d   1       3.403   2.129   1.216  0.00  0.00    -0.165 F 
ENDBRANCH   1  32
TORSDOF 6
