REMARK  5 active torsions:
REMARK  status: ('A' for Active; 'I' for Inactive)
REMARK    1  A    between atoms: C_8  and  C_1 
REMARK    2  A    between atoms: C_10  and  N_6 
REMARK    3  A    between atoms: C_12  and  C_10 
REMARK       I    between atoms: C_11  and  N_13 
REMARK       I    between atoms: N_15  and  C_11 
REMARK       I    between atoms: N_14  and  C_12 
REMARK    4  A    between atoms: N_13  and  N_14 
REMARK    5  A    between atoms: C_22  and  N_15 
ROOT
ATOM      1  C   UNL d   1      -0.382  -0.986  -1.359  0.00  0.00     0.146 A 
ATOM      2  N   UNL d   1       0.654  -0.750  -0.531  0.00  0.00    -0.268 N 
ATOM      3  HN  UNL d   1       1.208  -1.404   0.021  1.00  0.00     0.190 HD
ATOM      4  N   UNL d   1      -0.916   0.177  -1.860  0.00  0.00    -0.266 N 
ATOM      5  HN  UNL d   1      -1.716   0.255  -2.488  1.00  0.00     0.186 HD
ATOM      6  N   UNL d   1       0.755   0.589  -0.634  0.00  0.00    -0.207 N 
ATOM      7  N   UNL d   1      -0.196   1.179  -1.371  0.00  0.00    -0.002 NA
ENDROOT
BRANCH   6   8
ATOM      8  C   UNL d   1       1.824   1.334  -0.006  0.00  0.00     0.271 C 
BRANCH   8   9
ATOM      9  C   UNL d   1       3.211   0.747  -0.183  0.00  0.00     0.257 C 
ATOM     10  N   UNL d   1       3.318  -0.585  -0.511  0.00  0.00    -0.265 N 
ATOM     11  H   UNL d   1       2.506  -1.183  -0.692  0.00  0.00     0.190 HD
ATOM     12  O   UNL d   1       4.219   1.430   0.033  0.00  0.00    -0.270 OA
BRANCH  10  13
ATOM     13  N   UNL d   1       4.585  -1.183  -0.596  0.00  0.00    -0.249 N 
ATOM     14  C   UNL d   1       4.734  -2.235  -1.482  0.00  0.00     0.335 C 
ATOM     15  N   UNL d   1       6.043  -2.652  -1.552  0.00  0.00    -0.338 N 
ATOM     16  O   UNL d   1       3.809  -2.735  -2.109  0.00  0.00    -0.246 OA
ATOM     17  H   UNL d   1       6.591  -2.482  -0.719  0.00  0.00     0.164 HD
ATOM     18  H   UNL d   1       5.359  -0.526  -0.525  0.00  0.00     0.192 HD
BRANCH  15  19
ATOM     19  C   UNL d   1       6.452  -3.758  -2.408  0.00  0.00     0.078 C 
ATOM     20  C   UNL d   1       7.953  -3.673  -2.674  0.00  0.00     0.032 C 
ATOM     21  C   UNL d   1       6.098  -5.111  -1.789  0.00  0.00     0.032 C 
ENDBRANCH  15  19
ENDBRANCH  10  13
ENDBRANCH   8   9
ENDBRANCH   6   8
BRANCH   1  22
ATOM     22  C   UNL d   1      -0.760  -2.329  -1.781  0.00  0.00     0.034 A 
ATOM     23  C   UNL d   1      -2.064  -2.708  -2.146  0.00  0.00     0.069 A 
ATOM     24  C   UNL d   1      -2.304  -4.032  -2.565  0.00  0.00     0.056 A 
ATOM     25 CL   UNL d   1      -3.388  -1.588  -2.045  0.00  0.00    -0.082 Cl
ATOM     26 CL   UNL d   1      -3.875  -4.592  -3.034  0.00  0.00    -0.083 Cl
ATOM     27  C   UNL d   1      -1.266  -4.969  -2.618  0.00  0.00     0.026 A 
ATOM     28  C   UNL d   1       0.021  -4.601  -2.254  0.00  0.00     0.003 A 
ATOM     29  C   UNL d   1       0.267  -3.296  -1.840  0.00  0.00     0.017 A 
ENDBRANCH   1  22
TORSDOF 5
