REMARK  4 active torsions:
REMARK  status: ('A' for Active; 'I' for Inactive)
REMARK    1  A    between atoms: N_2  and  C_1 
REMARK    2  A    between atoms: N_6  and  N_2 
REMARK    3  A    between atoms: C_3  and  C_8 
REMARK    4  A    between atoms: O_21  and  C_11 
ROOT
ATOM      1  N   UNL d   1      -0.234   3.798  -0.389  0.00  0.00    -0.320 N 
ATOM      2  HN  UNL d   1       0.477   3.072  -0.482  1.00  0.00     0.181 HD
ATOM      3  C   UNL d   1       0.077   5.053  -0.211  0.00  0.00     0.030 C 
ATOM      4  C   UNL d   1      -0.966   6.154  -0.131  0.00  0.00     0.070 C 
ENDROOT
BRANCH   1   5
ATOM      5  N   UNL d   1      -1.567   3.515  -0.443  0.00  0.00    -0.202 NA
ATOM      6  H   UNL d   1      -2.056   3.637   0.451  0.00  0.00     0.153 HD
BRANCH   5   7
ATOM      7  C   UNL d   1      -1.949   2.268  -1.025  0.00  0.00     0.071 A 
ATOM      8  C   UNL d   1      -3.022   1.549  -0.449  0.00  0.00     0.060 A 
ATOM      9  C   UNL d   1      -3.482   0.346  -0.991  0.00  0.00     0.049 A 
ATOM     10 CL   UNL d   1      -3.816   2.143   0.974  0.00  0.00    -0.082 Cl
ATOM     11  C   UNL d   1      -2.879  -0.159  -2.135  0.00  0.00     0.037 A 
ATOM     12  C   UNL d   1      -1.841   0.533  -2.748  0.00  0.00     0.049 A 
ATOM     13 CL   UNL d   1      -3.443  -1.632  -2.819  0.00  0.00    -0.084 Cl
ATOM     14  C   UNL d   1      -1.394   1.748  -2.212  0.00  0.00     0.060 A 
ATOM     15 CL   UNL d   1      -0.213   2.592  -3.156  0.00  0.00    -0.082 Cl
ENDBRANCH   5   7
ENDBRANCH   1   5
BRANCH   3  16
ATOM     16  C   UNL d   1       1.529   5.424  -0.126  0.00  0.00     0.021 A 
ATOM     17  C   UNL d   1       2.513   4.603  -0.701  0.00  0.00     0.077 A 
ATOM     18  C   UNL d   1       3.857   4.973  -0.685  0.00  0.00     0.039 A 
ATOM     19  C   UNL d   1       4.244   6.161  -0.069  0.00  0.00     0.022 A 
ATOM     20  C   UNL d   1       3.281   6.960   0.542  0.00  0.00     0.012 A 
ATOM     21  C   UNL d   1       1.931   6.600   0.523  0.00  0.00     0.035 A 
ATOM     22 BR   UNL d   1       3.810   8.557   1.407  0.00  0.00    -0.051 Br
BRANCH  17  23
ATOM     23  O   UNL d   1       2.239   3.409  -1.308  0.00  0.00    -0.360 OA
ATOM     24  H   UNL d   1       1.275   3.235  -1.214  0.00  0.00     0.217 HD
ENDBRANCH  17  23
ENDBRANCH   3  16
TORSDOF 4
