REMARK  8 active torsions:
REMARK  status: ('A' for Active; 'I' for Inactive)
REMARK    1  A    between atoms: C_3  and  C_1 
REMARK    2  A    between atoms: C_12  and  C_2 
REMARK    3  A    between atoms: O_10  and  C_3 
REMARK    4  A    between atoms: O_11  and  N_6 
REMARK    5  A    between atoms: C_14  and  C_12 
REMARK    6  A    between atoms: C_17  and  C_14 
REMARK    7  A    between atoms: C_15  and  C_16 
REMARK    8  A    between atoms: C_16  and  C_17 
ROOT
ATOM      1  C   UNL d   1      -1.161   0.319  -0.467  0.00  0.00     0.095 C 
ATOM      2  C   UNL d   1       0.037   1.277  -0.259  0.00  0.00     0.047 C 
ATOM      3  C   UNL d   1       1.180   0.300  -0.028  0.00  0.00     0.015 C 
ATOM      4  C   UNL d   1      -0.535  -1.046  -0.795  0.00  0.00     0.021 C 
ATOM      5  N   UNL d   1       2.402   0.715   0.095  0.00  0.00    -0.277 N 
ATOM      6  HN  UNL d   1       2.689   1.688  -0.003  1.00  0.00     0.193 HD
ATOM      7  C   UNL d   1       0.726  -1.126   0.040  0.00  0.00     0.056 C 
ENDROOT
BRANCH   2   8
ATOM      8  C   UNL d   1      -0.172   2.217   0.949  0.00  0.00     0.011 C 
BRANCH   8   9
ATOM      9  C   UNL d   1       0.978   3.219   1.108  0.00  0.00     0.001 C 
BRANCH   9  10
ATOM     10  C   UNL d   1       0.838   4.155   2.307  0.00  0.00     0.000 C 
BRANCH  10  11
ATOM     11  C   UNL d   1       2.097   5.025   2.406  0.00  0.00    -0.000 C 
BRANCH  11  12
ATOM     12  C   UNL d   1       2.054   5.993   3.583  0.00  0.00    -0.005 C 
ATOM     13  C   UNL d   1       3.316   6.844   3.628  0.00  0.00     0.005 C 
ENDBRANCH  11  12
ENDBRANCH  10  11
ENDBRANCH   9  10
ENDBRANCH   8   9
ENDBRANCH   2   8
BRANCH   1  14
ATOM     14  C   UNL d   1      -2.076   0.759  -1.599  0.00  0.00     0.263 C 
ATOM     15  O   UNL d   1      -2.342   0.093  -2.589  0.00  0.00    -0.265 OA
BRANCH  14  16
ATOM     16  O   UNL d   1      -2.613   1.982  -1.323  0.00  0.00    -0.326 OA
ATOM     17  C   UNL d   1      -3.543   2.437  -2.308  0.00  0.00     0.213 C 
ENDBRANCH  14  16
ENDBRANCH   1  14
BRANCH   5  18
ATOM     18  O   UNL d   1       3.276  -0.336   0.380  0.00  0.00    -0.290 OA
ATOM     19  H   UNL d   1       4.116   0.135   0.538  0.00  0.00     0.244 HD
ENDBRANCH   5  18
TORSDOF 8
