REMARK  7 active torsions:
REMARK  status: ('A' for Active; 'I' for Inactive)
REMARK    1  A    between atoms: N_3  and  S_1 
REMARK    2  A    between atoms: C_9  and  S_1 
REMARK    3  A    between atoms: C_2  and  N_3 
REMARK    4  A    between atoms: N_10  and  C_4 
REMARK    5  A    between atoms: C_20  and  N_10 
REMARK       I    between atoms: C_15  and  N_16 
REMARK    6  A    between atoms: N_16  and  C_21 
REMARK    7  A    between atoms: O_29  and  C_22 
ROOT
ATOM      1  C   UNL d   1       0.951   2.518  -0.907  0.00  0.00     0.139 A 
ATOM      2  C   UNL d   1      -0.158   3.380  -0.989  0.00  0.00     0.146 A 
ATOM      3  N   UNL d   1       2.172   2.897  -0.483  0.00  0.00    -0.341 N 
ATOM      4  HN  UNL d   1       2.947   2.238  -0.402  1.00  0.00     0.167 HD
ATOM      5  N   UNL d   1      -0.008   4.677  -0.631  0.00  0.00    -0.338 N 
ATOM      6  HN  UNL d   1      -0.800   5.320  -0.649  1.00  0.00     0.167 HD
ATOM      7  C   UNL d   1       2.305   4.199  -0.173  0.00  0.00     0.060 A 
ATOM      8  C   UNL d   1       1.210   5.093  -0.252  0.00  0.00     0.060 A 
ATOM      9  C   UNL d   1       1.405   6.433   0.052  0.00  0.00     0.032 A 
ATOM     10  C   UNL d   1       3.547   4.689   0.202  0.00  0.00     0.032 A 
ATOM     11  C   UNL d   1       3.735   6.041   0.495  0.00  0.00     0.002 A 
ATOM     12  C   UNL d   1       2.660   6.916   0.421  0.00  0.00     0.002 A 
ENDROOT
BRANCH   1  13
ATOM     13  N   UNL d   1       0.957   1.174  -1.365  0.00  0.00    -0.163 NA
ATOM     14  H   UNL d   1       1.644   0.642  -0.836  0.00  0.00     0.147 HD
BRANCH  13  15
ATOM     15  S   UNL d   1       1.269   1.028  -3.019  0.00  0.00     0.247 S 
ATOM     16  O   UNL d   1       0.401   1.942  -3.733  0.00  0.00    -0.205 OA
ATOM     17  O   UNL d   1       1.258  -0.390  -3.317  0.00  0.00    -0.205 OA
BRANCH  15  18
ATOM     18  C   UNL d   1       2.959   1.578  -3.192  0.00  0.00     0.075 A 
ATOM     19  C   UNL d   1       4.005   0.667  -3.022  0.00  0.00     0.027 A 
ATOM     20  C   UNL d   1       5.331   1.097  -3.166  0.00  0.00     0.031 A 
ATOM     21  C   UNL d   1       5.622   2.436  -3.469  0.00  0.00     0.034 A 
ATOM     22  C   UNL d   1       4.563   3.330  -3.655  0.00  0.00     0.031 A 
ATOM     23  C   UNL d   1       3.234   2.902  -3.535  0.00  0.00     0.027 A 
BRANCH  21  24
ATOM     24  N   UNL d   1       6.982   2.792  -3.603  0.00  0.00    -0.328 N 
ATOM     25  C   UNL d   1       7.498   4.068  -3.743  0.00  0.00     0.218 C 
ATOM     26  O   UNL d   1       6.875   5.120  -3.653  0.00  0.00    -0.274 OA
ATOM     27  C   UNL d   1       8.981   4.087  -4.026  0.00  0.00     0.117 C 
ATOM     28  H   UNL d   1       7.647   2.031  -3.549  0.00  0.00     0.169 HD
ENDBRANCH  21  24
ENDBRANCH  15  18
ENDBRANCH  13  15
ENDBRANCH   1  13
BRANCH   2  29
ATOM     29  N   UNL d   1      -1.429   2.913  -1.403  0.00  0.00    -0.340 N 
ATOM     30  H   UNL d   1      -1.361   2.526  -2.342  0.00  0.00     0.167 HD
BRANCH  29  31
ATOM     31  C   UNL d   1      -2.655   3.549  -1.110  0.00  0.00     0.033 A 
ATOM     32  C   UNL d   1      -3.697   3.578  -2.043  0.00  0.00     0.032 A 
ATOM     33  C   UNL d   1      -4.910   4.229  -1.752  0.00  0.00     0.039 A 
ATOM     34  C   UNL d   1      -5.101   4.846  -0.516  0.00  0.00     0.068 A 
ATOM     35  C   UNL d   1      -4.090   4.773   0.437  0.00  0.00     0.039 A 
ATOM     36  C   UNL d   1      -2.885   4.131   0.144  0.00  0.00     0.032 A 
BRANCH  34  37
ATOM     37  O   UNL d   1      -6.211   5.533  -0.111  0.00  0.00    -0.356 OA
ATOM     38  C   UNL d   1      -7.178   5.842  -1.105  0.00  0.00     0.210 C 
ENDBRANCH  34  37
ENDBRANCH  29  31
ENDBRANCH   2  29
TORSDOF 7
