REMARK  7 active torsions:
REMARK  status: ('A' for Active; 'I' for Inactive)
REMARK    1  A    between atoms: C_9  and  N_1 
REMARK    2  A    between atoms: S_10  and  C_8 
REMARK    3  A    between atoms: C_23  and  C_9 
REMARK    4  A    between atoms: C_15  and  S_10 
REMARK    5  A    between atoms: O_26  and  C_14 
REMARK    6  A    between atoms: O_27  and  C_19 
REMARK    7  A    between atoms: C_22  and  C_23 
ROOT
ATOM      1  N   UNL d   1       2.217  -0.028   0.127  0.00  0.00    -0.280 N 
ATOM      2  C   UNL d   1       1.563   1.161  -0.185  0.00  0.00     0.261 C 
ATOM      3  C   UNL d   1       1.576  -1.266   0.055  0.00  0.00     0.261 C 
ATOM      4  C   UNL d   1       0.089   1.165  -0.110  0.00  0.00     0.044 A 
ATOM      5  C   UNL d   1      -0.609  -0.042  -0.098  0.00  0.00     0.007 A 
ATOM      6  C   UNL d   1       0.090  -1.257  -0.049  0.00  0.00     0.044 A 
ATOM      7  C   UNL d   1      -2.032  -0.029  -0.144  0.00  0.00    -0.007 A 
ATOM      8  C   UNL d   1      -2.707   1.228  -0.128  0.00  0.00     0.018 A 
ATOM      9  C   UNL d   1      -0.580   2.392  -0.105  0.00  0.00     0.019 A 
ATOM     10  O   UNL d   1       2.166  -2.342   0.038  0.00  0.00    -0.267 OA
ATOM     11  O   UNL d   1       2.123   2.174  -0.587  0.00  0.00    -0.267 OA
ATOM     12  C   UNL d   1      -1.970   2.421  -0.100  0.00  0.00     0.021 A 
ATOM     13  C   UNL d   1      -0.598  -2.475  -0.077  0.00  0.00     0.018 A 
ATOM     14  C   UNL d   1      -2.689  -1.280  -0.202  0.00  0.00     0.014 A 
ATOM     15  C   UNL d   1      -1.984  -2.486  -0.169  0.00  0.00     0.002 A 
ENDROOT
BRANCH   1  16
ATOM     16  C   UNL d   1       3.687  -0.003   0.154  0.00  0.00     0.140 C 
BRANCH  16  17
ATOM     17  C   UNL d   1       4.307   0.526   1.464  0.00  0.00     0.059 C 
BRANCH  17  18
ATOM     18  C   UNL d   1       4.037   1.978   1.802  0.00  0.00    -0.054 A 
ATOM     19  C   UNL d   1       3.325   2.303   2.967  0.00  0.00     0.046 A 
ATOM     20  C   UNL d   1       2.990   3.632   3.278  0.00  0.00     0.102 A 
ATOM     21  C   UNL d   1       3.402   4.657   2.408  0.00  0.00     0.101 A 
ATOM     22  C   UNL d   1       4.123   4.334   1.253  0.00  0.00     0.040 A 
ATOM     23  C   UNL d   1       4.460   3.009   0.964  0.00  0.00     0.010 A 
BRANCH  20  24
ATOM     24  O   UNL d   1       2.237   3.982   4.368  0.00  0.00    -0.353 OA
ATOM     25  C   UNL d   1       1.827   2.945   5.250  0.00  0.00     0.210 C 
ENDBRANCH  20  24
BRANCH  21  26
ATOM     26  O   UNL d   1       3.119   5.994   2.522  0.00  0.00    -0.353 OA
ATOM     27  C   UNL d   1       3.120   6.523   3.842  0.00  0.00     0.210 C 
ENDBRANCH  21  26
ENDBRANCH  17  18
ENDBRANCH  16  17
ENDBRANCH   1  16
BRANCH   8  28
ATOM     28  S   UNL d   1      -4.484   1.401   0.072  0.00  0.00    -0.072 SA
BRANCH  28  29
ATOM     29  C   UNL d   1      -5.113   1.425  -1.597  0.00  0.00     0.074 A 
ATOM     30  N   UNL d   1      -4.467   0.722  -2.553  0.00  0.00    -0.360 N 
ATOM     31  C   UNL d   1      -5.048   0.663  -3.773  0.00  0.00     0.089 A 
ATOM     32  HN  UNL d   1      -3.580   0.255  -2.363  1.00  0.00     0.166 HD
ATOM     33  C   UNL d   1      -6.255   1.267  -4.089  0.00  0.00     0.017 A 
ATOM     34  C   UNL d   1      -6.899   1.998  -3.101  0.00  0.00     0.004 A 
ATOM     35  C   UNL d   1      -6.319   2.083  -1.836  0.00  0.00     0.037 A 
ENDBRANCH  28  29
ENDBRANCH   8  28
TORSDOF 7
