REMARK  4 active torsions:
REMARK  status: ('A' for Active; 'I' for Inactive)
REMARK    1  A    between atoms: N_7  and  C_1 
REMARK    2  A    between atoms: C_10  and  N_4 
REMARK    3  A    between atoms: C_9  and  C_6 
REMARK       I    between atoms: C_8  and  N_7 
REMARK    4  A    between atoms: C_16  and  C_8 
ROOT
ATOM      1  C   UNL d   1      -0.445  -1.236  -0.156  0.00  0.00     0.132 C 
ATOM      2  N   UNL d   1       0.929   0.500   0.390  0.00  0.00    -0.291 N 
ATOM      3  HN  UNL d   1       1.733   1.028   0.728  1.00  0.00     0.187 HD
ATOM      4  N   UNL d   1       0.864  -0.835   0.127  0.00  0.00    -0.240 N 
ATOM      5  C   UNL d   1      -1.183  -0.073  -0.206  0.00  0.00     0.082 C 
ATOM      6  C   UNL d   1      -0.293   0.967   0.109  0.00  0.00     0.069 C 
ENDROOT
BRANCH   1   7
ATOM      7  N   UNL d   1      -0.866  -2.551  -0.326  0.00  0.00    -0.311 N 
ATOM      8  C   UNL d   1      -1.999  -2.864  -1.064  0.00  0.00     0.227 C 
ATOM      9  O   UNL d   1      -2.722  -2.027  -1.614  0.00  0.00    -0.273 OA
ATOM     10  H   UNL d   1      -0.278  -3.304   0.009  0.00  0.00     0.170 HD
BRANCH   8  11
ATOM     11  C   UNL d   1      -2.254  -4.377  -1.219  0.00  0.00     0.078 C 
ATOM     12  C   UNL d   1      -3.747  -4.811  -1.250  0.00  0.00     0.014 C 
ATOM     13  C   UNL d   1      -3.316  -6.110  -0.551  0.00  0.00     0.002 C 
ATOM     14  C   UNL d   1      -2.104  -5.329  -0.004  0.00  0.00     0.014 C 
ENDBRANCH   8  11
ENDBRANCH   1   7
BRANCH   4  15
ATOM     15  C   UNL d   1       2.071  -1.597   0.082  0.00  0.00     0.058 A 
ATOM     16  C   UNL d   1       3.216  -1.107   0.737  0.00  0.00     0.034 A 
ATOM     17  C   UNL d   1       4.410  -1.833   0.703  0.00  0.00     0.044 A 
ATOM     18  C   UNL d   1       4.467  -3.032   0.007  0.00  0.00     0.116 A 
ATOM     19  C   UNL d   1       3.358  -3.516  -0.673  0.00  0.00     0.044 A 
ATOM     20  F   UNL d   1       5.614  -3.726  -0.027  0.00  0.00    -0.206 F 
ATOM     21  C   UNL d   1       2.162  -2.793  -0.648  0.00  0.00     0.034 A 
ENDBRANCH   4  15
BRANCH   6  22
ATOM     22  C   UNL d   1      -0.630   2.429   0.134  0.00  0.00     0.033 A 
ATOM     23  S   UNL d   1      -2.210   3.054  -0.070  0.00  0.00    -0.100 SA
ATOM     24  C   UNL d   1      -1.659   4.668   0.045  0.00  0.00     0.050 A 
ATOM     25  C   UNL d   1      -0.297   4.734   0.227  0.00  0.00     0.008 A 
ATOM     26  C   UNL d   1       0.298   3.439   0.293  0.00  0.00     0.021 A 
ENDBRANCH   6  22
TORSDOF 4
