REMARK  6 active torsions:
REMARK  status: ('A' for Active; 'I' for Inactive)
REMARK    1  A    between atoms: C_2  and  C_1 
REMARK       I    between atoms: N_4  and  C_1 
REMARK    2  A    between atoms: C_16  and  N_4 
REMARK    3  A    between atoms: C_8  and  C_15 
REMARK    4  A    between atoms: S_10  and  C_17 
REMARK    5  A    between atoms: C_15  and  S_10 
REMARK    6  A    between atoms: C_17  and  C_16 
ROOT
ATOM      1  S   UNL d   1       5.481  -0.566  -2.490  0.00  0.00    -0.163 SA
ENDROOT
BRANCH   1   2
ATOM      2  C   UNL d   1       4.825  -0.110  -0.848  0.00  0.00     0.093 C 
BRANCH   2   3
ATOM      3  C   UNL d   1       5.267   1.297  -0.435  0.00  0.00     0.133 C 
BRANCH   3   4
ATOM      4  N   UNL d   1       4.681   1.764   0.806  0.00  0.00    -0.358 N 
ATOM      5  C   UNL d   1       5.060   1.240   2.027  0.00  0.00     0.250 C 
ATOM      6  O   UNL d   1       5.763   0.229   2.096  0.00  0.00    -0.271 OA
ATOM      7  H   UNL d   1       4.238   2.678   0.805  0.00  0.00     0.162 HD
BRANCH   5   8
ATOM      8  C   UNL d   1       4.594   1.986   3.286  0.00  0.00     0.269 C 
ATOM      9 CL   UNL d   1       3.750   3.507   2.896  0.00  0.00    -0.098 Cl
ATOM     10 CL   UNL d   1       3.538   0.929   4.238  0.00  0.00    -0.098 Cl
ENDBRANCH   5   8
ENDBRANCH   3   4
ENDBRANCH   2   3
ENDBRANCH   1   2
BRANCH   1  11
ATOM     11  C   UNL d   1       7.273  -0.513  -2.140  0.00  0.00     0.112 C 
BRANCH  11  12
ATOM     12  C   UNL d   1       8.067  -0.800  -3.388  0.00  0.00    -0.049 A 
ATOM     13  C   UNL d   1       8.462   0.249  -4.234  0.00  0.00     0.009 A 
ATOM     14  C   UNL d   1       9.158  -0.020  -5.414  0.00  0.00     0.024 A 
ATOM     15  C   UNL d   1       9.457  -1.337  -5.754  0.00  0.00     0.034 A 
ATOM     16  C   UNL d   1       9.071  -2.387  -4.922  0.00  0.00     0.024 A 
ATOM     17 CL   UNL d   1      10.296  -1.671  -7.218  0.00  0.00    -0.084 Cl
ATOM     18  C   UNL d   1       8.378  -2.120  -3.745  0.00  0.00     0.009 A 
ENDBRANCH  11  12
ENDBRANCH   1  11
TORSDOF 6
