REMARK  6 active torsions:
REMARK  status: ('A' for Active; 'I' for Inactive)
REMARK    1  A    between atoms: C_9  and  N_1 
REMARK    2  A    between atoms: C_2  and  O_7 
REMARK    3  A    between atoms: C_3  and  C_2 
REMARK    4  A    between atoms: O_7  and  N_4 
REMARK    5  A    between atoms: C_6  and  C_12 
REMARK    6  A    between atoms: N_21  and  C_6 
ROOT
ATOM      1  N   UNL d   1      -3.549   3.277   3.569  0.00  0.00    -0.246 N 
ATOM      2  HN  UNL d   1      -4.203   3.927   4.004  1.00  0.00     0.196 HD
ATOM      3  C   UNL d   1      -2.353   3.594   3.164  0.00  0.00     0.109 C 
ENDROOT
BRANCH   3   4
ATOM      4  C   UNL d   1      -1.892   5.012   3.340  0.00  0.00     0.004 A 
ATOM      5  C   UNL d   1      -0.521   5.301   3.435  0.00  0.00     0.017 A 
ATOM      6  C   UNL d   1      -0.084   6.621   3.594  0.00  0.00     0.037 A 
ATOM      7  C   UNL d   1      -1.023   7.658   3.656  0.00  0.00     0.102 A 
ATOM      8  C   UNL d   1      -2.394   7.381   3.564  0.00  0.00     0.037 A 
ATOM      9  C   UNL d   1      -2.824   6.057   3.410  0.00  0.00     0.017 A 
BRANCH   7  10
ATOM     10  N   UNL d   1      -0.564   9.045   3.821  0.00  0.00    -0.116 N 
ATOM     11  O   UNL d   1      -1.424   9.937   3.848  0.00  0.00    -0.532 OA
ATOM     12  O   UNL d   1       0.655   9.240   3.918  0.00  0.00    -0.532 OA
ENDBRANCH   7  10
ENDBRANCH   3   4
BRANCH   3  13
ATOM     13  N   UNL d   1      -1.492   2.697   2.570  0.00  0.00    -0.286 NA
ATOM     14  H   UNL d   1      -1.959   1.845   2.274  0.00  0.00     0.125 HD
ATOM     15  H   UNL d   1      -0.884   3.070   1.851  0.00  0.00     0.125 HD
ENDBRANCH   3  13
BRANCH   1  16
ATOM     16  O   UNL d   1      -3.820   1.908   3.327  0.00  0.00    -0.193 OA
BRANCH  16  17
ATOM     17  C   UNL d   1      -5.052   1.545   3.832  0.00  0.00     0.322 C 
ATOM     18  O   UNL d   1      -5.815   2.281   4.452  0.00  0.00    -0.257 OA
BRANCH  17  19
ATOM     19  C   UNL d   1      -5.354   0.150   3.517  0.00  0.00     0.082 A 
ATOM     20  S   UNL d   1      -4.267  -0.862   2.653  0.00  0.00    -0.096 SA
ATOM     21  C   UNL d   1      -5.337  -2.194   2.715  0.00  0.00     0.050 A 
ATOM     22  C   UNL d   1      -6.503  -1.890   3.380  0.00  0.00     0.009 A 
ATOM     23  C   UNL d   1      -6.510  -0.540   3.842  0.00  0.00     0.026 A 
ENDBRANCH  17  19
ENDBRANCH  16  17
ENDBRANCH   1  16
TORSDOF 6
