REMARK  4 active torsions:
REMARK  status: ('A' for Active; 'I' for Inactive)
REMARK    1  A    between atoms: C_7  and  C_3 
REMARK    2  A    between atoms: C_13  and  C_4 
REMARK    3  A    between atoms: C_8  and  C_9 
REMARK       I    between atoms: C_9  and  N_11 
REMARK    4  A    between atoms: N_11  and  C_12 
ROOT
ATOM      1  N   UNL d   1      -0.612  -0.721  -1.152  0.00  0.00    -0.318 N 
ATOM      2  HN  UNL d   1      -1.321  -1.351  -1.529  1.00  0.00     0.169 HD
ATOM      3  C   UNL d   1       0.372  -1.000  -0.321  0.00  0.00     0.184 A 
ATOM      4  C   UNL d   1      -0.454   0.623  -1.388  0.00  0.00     0.138 A 
ATOM      5  N   UNL d   1       0.541   1.183  -0.680  0.00  0.00    -0.242 N 
ATOM      6  HN  UNL d   1       0.814   2.165  -0.645  1.00  0.00     0.196 HD
ATOM      7  O   UNL d   1       1.113   0.100   0.000  0.00  0.00    -0.217 OA
ENDROOT
BRANCH   3   8
ATOM      8  C   UNL d   1       0.889  -2.330   0.017  0.00  0.00     0.044 A 
ATOM      9  C   UNL d   1       1.831  -2.673   1.008  0.00  0.00     0.049 A 
ATOM     10  C   UNL d   1       2.357  -3.982   1.026  0.00  0.00     0.030 A 
ATOM     11  C   UNL d   1       1.942  -4.961   0.119  0.00  0.00     0.002 A 
ATOM     12  C   UNL d   1       0.995  -4.644  -0.837  0.00  0.00     0.001 A 
ATOM     13  C   UNL d   1       0.481  -3.350  -0.882  0.00  0.00     0.018 A 
BRANCH   9  14
ATOM     14  N   UNL d   1       2.369  -1.847   2.025  0.00  0.00    -0.319 N 
ATOM     15  C   UNL d   1       1.718  -0.856   2.753  0.00  0.00     0.330 C 
ATOM     16  O   UNL d   1       0.543  -0.532   2.590  0.00  0.00    -0.263 OA
ATOM     17  H   UNL d   1       3.200  -2.209   2.491  0.00  0.00     0.169 HD
BRANCH  15  18
ATOM     18  C   UNL d   1       2.632  -0.246   3.839  0.00  0.00     0.472 C 
ATOM     19  F   UNL d   1       3.692  -1.075   4.098  0.00  0.00    -0.162 F 
ATOM     20  F   UNL d   1       3.174   0.945   3.470  0.00  0.00    -0.162 F 
ATOM     21  F   UNL d   1       2.008  -0.053   5.031  0.00  0.00    -0.162 F 
ENDBRANCH  15  18
ENDBRANCH   9  14
ENDBRANCH   3   8
BRANCH   4  22
ATOM     22  C   UNL d   1      -1.197   1.293  -2.456  0.00  0.00     0.010 A 
ATOM     23  C   UNL d   1      -1.986   0.534  -3.341  0.00  0.00     0.017 A 
ATOM     24  C   UNL d   1      -2.598   1.130  -4.448  0.00  0.00     0.025 A 
ATOM     25  C   UNL d   1      -2.438   2.495  -4.672  0.00  0.00     0.034 A 
ATOM     26  C   UNL d   1      -1.690   3.270  -3.789  0.00  0.00     0.025 A 
ATOM     27 CL   UNL d   1      -3.147   3.221  -6.061  0.00  0.00    -0.084 Cl
ATOM     28  C   UNL d   1      -1.071   2.672  -2.682  0.00  0.00     0.017 A 
ENDBRANCH   4  22
TORSDOF 4
