REMARK  5 active torsions:
REMARK  status: ('A' for Active; 'I' for Inactive)
REMARK    1  A    between atoms: C_8  and  C_1 
REMARK    2  A    between atoms: C_5  and  C_2 
REMARK    3  A    between atoms: O_18  and  C_6 
REMARK    4  A    between atoms: O_13  and  C_8 
REMARK    5  A    between atoms: C_15  and  O_13 
ROOT
ATOM      1  C   UNL d   1       1.402  -0.315   0.075  0.00  0.00     0.000 A 
ATOM      2  C   UNL d   1      -0.914  -1.093  -0.131  0.00  0.00     0.010 A 
ATOM      3  C   UNL d   1       0.459  -1.360  -0.029  0.00  0.00     0.027 A 
ATOM      4  C   UNL d   1       0.936   1.015   0.043  0.00  0.00     0.076 A 
ATOM      5  C   UNL d   1      -1.357   0.231  -0.132  0.00  0.00     0.018 A 
ATOM      6  C   UNL d   1      -0.435   1.276  -0.049  0.00  0.00     0.038 A 
ENDROOT
BRANCH   1   7
ATOM      7  C   UNL d   1       2.866  -0.623   0.306  0.00  0.00     0.217 C 
BRANCH   7   8
ATOM      8  O   UNL d   1       3.124  -2.026   0.434  0.00  0.00    -0.347 OA
BRANCH   8   9
ATOM      9  C   UNL d   1       4.440  -2.365   0.594  0.00  0.00     0.069 A 
ATOM     10  C   UNL d   1       5.413  -1.552   1.181  0.00  0.00     0.045 A 
ATOM     11  C   UNL d   1       6.741  -1.995   1.322  0.00  0.00    -0.038 A 
ATOM     12  C   UNL d   1       7.751  -1.093   1.975  0.00  0.00     0.050 C 
ATOM     13  C   UNL d   1       7.072  -3.283   0.877  0.00  0.00     0.040 A 
ATOM     14  C   UNL d   1       6.102  -4.102   0.300  0.00  0.00     0.027 A 
ATOM     15 CL   UNL d   1       8.675  -3.906   1.023  0.00  0.00    -0.084 Cl
ATOM     16  C   UNL d   1       4.785  -3.646   0.167  0.00  0.00     0.038 A 
ENDBRANCH   8   9
ENDBRANCH   7   8
ENDBRANCH   1   7
BRANCH   4  17
ATOM     17  O   UNL d   1       1.706   2.127   0.254  0.00  0.00    -0.355 OA
ATOM     18  C   UNL d   1       2.827   2.286  -0.609  0.00  0.00     0.210 C 
ENDBRANCH   4  17
BRANCH   2  19
ATOM     19  C   UNL d   1      -1.934  -2.179  -0.178  0.00  0.00     0.155 C 
ATOM     20  O   UNL d   1      -3.091  -1.939   0.166  0.00  0.00    -0.293 OA
ATOM     21  C   UNL d   1      -1.536  -3.558  -0.637  0.00  0.00     0.096 C 
ENDBRANCH   2  19
TORSDOF 5
