REMARK  4 active torsions:
REMARK  status: ('A' for Active; 'I' for Inactive)
REMARK    1  A    between atoms: N_2  and  C_1 
REMARK       I    between atoms: C_4  and  N_2 
REMARK       I    between atoms: N_9  and  C_4 
REMARK    2  A    between atoms: C_8  and  O_11 
REMARK    3  A    between atoms: C_16  and  N_9 
REMARK    4  A    between atoms: O_11  and  C_17 
ROOT
ATOM      1  N   UNL d   1      -1.612  -4.396   0.171  0.00  0.00    -0.293 N 
ATOM      2  C   UNL d   1      -1.194  -3.079   0.278  0.00  0.00     0.326 C 
ATOM      3  N   UNL d   1      -2.212  -2.228  -0.140  0.00  0.00    -0.309 N 
ATOM      4  O   UNL d   1      -0.078  -2.733   0.638  0.00  0.00    -0.247 OA
ATOM      5  H   UNL d   1      -2.572  -4.574   0.435  0.00  0.00     0.172 HD
ATOM      6  H   UNL d   1      -2.964  -2.682  -0.637  0.00  0.00     0.170 HD
ENDROOT
BRANCH   3   7
ATOM      7  C   UNL d   1      -2.113  -0.831  -0.299  0.00  0.00     0.036 A 
ATOM      8  C   UNL d   1      -3.029  -0.210  -1.156  0.00  0.00     0.032 A 
ATOM      9  C   UNL d   1      -2.939   1.162  -1.433  0.00  0.00     0.039 A 
ATOM     10  C   UNL d   1      -1.957   1.936  -0.820  0.00  0.00     0.078 A 
ATOM     11  C   UNL d   1      -1.069   1.321   0.064  0.00  0.00     0.039 A 
ATOM     12  C   UNL d   1      -1.143  -0.051   0.325  0.00  0.00     0.032 A 
BRANCH  10  13
ATOM     13  O   UNL d   1      -1.757   3.278  -0.967  0.00  0.00    -0.255 OA
BRANCH  13  14
ATOM     14  C   UNL d   1      -2.595   3.995  -1.853  0.00  0.00     0.530 C 
ATOM     15  F   UNL d   1      -3.903   3.797  -1.576  0.00  0.00    -0.144 F 
ATOM     16  F   UNL d   1      -2.339   5.315  -1.714  0.00  0.00    -0.144 F 
ATOM     17  F   UNL d   1      -2.350   3.650  -3.134  0.00  0.00    -0.144 F 
ENDBRANCH  13  14
ENDBRANCH  10  13
ENDBRANCH   3   7
BRANCH   1  18
ATOM     18  C   UNL d   1      -0.757  -5.486   0.164  0.00  0.00     0.126 A 
ATOM     19  N   UNL d   1       0.559  -5.553  -0.245  0.00  0.00    -0.281 N 
ATOM     20  N   UNL d   1       1.082  -6.802  -0.118  0.00  0.00    -0.308 N 
ATOM     21  C   UNL d   1       1.379  -4.578  -0.924  0.00  0.00     0.179 C 
ATOM     22  C   UNL d   1       0.066  -7.536   0.332  0.00  0.00     0.111 A 
ATOM     23  HN  UNL d   1       2.034  -7.107  -0.321  1.00  0.00     0.186 HD
ATOM     24  C   UNL d   1      -1.102  -6.779   0.504  0.00  0.00     0.068 A 
ENDBRANCH   1  18
TORSDOF 4
