REMARK  4 active torsions:
REMARK  status: ('A' for Active; 'I' for Inactive)
REMARK    1  A    between atoms: C_7  and  N_1 
REMARK    2  A    between atoms: C_6  and  C_9 
REMARK    3  A    between atoms: N_13  and  C_7 
REMARK    4  A    between atoms: C_10  and  N_8 
ROOT
ATOM      1  N   UNL d   1       3.678   4.022   0.773  0.00  0.00    -0.364 N 
ATOM      2  N   UNL d   1       3.989   1.217   0.258  0.00  0.00    -0.393 N 
ATOM      3  C   UNL d   1       2.707   3.130   1.393  0.00  0.00     0.143 C 
ATOM      4  C   UNL d   1       4.019   3.655  -0.596  0.00  0.00     0.143 C 
ATOM      5  C   UNL d   1       4.613   2.223  -0.613  0.00  0.00     0.138 C 
ATOM      6  C   UNL d   1       3.353   1.728   1.480  0.00  0.00     0.138 C 
ENDROOT
BRANCH   2   7
ATOM      7  C   UNL d   1       3.330   0.098  -0.385  0.00  0.00     0.256 C 
BRANCH   7   8
ATOM      8  N   UNL d   1       4.349  -0.776  -0.911  0.00  0.00    -0.263 N 
ATOM      9  C   UNL d   1       5.140  -1.581  -0.134  0.00  0.00     0.263 A 
ATOM     10  C   UNL d   1       6.094  -2.219  -1.039  0.00  0.00     0.048 A 
ATOM     11  O   UNL d   1       5.095  -1.805   1.059  0.00  0.00    -0.267 OA
ATOM     12  C   UNL d   1       7.175  -3.036  -0.770  0.00  0.00     0.018 A 
ATOM     13  C   UNL d   1       5.755  -1.853  -2.329  0.00  0.00     0.048 A 
ATOM     14  C   UNL d   1       7.916  -3.497  -1.863  0.00  0.00     0.001 A 
ATOM     15  C   UNL d   1       7.551  -3.148  -3.181  0.00  0.00     0.001 A 
ATOM     16  C   UNL d   1       6.456  -2.314  -3.426  0.00  0.00     0.018 A 
ATOM     17  C   UNL d   1       4.620  -0.933  -2.242  0.00  0.00     0.263 A 
ATOM     18  O   UNL d   1       4.075  -0.431  -3.207  0.00  0.00    -0.267 OA
ENDBRANCH   7   8
ENDBRANCH   2   7
BRANCH   1  19
ATOM     19  C   UNL d   1       3.846   5.294   1.264  0.00  0.00     0.103 A 
ATOM     20  N   UNL d   1       2.842   5.875   1.955  0.00  0.00    -0.352 N 
ATOM     21  C   UNL d   1       3.068   7.071   2.553  0.00  0.00     0.106 A 
ATOM     22  HN  UNL d   1       1.930   5.423   2.026  1.00  0.00     0.166 HD
ATOM     23  C   UNL d   1       4.281   7.735   2.530  0.00  0.00     0.063 A 
ATOM     24  C   UNL d   1       5.312   7.140   1.806  0.00  0.00     0.021 A 
ATOM     25  C   UNL d   1       5.086   5.924   1.160  0.00  0.00     0.049 A 
BRANCH  23  26
ATOM     26  C   UNL d   1       4.483   9.011   3.284  0.00  0.00     0.418 C 
ATOM     27  F   UNL d   1       3.359   9.468   3.901  0.00  0.00    -0.166 F 
ATOM     28  F   UNL d   1       5.422   8.891   4.264  0.00  0.00    -0.166 F 
ATOM     29  F   UNL d   1       4.910  10.029   2.486  0.00  0.00    -0.166 F 
ENDBRANCH  23  26
ENDBRANCH   1  19
TORSDOF 4
