REMARK  6 active torsions:
REMARK  status: ('A' for Active; 'I' for Inactive)
REMARK    1  A    between atoms: C_2  and  S_1 
REMARK    2  A    between atoms: N_3  and  S_1 
REMARK    3  A    between atoms: C_5  and  C_6 
REMARK       I    between atoms: C_12  and  N_17 
REMARK    4  A    between atoms: C_19  and  C_12 
REMARK    5  A    between atoms: C_24  and  C_13 
REMARK    6  A    between atoms: N_17  and  C_24 
ROOT
ATOM      1  C   UNL d   1       0.497   0.609   1.603  0.00  0.00     0.121 A 
ATOM      2  S   UNL d   1       0.667   2.208   2.173  0.00  0.00    -0.080 SA
ATOM      3  C   UNL d   1      -0.075  -0.206   2.563  0.00  0.00     0.034 A 
ATOM      4  C   UNL d   1      -0.040   1.831   3.692  0.00  0.00     0.002 A 
ATOM      5  C   UNL d   1      -0.381   0.494   3.765  0.00  0.00     0.018 A 
ENDROOT
BRANCH   1   6
ATOM      6  S   UNL d   1       1.048   0.226  -0.056  0.00  0.00     0.271 S 
ATOM      7  O   UNL d   1      -0.181   0.104  -0.814  0.00  0.00    -0.200 OA
ATOM      8  O   UNL d   1       1.911  -0.922   0.147  0.00  0.00    -0.200 OA
BRANCH   6   9
ATOM      9  N   UNL d   1       1.971   1.511  -0.707  0.00  0.00    -0.281 N 
ATOM     10  C   UNL d   1       3.373   1.435  -0.495  0.00  0.00     0.105 C 
ATOM     11  C   UNL d   1       4.241   2.294  -1.031  0.00  0.00     0.052 C 
ATOM     12  C   UNL d   1       4.027   3.432  -1.978  0.00  0.00     0.114 C 
ATOM     13  N   UNL d   1       2.992   4.203  -2.035  0.00  0.00    -0.384 N 
ATOM     14  C   UNL d   1       1.873   3.968  -1.126  0.00  0.00     0.141 C 
ATOM     15  HN  UNL d   1       2.958   4.970  -2.707  1.00  0.00     0.159 HD
ATOM     16  C   UNL d   1       1.236   2.604  -1.379  0.00  0.00     0.160 C 
BRANCH  12  17
ATOM     17  C   UNL d   1       5.203   3.701  -2.939  0.00  0.00     0.432 C 
ATOM     18  F   UNL d   1       6.225   2.811  -2.786  0.00  0.00    -0.165 F 
ATOM     19  F   UNL d   1       4.834   3.631  -4.247  0.00  0.00    -0.165 F 
ATOM     20  F   UNL d   1       5.751   4.933  -2.750  0.00  0.00    -0.165 F 
ENDBRANCH  12  17
ENDBRANCH   6   9
ENDBRANCH   1   6
BRANCH   4  21
ATOM     21  C   UNL d   1      -0.220   2.892   4.734  0.00  0.00     0.169 C 
BRANCH  21  22
ATOM     22  N   UNL d   1      -1.507   3.521   4.537  0.00  0.00    -0.352 N 
ATOM     23  C   UNL d   1      -1.910   4.560   5.348  0.00  0.00     0.251 C 
ATOM     24  O   UNL d   1      -1.209   5.007   6.251  0.00  0.00    -0.268 OA
ATOM     25  H   UNL d   1      -2.010   3.329   3.683  0.00  0.00     0.163 HD
BRANCH  23  26
ATOM     26  C   UNL d   1      -3.253   5.143   5.072  0.00  0.00     0.032 A 
ATOM     27  C   UNL d   1      -4.280   4.386   4.493  0.00  0.00     0.017 A 
ATOM     28  C   UNL d   1      -5.545   4.951   4.305  0.00  0.00     0.001 A 
ATOM     29  C   UNL d   1      -5.789   6.267   4.696  0.00  0.00     0.000 A 
ATOM     30  C   UNL d   1      -4.768   7.026   5.268  0.00  0.00     0.001 A 
ATOM     31  C   UNL d   1      -3.503   6.465   5.458  0.00  0.00     0.017 A 
ENDBRANCH  23  26
ENDBRANCH  21  22
ENDBRANCH   4  21
TORSDOF 6
