REMARK  6 active torsions:
REMARK  status: ('A' for Active; 'I' for Inactive)
REMARK    1  A    between atoms: C_14  and  C_1 
REMARK    2  A    between atoms: O_13  and  C_2 
REMARK    3  A    between atoms: C_12  and  C_5 
REMARK    4  A    between atoms: C_8  and  S_11 
REMARK    5  A    between atoms: S_11  and  C_12 
REMARK    6  A    between atoms: O_15  and  C_14 
ROOT
ATOM      1  C   UNL d   1       0.349   1.530   0.011  0.00  0.00     0.009 A 
ATOM      2  C   UNL d   1      -0.667   0.553   0.046  0.00  0.00     0.096 A 
ATOM      3  N   UNL d   1       0.949  -1.233   0.056  0.00  0.00    -0.367 N 
ATOM      4  HN  UNL d   1       1.177  -2.227   0.062  1.00  0.00     0.165 HD
ATOM      5  C   UNL d   1       1.689   1.087   0.036  0.00  0.00    -0.022 A 
ATOM      6  C   UNL d   1      -0.336  -0.804   0.059  0.00  0.00     0.039 A 
ATOM      7  C   UNL d   1       1.916  -0.291   0.045  0.00  0.00     0.096 A 
ATOM      8  C   UNL d   1      -1.378  -1.883   0.060  0.00  0.00     0.071 C 
ENDROOT
BRANCH   5   9
ATOM      9  C   UNL d   1       2.889   2.007   0.009  0.00  0.00     0.121 C 
BRANCH   9  10
ATOM     10  S   UNL d   1       3.385   2.346  -1.714  0.00  0.00    -0.108 SA
BRANCH  10  11
ATOM     11  C   UNL d   1       4.793   3.413  -1.469  0.00  0.00     0.069 A 
ATOM     12  N   UNL d   1       5.208   3.679  -0.210  0.00  0.00    -0.361 N 
ATOM     13  C   UNL d   1       6.283   4.493  -0.079  0.00  0.00     0.089 A 
ATOM     14  HN  UNL d   1       4.733   3.287   0.602  1.00  0.00     0.165 HD
ATOM     15  C   UNL d   1       6.961   5.062  -1.144  0.00  0.00     0.017 A 
ATOM     16  C   UNL d   1       6.518   4.778  -2.428  0.00  0.00     0.004 A 
ATOM     17  C   UNL d   1       5.421   3.939  -2.595  0.00  0.00     0.037 A 
ENDBRANCH  10  11
ENDBRANCH   9  10
ENDBRANCH   5   9
BRANCH   1  18
ATOM     18  C   UNL d   1       0.024   3.005   0.018  0.00  0.00     0.206 C 
BRANCH  18  19
ATOM     19  O   UNL d   1      -1.245   3.249  -0.593  0.00  0.00    -0.396 OA
ATOM     20  H   UNL d   1      -1.065   3.374  -1.544  0.00  0.00     0.209 HD
ENDBRANCH  18  19
ENDBRANCH   1  18
BRANCH   2  21
ATOM     21  O   UNL d   1      -1.992   0.903   0.068  0.00  0.00    -0.358 OA
ATOM     22  H   UNL d   1      -2.046   1.874  -0.070  0.00  0.00     0.217 HD
ENDBRANCH   2  21
TORSDOF 6
