REMARK  4 active torsions:
REMARK  status: ('A' for Active; 'I' for Inactive)
REMARK    1  A    between atoms: C_8  and  S_1 
REMARK    2  A    between atoms: O_9  and  S_1 
REMARK    3  A    between atoms: C_19  and  O_9 
REMARK    4  A    between atoms: C_14  and  C_15 
ROOT
ATOM      1  S   UNL d   1       1.625  -0.658   0.805  0.00  0.00     0.303 S 
ATOM      2  O   UNL d   1       2.576  -1.516   1.491  0.00  0.00    -0.193 OA
ATOM      3  O   UNL d   1       2.071   0.412  -0.067  0.00  0.00    -0.193 OA
ENDROOT
BRANCH   1   4
ATOM      4  C   UNL d   1       0.672   0.146   2.078  0.00  0.00     0.087 A 
ATOM      5  C   UNL d   1      -0.650   0.513   1.845  0.00  0.00     0.044 A 
ATOM      6  C   UNL d   1      -1.321   1.146   2.887  0.00  0.00     0.051 A 
ATOM      7  C   UNL d   1      -2.714   1.605   2.837  0.00  0.00     0.241 A 
ATOM      8  C   UNL d   1      -0.743   1.425   4.141  0.00  0.00     0.055 A 
ATOM      9  S   UNL d   1      -3.118   2.318   4.402  0.00  0.00     0.032 SA
ATOM     10  O   UNL d   1      -3.466   1.501   1.883  0.00  0.00    -0.278 OA
ATOM     11  N   UNL d   1      -1.580   2.075   5.036  0.00  0.00    -0.318 N 
ATOM     12  C   UNL d   1      -1.300   2.353   6.429  0.00  0.00     0.165 C 
ATOM     13  C   UNL d   1       0.580   1.051   4.342  0.00  0.00     0.032 A 
ATOM     14  C   UNL d   1       1.289   0.412   3.314  0.00  0.00     0.028 A 
ENDBRANCH   1   4
BRANCH   1  15
ATOM     15  O   UNL d   1       0.561  -1.613   0.014  0.00  0.00    -0.229 OA
BRANCH  15  16
ATOM     16  C   UNL d   1       0.891  -2.209  -1.180  0.00  0.00     0.089 A 
ATOM     17  C   UNL d   1       2.183  -2.321  -1.686  0.00  0.00     0.039 A 
ATOM     18  C   UNL d   1       2.398  -2.852  -2.963  0.00  0.00     0.011 A 
ATOM     19  C   UNL d   1       1.333  -3.286  -3.772  0.00  0.00    -0.050 A 
ATOM     20  C   UNL d   1       0.049  -3.255  -3.204  0.00  0.00     0.011 A 
ATOM     21  C   UNL d   1      -0.170  -2.721  -1.925  0.00  0.00     0.039 A 
BRANCH  19  22
ATOM     22  C   UNL d   1       1.593  -3.692  -5.234  0.00  0.00    -0.024 C 
ATOM     23  C   UNL d   1       0.313  -4.087  -6.003  0.00  0.00     0.019 C 
ATOM     24  C   UNL d   1       2.218  -2.490  -5.981  0.00  0.00     0.019 C 
ATOM     25  C   UNL d   1       2.567  -4.886  -5.312  0.00  0.00     0.019 C 
ENDBRANCH  19  22
ENDBRANCH  15  16
ENDBRANCH   1  15
TORSDOF 4
