REMARK  4 active torsions:
REMARK  status: ('A' for Active; 'I' for Inactive)
REMARK    1  A    between atoms: C_7  and  C_3 
REMARK    2  A    between atoms: C_11  and  C_4 
REMARK    3  A    between atoms: O_8  and  C_11 
REMARK    4  A    between atoms: C_9  and  O_8 
ROOT
ATOM      1  N   UNL d   1       1.461  -0.570   0.105  0.00  0.00    -0.351 N 
ATOM      2  HN  UNL d   1       2.354  -1.063   0.100  1.00  0.00     0.166 HD
ATOM      3  C   UNL d   1       1.316   0.810   0.080  0.00  0.00     0.049 A 
ATOM      4  C   UNL d   1       0.279  -1.153   0.136  0.00  0.00     0.075 A 
ATOM      5  S   UNL d   1      -1.068  -0.077   0.156  0.00  0.00    -0.084 SA
ATOM      6  C   UNL d   1       0.008   1.253   0.117  0.00  0.00     0.082 A 
ENDROOT
BRANCH   4   7
ATOM      7  C   UNL d   1       0.052  -2.635   0.043  0.00  0.00     0.240 C 
BRANCH   7   8
ATOM      8  O   UNL d   1      -0.673  -3.055   1.202  0.00  0.00    -0.343 OA
BRANCH   8   9
ATOM      9  C   UNL d   1      -1.057  -4.372   1.228  0.00  0.00     0.090 A 
ATOM     10  C   UNL d   1      -1.128  -5.010   2.478  0.00  0.00     0.067 A 
ATOM     11 CL   UNL d   1      -0.685  -4.190   3.934  0.00  0.00    -0.081 Cl
ATOM     12  C   UNL d   1      -1.553  -6.339   2.574  0.00  0.00     0.026 A 
ATOM     13  C   UNL d   1      -1.921  -7.040   1.428  0.00  0.00     0.002 A 
ATOM     14  C   UNL d   1      -1.871  -6.412   0.186  0.00  0.00     0.003 A 
ATOM     15  C   UNL d   1      -1.446  -5.084   0.086  0.00  0.00     0.038 A 
ENDBRANCH   8   9
ENDBRANCH   7   8
ENDBRANCH   4   7
BRANCH   3  16
ATOM     16  C   UNL d   1       2.476   1.695   0.038  0.00  0.00    -0.009 A 
ATOM     17  C   UNL d   1       2.414   2.968  -0.546  0.00  0.00     0.014 A 
ATOM     18  C   UNL d   1       3.535   3.805  -0.551  0.00  0.00     0.007 A 
ATOM     19  C   UNL d   1       4.739   3.384   0.023  0.00  0.00    -0.062 A 
ATOM     20  C   UNL d   1       4.810   2.108   0.590  0.00  0.00     0.007 A 
ATOM     21  C   UNL d   1       5.924   4.303   0.034  0.00  0.00     0.048 C 
ATOM     22  C   UNL d   1       3.690   1.270   0.592  0.00  0.00     0.014 A 
ENDBRANCH   3  16
TORSDOF 4
