REMARK  9 active torsions:
REMARK  status: ('A' for Active; 'I' for Inactive)
REMARK    1  A    between atoms: C_15  and  N_1 
REMARK    2  A    between atoms: S_13  and  C_2 
REMARK    3  A    between atoms: C_7  and  N_10 
REMARK       I    between atoms: N_10  and  C_16 
REMARK    4  A    between atoms: C_14  and  C_11 
REMARK    5  A    between atoms: C_21  and  S_13 
REMARK    6  A    between atoms: C_18  and  C_14 
REMARK    7  A    between atoms: C_16  and  C_21 
REMARK    8  A    between atoms: O_25  and  C_18 
REMARK    9  A    between atoms: O_28  and  C_24 
ROOT
ATOM      1  C   UNL d   1       2.634  -3.146  -0.125  0.00  0.00     0.185 C 
ENDROOT
BRANCH   1   2
ATOM      2  C   UNL d   1       3.956  -3.894  -0.227  0.00  0.00     0.233 C 
ATOM      3  N   UNL d   1       4.967  -3.290  -0.925  0.00  0.00    -0.306 N 
ATOM      4  H   UNL d   1       4.880  -2.345  -1.277  0.00  0.00     0.171 HD
ATOM      5  O   UNL d   1       4.049  -4.967   0.372  0.00  0.00    -0.272 OA
BRANCH   3   6
ATOM      6  C   UNL d   1       6.195  -3.863  -1.090  0.00  0.00     0.151 A 
ATOM      7  N   UNL d   1       6.593  -5.071  -0.795  0.00  0.00    -0.339 N 
ATOM      8  C   UNL d   1       7.920  -5.237  -1.168  0.00  0.00     0.027 A 
ATOM      9  HN  UNL d   1       6.014  -5.787  -0.356  1.00  0.00     0.168 HD
ATOM     10  C   UNL d   1       8.509  -4.096  -1.687  0.00  0.00     0.078 A 
ATOM     11  S   UNL d   1       7.355  -2.832  -1.795  0.00  0.00    -0.064 SA
BRANCH   8  12
ATOM     12  C   UNL d   1       8.535  -6.574  -0.913  0.00  0.00     0.167 C 
BRANCH  12  13
ATOM     13  C   UNL d   1       9.524  -7.034  -1.960  0.00  0.00     0.145 C 
ATOM     14  O   UNL d   1       9.967  -6.378  -2.888  0.00  0.00    -0.650 OA
BRANCH  13  15
ATOM     15  O   UNL d   1       9.935  -8.315  -1.749  0.00  0.00    -0.776 OA
ATOM     16  H   UNL d   1       9.515  -8.750  -0.983  0.00  0.00     0.167 HD
ENDBRANCH  13  15
ENDBRANCH  12  13
ENDBRANCH   8  12
ENDBRANCH   3   6
ENDBRANCH   1   2
BRANCH   1  17
ATOM     17  S   UNL d   1       2.324  -1.771  -1.254  0.00  0.00    -0.082 SA
BRANCH  17  18
ATOM     18  C   UNL d   1       3.376  -0.530  -0.663  0.00  0.00     0.177 A 
ATOM     19  N   UNL d   1       3.016   0.680  -0.095  0.00  0.00    -0.219 N 
ATOM     20  N   UNL d   1       4.099   1.496  -0.185  0.00  0.00     0.001 NA
ATOM     21  N   UNL d   1       5.090   0.754  -0.656  0.00  0.00    -0.006 NA
ATOM     22  N   UNL d   1       4.655  -0.500  -0.969  0.00  0.00    -0.264 N 
ATOM     23  HN  UNL d   1       5.209  -1.261  -1.361  1.00  0.00     0.186 HD
BRANCH  19  24
ATOM     24  C   UNL d   1       1.854   1.114   0.600  0.00  0.00     0.057 A 
ATOM     25  C   UNL d   1       0.972   0.205   1.191  0.00  0.00     0.034 A 
ATOM     26  C   UNL d   1      -0.089   0.678   1.969  0.00  0.00     0.039 A 
ATOM     27  C   UNL d   1      -0.276   2.044   2.139  0.00  0.00     0.065 A 
ATOM     28  C   UNL d   1       0.575   2.959   1.530  0.00  0.00     0.039 A 
ATOM     29  C   UNL d   1       1.647   2.493   0.769  0.00  0.00     0.034 A 
BRANCH  27  30
ATOM     30  O   UNL d   1      -1.304   2.449   2.935  0.00  0.00    -0.361 OA
ATOM     31  H   UNL d   1      -1.252   3.413   3.046  0.00  0.00     0.217 HD
ENDBRANCH  27  30
ENDBRANCH  19  24
ENDBRANCH  17  18
ENDBRANCH   1  17
TORSDOF 9
