REMARK  4 active torsions:
REMARK  status: ('A' for Active; 'I' for Inactive)
REMARK    1  A    between atoms: C_16  and  C_3 
REMARK    2  A    between atoms: N_12  and  C_5 
REMARK       I    between atoms: C_7  and  N_11 
REMARK    3  A    between atoms: C_8  and  C_7 
REMARK    4  A    between atoms: N_11  and  N_12 
ROOT
ATOM      1  C   UNL d   1       0.042  -0.600  -0.078  0.00  0.00     0.072 A 
ATOM      2  S   UNL d   1       1.745  -0.814  -0.099  0.00  0.00    -0.088 SA
ATOM      3  C   UNL d   1       2.064   0.878  -0.028  0.00  0.00    -0.007 A 
ATOM      4  C   UNL d   1       0.870   1.579   0.028  0.00  0.00     0.046 A 
ATOM      5  C   UNL d   1      -0.978  -1.559  -0.138  0.00  0.00     0.119 A 
ATOM      6  C   UNL d   1      -0.287   0.743   0.012  0.00  0.00     0.054 A 
ATOM      7  N   UNL d   1      -2.261  -1.118  -0.076  0.00  0.00    -0.341 N 
ATOM      8  HN  UNL d   1      -3.040  -1.776  -0.100  1.00  0.00     0.167 HD
ATOM      9  N   UNL d   1      -1.568   1.183   0.062  0.00  0.00    -0.351 N 
ATOM     10  HN  UNL d   1      -1.815   2.170   0.127  1.00  0.00     0.166 HD
ATOM     11  C   UNL d   1      -2.480   0.204   0.018  0.00  0.00     0.182 A 
ENDROOT
BRANCH   5  12
ATOM     12  N   UNL d   1      -0.703  -2.929  -0.306  0.00  0.00    -0.186 NA
ATOM     13  H   UNL d   1       0.257  -3.172  -0.039  0.00  0.00     0.154 HD
BRANCH  12  14
ATOM     14  N   UNL d   1      -1.659  -3.771   0.280  0.00  0.00    -0.281 N 
ATOM     15  C   UNL d   1      -1.230  -4.949   0.868  0.00  0.00     0.273 C 
ATOM     16  O   UNL d   1      -0.028  -5.220   0.932  0.00  0.00    -0.266 OA
ATOM     17  H   UNL d   1      -2.637  -3.528   0.140  0.00  0.00     0.184 HD
BRANCH  15  18
ATOM     18  C   UNL d   1      -2.268  -5.827   1.391  0.00  0.00     0.073 A 
ATOM     19  S   UNL d   1      -3.918  -5.363   1.454  0.00  0.00    -0.097 SA
ATOM     20  C   UNL d   1      -4.383  -6.845   2.171  0.00  0.00     0.050 A 
ATOM     21  C   UNL d   1      -3.311  -7.687   2.354  0.00  0.00     0.009 A 
ATOM     22  C   UNL d   1      -2.092  -7.099   1.907  0.00  0.00     0.025 A 
ENDBRANCH  15  18
ENDBRANCH  12  14
ENDBRANCH   5  12
BRANCH   3  23
ATOM     23  C   UNL d   1       3.506   1.403  -0.038  0.00  0.00    -0.018 C 
ATOM     24  C   UNL d   1       4.237   0.949  -1.317  0.00  0.00     0.020 C 
ATOM     25  C   UNL d   1       3.539   2.947  -0.006  0.00  0.00     0.020 C 
ATOM     26  C   UNL d   1       4.276   0.897   1.199  0.00  0.00     0.020 C 
ENDBRANCH   3  23
TORSDOF 4
