REMARK  7 active torsions:
REMARK  status: ('A' for Active; 'I' for Inactive)
REMARK    1  A    between atoms: N_4  and  C_1 
REMARK    2  A    between atoms: N_10  and  C_1 
REMARK    3  A    between atoms: C_7  and  N_4 
REMARK    4  A    between atoms: C_5  and  C_8 
REMARK    5  A    between atoms: O_16  and  C_5 
REMARK    6  A    between atoms: C_8  and  C_14 
REMARK    7  A    between atoms: C_14  and  N_10 
ROOT
ATOM      1  C   UNL d   1       1.186  -0.130  -0.212  0.00  0.00     0.172 C 
ATOM      2  S   UNL d   1       2.697   0.453   0.213  0.00  0.00    -0.041 SA
ENDROOT
BRANCH   1   3
ATOM      3  N   UNL d   1       0.437   0.197  -1.319  0.00  0.00    -0.333 N 
ATOM      4  H   UNL d   1      -0.541   0.404  -1.105  0.00  0.00     0.168 HD
BRANCH   3   5
ATOM      5  C   UNL d   1       0.943   0.715  -2.532  0.00  0.00     0.037 A 
ATOM      6  C   UNL d   1       0.243   1.714  -3.202  0.00  0.00     0.072 A 
ATOM      7  C   UNL d   1       0.803   2.289  -4.347  0.00  0.00     0.124 A 
ATOM      8  F   UNL d   1       0.155   3.299  -4.944  0.00  0.00    -0.205 F 
ATOM      9  C   UNL d   1       2.029   1.855  -4.860  0.00  0.00    -0.023 A 
ATOM     10  C   UNL d   1       2.664   0.774  -4.248  0.00  0.00     0.012 A 
ATOM     11  C   UNL d   1       2.647   2.536  -6.045  0.00  0.00     0.051 C 
ATOM     12  C   UNL d   1       2.123   0.209  -3.091  0.00  0.00     0.030 A 
ENDBRANCH   3   5
ENDBRANCH   1   3
BRANCH   1  13
ATOM     13  N   UNL d   1       0.605  -1.003   0.664  0.00  0.00    -0.366 N 
ATOM     14  H   UNL d   1       1.201  -1.208   1.459  0.00  0.00     0.161 HD
BRANCH  13  15
ATOM     15  C   UNL d   1      -0.456  -1.952   0.362  0.00  0.00     0.132 C 
BRANCH  15  16
ATOM     16  C   UNL d   1      -1.660  -1.767   1.271  0.00  0.00     0.129 C 
BRANCH  16  17
ATOM     17  C   UNL d   1      -2.404  -0.502   0.933  0.00  0.00     0.140 C 
ATOM     18  O   UNL d   1      -2.307   0.109  -0.123  0.00  0.00    -0.650 OA
BRANCH  17  19
ATOM     19  O   UNL d   1      -3.244  -0.111   1.919  0.00  0.00    -0.776 OA
ATOM     20  H   UNL d   1      -3.221  -0.675   2.715  0.00  0.00     0.167 HD
ENDBRANCH  17  19
ENDBRANCH  16  17
ENDBRANCH  15  16
ENDBRANCH  13  15
ENDBRANCH   1  13
TORSDOF 7
