REMARK  6 active torsions:
REMARK  status: ('A' for Active; 'I' for Inactive)
REMARK    1  A    between atoms: C_2  and  C_1 
REMARK    2  A    between atoms: O_4  and  C_2 
REMARK    3  A    between atoms: O_5  and  C_3 
REMARK    4  A    between atoms: C_9  and  O_4 
REMARK    5  A    between atoms: C_10  and  O_5 
REMARK    6  A    between atoms: O_17  and  C_11 
ROOT
ATOM      1  C   UNL d   1       1.393   0.909   0.123  0.00  0.00     0.091 C 
ATOM      2  C   UNL d   1       0.042   0.553   0.198  0.00  0.00     0.164 C 
ATOM      3  N   UNL d   1      -0.389  -0.741   0.220  0.00  0.00    -0.346 N 
ATOM      4  HN  UNL d   1      -1.377  -0.965   0.341  1.00  0.00     0.167 HD
ATOM      5  C   UNL d   1       2.304  -0.126  -0.099  0.00  0.00     0.023 C 
ATOM      6  C   UNL d   1       0.531  -1.711   0.076  0.00  0.00     0.090 C 
ATOM      7  C   UNL d   1       1.875  -1.454  -0.106  0.00  0.00     0.018 C 
ENDROOT
BRANCH   1   8
ATOM      8  C   UNL d   1       1.806   2.327   0.186  0.00  0.00     0.302 C 
ATOM      9  O   UNL d   1       1.064   3.255  -0.104  0.00  0.00    -0.259 OA
BRANCH   8  10
ATOM     10  O   UNL d   1       3.146   2.588   0.578  0.00  0.00    -0.275 OA
BRANCH  10  11
ATOM     11  C   UNL d   1       4.469   2.227   1.060  0.00  0.00     0.079 A 
ATOM     12  C   UNL d   1       5.476   3.137   0.738  0.00  0.00     0.040 A 
ATOM     13  C   UNL d   1       6.797   2.855   1.094  0.00  0.00     0.039 A 
ATOM     14  C   UNL d   1       7.101   1.667   1.760  0.00  0.00     0.068 A 
ATOM     15  C   UNL d   1       6.063   0.787   2.107  0.00  0.00     0.039 A 
ATOM     16  C   UNL d   1       4.733   1.071   1.778  0.00  0.00     0.040 A 
BRANCH  14  17
ATOM     17  O   UNL d   1       8.354   1.250   2.119  0.00  0.00    -0.356 OA
ATOM     18  C   UNL d   1       9.442   2.099   1.766  0.00  0.00     0.210 C 
ENDBRANCH  14  17
ENDBRANCH  10  11
ENDBRANCH   8  10
ENDBRANCH   1   8
BRANCH   2  19
ATOM     19  O   UNL d   1      -0.939   1.529   0.250  0.00  0.00    -0.293 OA
BRANCH  19  20
ATOM     20  C   UNL d   1      -2.071   1.290  -0.505  0.00  0.00     0.077 A 
ATOM     21  C   UNL d   1      -3.312   1.492   0.107  0.00  0.00     0.037 A 
ATOM     22  C   UNL d   1      -4.487   1.250  -0.604  0.00  0.00     0.003 A 
ATOM     23  C   UNL d   1      -4.428   0.825  -1.931  0.00  0.00     0.000 A 
ATOM     24  C   UNL d   1      -3.192   0.659  -2.557  0.00  0.00     0.003 A 
ATOM     25  C   UNL d   1      -2.012   0.906  -1.849  0.00  0.00     0.037 A 
ENDBRANCH  19  20
ENDBRANCH   2  19
TORSDOF 6
