REMARK  2 active torsions:
REMARK  status: ('A' for Active; 'I' for Inactive)
REMARK    1  A    between atoms: C_6  and  N_1 
REMARK    2  A    between atoms: N_7  and  C_6 
ROOT
ATOM      1  N   UNL d   1      -0.527  -1.814  -0.182  0.00  0.00    -0.285 N 
ATOM      2  C   UNL d   1       1.161  -0.115  -0.064  0.00  0.00     0.280 A 
ATOM      3  C   UNL d   1      -0.228   0.457  -0.040  0.00  0.00     0.042 A 
ATOM      4  C   UNL d   1       0.871  -1.663  -0.132  0.00  0.00     0.294 A 
ATOM      5  C   UNL d   1      -1.173  -0.575  -0.100  0.00  0.00     0.051 A 
ATOM      6  O   UNL d   1       1.877   0.347  -1.212  0.00  0.00    -0.342 OA
ATOM      7  O   UNL d   1       1.862   0.245   1.129  0.00  0.00    -0.342 OA
ATOM      8  C   UNL d   1      -0.620   1.785   0.050  0.00  0.00     0.034 A 
ATOM      9  C   UNL d   1      -2.529  -0.307  -0.061  0.00  0.00     0.032 A 
ATOM     10  O   UNL d   1       1.700  -2.558  -0.114  0.00  0.00    -0.266 OA
ATOM     11  C   UNL d   1      -1.985   2.063   0.078  0.00  0.00     0.011 A 
ATOM     12  C   UNL d   1      -2.937   1.030   0.024  0.00  0.00     0.021 A 
ATOM     13 BR   UNL d   1      -2.566   3.860   0.183  0.00  0.00    -0.051 Br
ATOM     14  C   UNL d   1       3.023   1.016  -0.688  0.00  0.00     0.198 C 
ATOM     15  C   UNL d   1       3.204   0.428   0.685  0.00  0.00     0.198 C 
ENDROOT
BRANCH   1  16
ATOM     16  C   UNL d   1      -1.159  -3.104  -0.080  0.00  0.00     0.405 C 
BRANCH  16  17
ATOM     17  N   UNL d   1      -2.035  -3.417  -1.228  0.00  0.00     0.106 N 
ATOM     18  C   UNL d   1      -1.240  -3.502  -2.466  0.00  0.00     0.274 C 
ATOM     19  C   UNL d   1      -1.998  -4.093  -3.658  0.00  0.00     0.030 C 
ATOM     20  C   UNL d   1      -2.623  -5.436  -3.320  0.00  0.00     0.003 C 
ATOM     21  C   UNL d   1      -3.497  -5.301  -2.084  0.00  0.00     0.030 C 
ATOM     22  C   UNL d   1      -2.728  -4.683  -0.917  0.00  0.00     0.274 C 
ENDBRANCH  16  17
ENDBRANCH   1  16
TORSDOF 2
