REMARK  3 active torsions:
REMARK  status: ('A' for Active; 'I' for Inactive)
REMARK    1  A    between atoms: C_8  and  C_1 
REMARK       I    between atoms: C_2  and  N_9 
REMARK    2  A    between atoms: C_3  and  C_2 
REMARK    3  A    between atoms: N_9  and  N_4 
ROOT
ATOM      1  N   UNL d   1      -1.261   2.818   0.035  0.00  0.00    -0.308 N 
ATOM      2  HN  UNL d   1      -2.159   2.336  -0.013  1.00  0.00     0.186 HD
ATOM      3  C   UNL d   1      -0.145   2.167   0.080  0.00  0.00     0.122 C 
ENDROOT
BRANCH   1   4
ATOM      4  N   UNL d   1      -1.182   4.181   0.054  0.00  0.00    -0.266 N 
ATOM      5  C   UNL d   1      -2.355   4.917  -0.054  0.00  0.00     0.271 C 
ATOM      6  O   UNL d   1      -3.475   4.447  -0.224  0.00  0.00    -0.266 OA
ATOM      7  H   UNL d   1      -0.273   4.625   0.063  0.00  0.00     0.190 HD
BRANCH   5   8
ATOM      8  C   UNL d   1      -2.216   6.390   0.033  0.00  0.00     0.049 A 
ATOM      9  C   UNL d   1      -3.156   7.181  -0.618  0.00  0.00     0.104 A 
ATOM     10  N   UNL d   1      -3.165   8.537  -0.576  0.00  0.00    -0.374 N 
ATOM     11  C   UNL d   1      -2.208   9.127   0.170  0.00  0.00     0.087 A 
ATOM     12  HN  UNL d   1      -3.860   9.084  -1.085  1.00  0.00     0.164 HD
ATOM     13  C   UNL d   1      -1.233   8.425   0.864  0.00  0.00     0.018 A 
ATOM     14  C   UNL d   1      -1.235   7.032   0.792  0.00  0.00     0.020 A 
ENDBRANCH   5   8
ENDBRANCH   1   4
BRANCH   3  15
ATOM     15  C   UNL d   1      -0.098   0.684   0.091  0.00  0.00     0.024 A 
ATOM     16  C   UNL d   1      -1.036  -0.109  -0.590  0.00  0.00     0.047 A 
ATOM     17 CL   UNL d   1      -2.269   0.527  -1.623  0.00  0.00    -0.083 Cl
ATOM     18  C   UNL d   1      -0.966  -1.508  -0.516  0.00  0.00     0.025 A 
ATOM     19  C   UNL d   1       0.039  -2.130   0.219  0.00  0.00     0.003 A 
ATOM     20  C   UNL d   1       0.987  -1.354   0.880  0.00  0.00     0.025 A 
ATOM     21  C   UNL d   1       0.922   0.045   0.818  0.00  0.00     0.047 A 
ATOM     22 CL   UNL d   1       2.135   0.914   1.698  0.00  0.00    -0.083 Cl
ENDBRANCH   3  15
TORSDOF 3
