REMARK  3 active torsions:
REMARK  status: ('A' for Active; 'I' for Inactive)
REMARK    1  A    between atoms: C_11  and  C_3 
REMARK    2  A    between atoms: N_7  and  C_10 
REMARK    3  A    between atoms: C_9  and  C_8 
ROOT
ATOM      1  N   UNL d   1       1.555  -0.079   0.015  0.00  0.00    -0.331 N 
ATOM      2  HN  UNL d   1       2.497  -0.470   0.008  1.00  0.00     0.168 HD
ATOM      3  C   UNL d   1       1.199   1.164   0.025  0.00  0.00     0.162 A 
ATOM      4  C   UNL d   1       0.351  -0.743   0.018  0.00  0.00     0.112 A 
ATOM      5  O   UNL d   1      -0.124   1.441   0.034  0.00  0.00    -0.256 OA
ATOM      6  C   UNL d   1      -0.772   0.242   0.038  0.00  0.00     0.316 A 
ATOM      7  C   UNL d   1       0.255  -2.078  -0.003  0.00  0.00     0.054 C 
ATOM      8  O   UNL d   1      -1.974   0.078   0.069  0.00  0.00    -0.257 OA
ENDROOT
BRANCH   3   9
ATOM      9  C   UNL d   1       2.088   2.337   0.038  0.00  0.00     0.015 A 
ATOM     10  C   UNL d   1       3.473   2.139  -0.061  0.00  0.00     0.018 A 
ATOM     11  C   UNL d   1       4.348   3.229  -0.010  0.00  0.00     0.037 A 
ATOM     12  C   UNL d   1       3.831   4.523   0.143  0.00  0.00     0.102 A 
ATOM     13  C   UNL d   1       2.448   4.731   0.230  0.00  0.00     0.037 A 
ATOM     14  C   UNL d   1       1.578   3.636   0.176  0.00  0.00     0.018 A 
BRANCH  12  15
ATOM     15  N   UNL d   1       4.746   5.669   0.228  0.00  0.00    -0.116 N 
ATOM     16  O   UNL d   1       5.962   5.441   0.150  0.00  0.00    -0.532 OA
ATOM     17  O   UNL d   1       4.248   6.793   0.375  0.00  0.00    -0.532 OA
ENDBRANCH  12  15
ENDBRANCH   3   9
BRANCH   7  18
ATOM     18  C   UNL d   1      -0.979  -2.775  -0.029  0.00  0.00     0.007 A 
ATOM     19  S   UNL d   1      -1.624  -3.312  -1.530  0.00  0.00    -0.102 SA
ATOM     20  C   UNL d   1      -2.984  -4.017  -0.774  0.00  0.00     0.050 A 
ATOM     21  C   UNL d   1      -2.948  -3.872   0.594  0.00  0.00     0.008 A 
ATOM     22  C   UNL d   1      -1.791  -3.158   1.023  0.00  0.00     0.019 A 
ENDBRANCH   7  18
TORSDOF 3
