REMARK  3 active torsions:
REMARK  status: ('A' for Active; 'I' for Inactive)
REMARK    1  A    between atoms: C_9  and  N_3 
REMARK    2  A    between atoms: C_6  and  C_4 
REMARK    3  A    between atoms: O_15  and  C_9 
ROOT
ATOM      1  N   UNL d   1       1.176   1.122   0.145  0.00  0.00    -0.297 N 
ATOM      2  HN  UNL d   1       1.658   1.993   0.370  1.00  0.00     0.187 HD
ATOM      3  N   UNL d   1      -0.197   1.106  -0.030  0.00  0.00    -0.237 N 
ATOM      4  C   UNL d   1       1.844   0.013   0.017  0.00  0.00     0.043 C 
ATOM      5  C   UNL d   1      -0.966  -0.047  -0.098  0.00  0.00     0.240 C 
ATOM      6  C   UNL d   1       1.171  -1.299  -0.307  0.00  0.00     0.069 C 
ATOM      7  C   UNL d   1      -0.238  -1.318   0.230  0.00  0.00     0.111 C 
ATOM      8  O   UNL d   1      -2.178  -0.048  -0.318  0.00  0.00    -0.272 OA
ENDROOT
BRANCH   4   9
ATOM      9  C   UNL d   1       3.295   0.080   0.116  0.00  0.00     0.028 A 
ATOM     10  S   UNL d   1       4.293  -1.062  -0.687  0.00  0.00    -0.100 SA
ATOM     11  C   UNL d   1       5.725  -0.284  -0.179  0.00  0.00     0.050 A 
ATOM     12  C   UNL d   1       5.461   0.819   0.601  0.00  0.00     0.008 A 
ATOM     13  C   UNL d   1       4.061   1.034   0.764  0.00  0.00     0.021 A 
ENDBRANCH   4   9
BRANCH   3  14
ATOM     14  C   UNL d   1      -0.879   2.379  -0.189  0.00  0.00     0.316 C 
BRANCH  14  15
ATOM     15  O   UNL d   1       0.066   3.421  -0.048  0.00  0.00    -0.380 OA
ATOM     16  H   UNL d   1       0.883   2.914   0.129  0.00  0.00     0.211 HD
ENDBRANCH  14  15
ENDBRANCH   3  14
TORSDOF 3
