REMARK  7 active torsions:
REMARK  status: ('A' for Active; 'I' for Inactive)
REMARK    1  A    between atoms: N_4  and  C_1 
REMARK    2  A    between atoms: C_2  and  C_3 
REMARK       I    between atoms: C_3  and  N_16 
REMARK    3  A    between atoms: C_5  and  N_4 
REMARK    4  A    between atoms: C_21  and  N_15 
REMARK    5  A    between atoms: N_16  and  C_22 
REMARK    6  A    between atoms: C_19  and  C_21 
REMARK    7  A    between atoms: C_22  and  C_19 
ROOT
ATOM      1  C   UNL d   1       1.161  -0.118   0.066  0.00  0.00     0.172 C 
ATOM      2  S   UNL d   1       0.638  -1.706  -0.063  0.00  0.00    -0.041 SA
ATOM      3  N   UNL d   1       2.507   0.056  -0.006  0.00  0.00    -0.367 N 
ATOM      4  H   UNL d   1       2.999  -0.829   0.079  0.00  0.00     0.161 HD
ENDROOT
BRANCH   3   5
ATOM      5  C   UNL d   1       3.329   1.257  -0.023  0.00  0.00     0.123 C 
BRANCH   5   6
ATOM      6  C   UNL d   1       4.741   0.883  -0.477  0.00  0.00     0.039 C 
BRANCH   6   7
ATOM      7  C   UNL d   1       5.655   2.088  -0.644  0.00  0.00     0.124 C 
BRANCH   7   8
ATOM      8  N   UNL d   1       6.978   1.679  -1.068  0.00  0.00    -0.356 N 
ATOM      9  C   UNL d   1       8.111   2.414  -0.779  0.00  0.00     0.258 C 
ATOM     10  O   UNL d   1       8.052   3.420  -0.070  0.00  0.00    -0.267 OA
ATOM     11  H   UNL d   1       7.075   0.961  -1.781  0.00  0.00     0.162 HD
BRANCH   9  12
ATOM     12  C   UNL d   1       9.361   1.936  -1.361  0.00  0.00     0.072 A 
ATOM     13  S   UNL d   1       9.445   0.538  -2.351  0.00  0.00    -0.097 SA
ATOM     14  C   UNL d   1      11.136   0.694  -2.554  0.00  0.00     0.050 A 
ATOM     15  C   UNL d   1      11.636   1.787  -1.887  0.00  0.00     0.009 A 
ATOM     16  C   UNL d   1      10.612   2.506  -1.203  0.00  0.00     0.025 A 
ENDBRANCH   9  12
ENDBRANCH   7   8
ENDBRANCH   6   7
ENDBRANCH   5   6
ENDBRANCH   3   5
BRANCH   1  17
ATOM     17  N   UNL d   1       0.390   1.006   0.206  0.00  0.00    -0.333 N 
ATOM     18  H   UNL d   1       0.723   1.831  -0.270  0.00  0.00     0.168 HD
BRANCH  17  19
ATOM     19  C   UNL d   1      -0.879   1.113   0.838  0.00  0.00     0.040 A 
ATOM     20  C   UNL d   1      -1.781   2.143   0.510  0.00  0.00    -0.035 A 
ATOM     21  C   UNL d   1      -2.963   2.288   1.271  0.00  0.00     0.015 A 
ATOM     22  C   UNL d   1      -1.594   3.103  -0.635  0.00  0.00     0.050 C 
ATOM     23  C   UNL d   1      -3.272   1.423   2.328  0.00  0.00    -0.061 A 
ATOM     24  C   UNL d   1      -2.390   0.389   2.621  0.00  0.00     0.009 A 
ATOM     25  C   UNL d   1      -4.501   1.635   3.159  0.00  0.00     0.048 C 
ATOM     26  C   UNL d   1      -1.208   0.247   1.895  0.00  0.00     0.030 A 
ENDBRANCH  17  19
ENDBRANCH   1  17
TORSDOF 7
