REMARK  9 active torsions:
REMARK  status: ('A' for Active; 'I' for Inactive)
REMARK    1  A    between atoms: S_2  and  C_1 
REMARK    2  A    between atoms: N_7  and  S_2 
REMARK    3  A    between atoms: C_8  and  C_3 
REMARK    4  A    between atoms: C_14  and  N_4 
REMARK    5  A    between atoms: C_15  and  C_5 
REMARK    6  A    between atoms: O_21  and  C_8 
REMARK    7  A    between atoms: C_19  and  N_11 
REMARK    8  A    between atoms: C_22  and  C_19 
REMARK    9  A    between atoms: C_27  and  O_21 
ROOT
ATOM      1  C   UNL d   1      -0.428  -1.213  -0.295  0.00  0.00     0.125 A 
ATOM      2  C   UNL d   1       0.926  -0.675  -0.171  0.00  0.00     0.087 A 
ATOM      3  N   UNL d   1      -0.536   1.063  -0.321  0.00  0.00    -0.312 N 
ATOM      4  C   UNL d   1      -1.325  -0.117  -0.446  0.00  0.00     0.074 A 
ATOM      5  C   UNL d   1       0.805   0.712  -0.179  0.00  0.00     0.031 A 
ATOM      6  C   UNL d   1       1.898   1.718   0.089  0.00  0.00     0.070 C 
ENDROOT
BRANCH   1   7
ATOM      7  S   UNL d   1      -0.771  -2.958  -0.273  0.00  0.00     0.264 S 
ATOM      8  O   UNL d   1       0.098  -3.514   0.725  0.00  0.00    -0.200 OA
ATOM      9  O   UNL d   1      -2.202  -3.077  -0.093  0.00  0.00    -0.200 OA
BRANCH   7  10
ATOM     10  N   UNL d   1      -0.491  -3.708  -1.753  0.00  0.00    -0.303 N 
ATOM     11  C   UNL d   1       0.846  -4.239  -2.030  0.00  0.00     0.165 C 
ATOM     12  C   UNL d   1       1.671  -3.152  -2.721  0.00  0.00     0.293 C 
ATOM     13  N   UNL d   1       1.112  -2.676  -3.999  0.00  0.00     0.095 N 
ATOM     14  C   UNL d   1      -0.326  -2.326  -3.834  0.00  0.00     0.293 C 
ATOM     15  C   UNL d   1      -1.204  -3.265  -2.971  0.00  0.00     0.165 C 
BRANCH  13  16
ATOM     16  C   UNL d   1       1.395  -3.682  -5.025  0.00  0.00     0.311 C 
BRANCH  16  17
ATOM     17  C   UNL d   1       1.066  -3.262  -6.432  0.00  0.00    -0.030 A 
ATOM     18  C   UNL d   1       1.580  -2.080  -6.982  0.00  0.00     0.009 A 
ATOM     19  C   UNL d   1       1.308  -1.749  -8.308  0.00  0.00     0.001 A 
ATOM     20  C   UNL d   1       0.530  -2.599  -9.095  0.00  0.00     0.000 A 
ATOM     21  C   UNL d   1       0.026  -3.782  -8.557  0.00  0.00     0.001 A 
ATOM     22  C   UNL d   1       0.293  -4.114  -7.234  0.00  0.00     0.009 A 
ENDBRANCH  16  17
ENDBRANCH  13  16
ENDBRANCH   7  10
ENDBRANCH   1   7
BRANCH   2  23
ATOM     23  C   UNL d   1       2.235  -1.355   0.017  0.00  0.00     0.296 C 
ATOM     24  O   UNL d   1       2.401  -2.390   0.624  0.00  0.00    -0.259 OA
BRANCH  23  25
ATOM     25  O   UNL d   1       3.278  -0.685  -0.588  0.00  0.00    -0.318 OA
BRANCH  25  26
ATOM     26  C   UNL d   1       4.604  -1.016  -0.133  0.00  0.00     0.174 C 
ATOM     27  C   UNL d   1       5.457  -1.577  -1.258  0.00  0.00     0.034 C 
ENDBRANCH  25  26
ENDBRANCH  23  25
ENDBRANCH   2  23
BRANCH   4  28
ATOM     28  C   UNL d   1      -2.808  -0.064  -0.754  0.00  0.00    -0.007 C 
ATOM     29  C   UNL d   1      -3.344   0.874  -1.660  0.00  0.00     0.014 C 
ATOM     30  C   UNL d   1      -4.728   1.000  -1.877  0.00  0.00     0.001 C 
ATOM     31  C   UNL d   1      -5.613   0.101  -1.296  0.00  0.00     0.000 C 
ATOM     32  C   UNL d   1      -5.114  -0.861  -0.432  0.00  0.00     0.001 C 
ATOM     33  C   UNL d   1      -3.747  -0.880  -0.111  0.00  0.00     0.014 C 
ENDBRANCH   4  28
BRANCH   3  34
ATOM     34  C   UNL d   1      -1.006   2.427  -0.284  0.00  0.00     0.040 A 
ATOM     35  C   UNL d   1      -2.167   2.763   0.421  0.00  0.00     0.030 A 
ATOM     36  C   UNL d   1      -2.652   4.075   0.398  0.00  0.00     0.002 A 
ATOM     37  C   UNL d   1      -1.952   5.074  -0.276  0.00  0.00     0.000 A 
ATOM     38  C   UNL d   1      -0.773   4.760  -0.944  0.00  0.00     0.002 A 
ATOM     39  C   UNL d   1      -0.315   3.440  -0.971  0.00  0.00     0.030 A 
ENDBRANCH   3  34
TORSDOF 9
