REMARK  5 active torsions:
REMARK  status: ('A' for Active; 'I' for Inactive)
REMARK    1  A    between atoms: N_2  and  C_1 
REMARK    2  A    between atoms: N_3  and  C_1 
REMARK    3  A    between atoms: C_4  and  N_3 
REMARK    4  A    between atoms: C_5  and  C_12 
REMARK    5  A    between atoms: C_9  and  C_5 
ROOT
ATOM      1  N   UNL d   1      -0.104  -0.067   1.043  0.00  0.00    -0.358 N 
ATOM      2  C   UNL d   1       0.453  -0.145   2.390  0.00  0.00     0.126 C 
ATOM      3  C   UNL d   1      -1.111  -1.095   0.771  0.00  0.00     0.126 C 
ATOM      4  C   UNL d   1      -1.827  -0.969   3.221  0.00  0.00     0.064 C 
ATOM      5  C   UNL d   1      -2.270  -1.024   1.752  0.00  0.00     0.032 C 
ATOM      6  C   UNL d   1      -0.653  -0.003   3.436  0.00  0.00     0.032 C 
ENDROOT
BRANCH   1   7
ATOM      7  C   UNL d   1       0.673   0.321  -0.051  0.00  0.00     0.174 C 
ATOM      8  S   UNL d   1       2.316   0.063  -0.223  0.00  0.00    -0.041 SA
BRANCH   7   9
ATOM      9  N   UNL d   1      -0.031   0.864  -1.099  0.00  0.00    -0.332 N 
ATOM     10  H   UNL d   1       0.364   0.727  -2.025  0.00  0.00     0.168 HD
BRANCH   9  11
ATOM     11  C   UNL d   1      -1.048   1.849  -1.009  0.00  0.00     0.056 A 
ATOM     12  C   UNL d   1      -1.870   2.111  -2.118  0.00  0.00     0.062 A 
ATOM     13  C   UNL d   1      -2.814   3.141  -2.082  0.00  0.00     0.050 A 
ATOM     14 CL   UNL d   1      -1.770   1.146  -3.550  0.00  0.00    -0.082 Cl
ATOM     15  C   UNL d   1      -2.916   3.938  -0.945  0.00  0.00     0.035 A 
ATOM     16  C   UNL d   1      -2.104   3.700   0.161  0.00  0.00     0.026 A 
ATOM     17 CL   UNL d   1      -4.039   5.241  -0.911  0.00  0.00    -0.084 Cl
ATOM     18  C   UNL d   1      -1.181   2.651   0.133  0.00  0.00     0.033 A 
ENDBRANCH   9  11
ENDBRANCH   7   9
ENDBRANCH   1   7
BRANCH   4  19
ATOM     19  C   UNL d   1      -1.508  -2.355   3.786  0.00  0.00     0.163 C 
ATOM     20  O   UNL d   1      -1.068  -3.254   3.076  0.00  0.00    -0.292 OA
BRANCH  19  21
ATOM     21  C   UNL d   1      -1.737  -2.615   5.249  0.00  0.00     0.010 A 
ATOM     22  C   UNL d   1      -2.087  -1.600   6.149  0.00  0.00     0.015 A 
ATOM     23  C   UNL d   1      -2.291  -1.887   7.501  0.00  0.00     0.007 A 
ATOM     24  C   UNL d   1      -2.147  -3.192   7.981  0.00  0.00    -0.062 A 
ATOM     25  C   UNL d   1      -1.797  -4.208   7.087  0.00  0.00     0.007 A 
ATOM     26  C   UNL d   1      -2.365  -3.472   9.439  0.00  0.00     0.048 C 
ATOM     27  C   UNL d   1      -1.594  -3.923   5.732  0.00  0.00     0.015 A 
ENDBRANCH  19  21
ENDBRANCH   4  19
TORSDOF 5
