REMARK  2 active torsions:
REMARK  status: ('A' for Active; 'I' for Inactive)
REMARK    1  A    between atoms: C_2  and  C_1 
REMARK       I    between atoms: N_3  and  C_2 
REMARK    2  A    between atoms: C_7  and  N_3 
ROOT
ATOM      1  N   UNL d   1      -2.631   1.556  -3.993  0.00  0.00    -0.191 NA
ATOM      2  C   UNL d   1      -2.245   1.996  -2.988  0.00  0.00     0.099 C 
ATOM      3  C   UNL d   1      -0.753   2.207   0.429  0.00  0.00     0.036 A 
ATOM      4  C   UNL d   1      -1.763   2.544  -1.756  0.00  0.00     0.046 A 
ATOM      5  C   UNL d   1      -1.256   1.691  -0.768  0.00  0.00     0.052 A 
ATOM      6  C   UNL d   1      -1.306   4.447  -0.347  0.00  0.00     0.004 A 
ATOM      7  C   UNL d   1      -0.792   3.593   0.634  0.00  0.00     0.029 A 
ATOM      8  C   UNL d   1      -1.786   3.923  -1.546  0.00  0.00     0.023 A 
ENDROOT
BRANCH   3   9
ATOM      9  N   UNL d   1      -0.182   1.415   1.451  0.00  0.00    -0.323 N 
ATOM     10  C   UNL d   1       0.014   0.032   1.450  0.00  0.00     0.277 C 
ATOM     11  O   UNL d   1      -0.348  -0.700   0.525  0.00  0.00    -0.268 OA
ATOM     12  H   UNL d   1       0.158   1.919   2.267  0.00  0.00     0.169 HD
BRANCH  10  13
ATOM     13  C   UNL d   1       0.722  -0.558   2.699  0.00  0.00     0.269 C 
ATOM     14 CL   UNL d   1       1.217   0.720   3.851  0.00  0.00    -0.073 Cl
ATOM     15 CL   UNL d   1       2.175  -1.439   2.158  0.00  0.00    -0.073 Cl
ATOM     16 CL   UNL d   1      -0.413  -1.665   3.511  0.00  0.00    -0.073 Cl
ENDBRANCH  10  13
ENDBRANCH   3   9
TORSDOF 2
