REMARK  6 active torsions:
REMARK  status: ('A' for Active; 'I' for Inactive)
REMARK    1  A    between atoms: N_2  and  C_1 
REMARK    2  A    between atoms: C_4  and  C_1 
REMARK    3  A    between atoms: C_6  and  C_1 
REMARK    4  A    between atoms: O_10  and  C_1 
REMARK       I    between atoms: C_3  and  N_2 
REMARK    5  A    between atoms: C_5  and  C_3 
REMARK    6  A    between atoms: O_15  and  C_6 
ROOT
ATOM      1  N   UNL d   1       0.657   0.941  -0.964  0.00  0.00    -0.309 N 
ATOM      2  C   UNL d   1       1.054   2.251  -0.837  0.00  0.00     0.260 C 
ATOM      3  O   UNL d   1       1.605   2.619   0.194  0.00  0.00    -0.267 OA
ATOM      4  H   UNL d   1       0.254   0.602  -1.836  0.00  0.00     0.166 HD
ENDROOT
BRANCH   1   5
ATOM      5  C   UNL d   1       1.018  -0.080   0.029  0.00  0.00     0.325 C 
BRANCH   5   6
ATOM      6  C   UNL d   1       2.546  -0.371   0.174  0.00  0.00     0.448 C 
ATOM      7  F   UNL d   1       3.297   0.420  -0.634  0.00  0.00    -0.166 F 
ATOM      8  F   UNL d   1       2.978  -0.159   1.443  0.00  0.00    -0.166 F 
ATOM      9  F   UNL d   1       2.883  -1.647  -0.139  0.00  0.00    -0.166 F 
ENDBRANCH   5   6
BRANCH   5  10
ATOM     10  C   UNL d   1       0.413  -1.402  -0.479  0.00  0.00     0.324 C 
ATOM     11  O   UNL d   1       0.168  -1.624  -1.663  0.00  0.00    -0.259 OA
BRANCH  10  12
ATOM     12  O   UNL d   1       0.196  -2.290   0.532  0.00  0.00    -0.322 OA
ATOM     13  C   UNL d   1      -0.348  -3.541   0.114  0.00  0.00     0.213 C 
ENDBRANCH  10  12
ENDBRANCH   5  10
BRANCH   5  14
ATOM     14  O   UNL d   1       0.390   0.347   1.239  0.00  0.00    -0.356 OA
ATOM     15  H   UNL d   1       0.775   1.232   1.410  0.00  0.00     0.213 HD
ENDBRANCH   5  14
ENDBRANCH   1   5
BRANCH   2  16
ATOM     16  C   UNL d   1       0.764   3.173  -1.968  0.00  0.00     0.109 A 
ATOM     17  C   UNL d   1       0.078   2.758  -3.113  0.00  0.00     0.135 A 
ATOM     18  F   UNL d   1      -0.345   1.492  -3.243  0.00  0.00    -0.205 F 
ATOM     19  C   UNL d   1      -0.193   3.637  -4.163  0.00  0.00     0.043 A 
ATOM     20  C   UNL d   1       0.225   4.962  -4.083  0.00  0.00     0.006 A 
ATOM     21  C   UNL d   1       0.911   5.396  -2.952  0.00  0.00     0.043 A 
ATOM     22  C   UNL d   1       1.176   4.507  -1.905  0.00  0.00     0.135 A 
ATOM     23  F   UNL d   1       1.840   4.986  -0.845  0.00  0.00    -0.205 F 
ENDBRANCH   2  16
TORSDOF 6
