REMARK  5 active torsions:
REMARK  status: ('A' for Active; 'I' for Inactive)
REMARK    1  A    between atoms: C_2  and  C_1 
REMARK    2  A    between atoms: C_3  and  C_1 
REMARK    3  A    between atoms: C_17  and  C_4 
REMARK    4  A    between atoms: C_19  and  C_17 
REMARK    5  A    between atoms: C_18  and  C_19 
ROOT
ATOM      1  C   UNL d   1       0.873  -0.045   0.001  0.00  0.00    -0.019 C 
ATOM      2  C   UNL d   1       2.223   0.013   0.005  0.00  0.00    -0.013 C 
ENDROOT
BRANCH   1   3
ATOM      3  C   UNL d   1       0.106   0.495  -1.140  0.00  0.00    -0.025 A 
ATOM      4  C   UNL d   1      -0.245  -0.337  -2.212  0.00  0.00     0.014 A 
ATOM      5  C   UNL d   1      -0.969   0.174  -3.292  0.00  0.00     0.024 A 
ATOM      6  C   UNL d   1      -1.344   1.516  -3.302  0.00  0.00     0.034 A 
ATOM      7  C   UNL d   1      -0.998   2.354  -2.244  0.00  0.00     0.024 A 
ATOM      8 CL   UNL d   1      -2.241   2.143  -4.630  0.00  0.00    -0.084 Cl
ATOM      9  C   UNL d   1      -0.273   1.844  -1.163  0.00  0.00     0.014 A 
ENDBRANCH   1   3
BRANCH   1  10
ATOM     10  C   UNL d   1       0.218  -0.644   1.183  0.00  0.00    -0.025 A 
ATOM     11  C   UNL d   1      -0.123   0.160   2.279  0.00  0.00     0.014 A 
ATOM     12  C   UNL d   1      -0.753  -0.398   3.394  0.00  0.00     0.024 A 
ATOM     13  C   UNL d   1      -1.042  -1.761   3.415  0.00  0.00     0.034 A 
ATOM     14  C   UNL d   1      -0.705  -2.572   2.333  0.00  0.00     0.024 A 
ATOM     15 CL   UNL d   1      -1.822  -2.446   4.787  0.00  0.00    -0.084 Cl
ATOM     16  C   UNL d   1      -0.074  -2.014   1.217  0.00  0.00     0.014 A 
ENDBRANCH   1  10
BRANCH   2  17
ATOM     17  C   UNL d   1       3.068   0.615  -1.089  0.00  0.00     0.032 C 
BRANCH  17  18
ATOM     18  C   UNL d   1       4.574   0.508  -0.817  0.00  0.00     0.042 C 
BRANCH  18  19
ATOM     19  C   UNL d   1       5.362   1.169  -1.923  0.00  0.00    -0.058 A 
ATOM     20  C   UNL d   1       5.689   2.530  -1.846  0.00  0.00     0.007 A 
ATOM     21  C   UNL d   1       6.360   3.157  -2.898  0.00  0.00     0.001 A 
ATOM     22  C   UNL d   1       6.709   2.430  -4.035  0.00  0.00     0.000 A 
ATOM     23  C   UNL d   1       6.391   1.076  -4.120  0.00  0.00     0.001 A 
ATOM     24  C   UNL d   1       5.720   0.448  -3.070  0.00  0.00     0.007 A 
ENDBRANCH  18  19
ENDBRANCH  17  18
ENDBRANCH   2  17
TORSDOF 5
