REMARK  3 active torsions:
REMARK  status: ('A' for Active; 'I' for Inactive)
REMARK    1  A    between atoms: C_8  and  C_3 
REMARK    2  A    between atoms: C_11  and  C_7 
REMARK    3  A    between atoms: C_17  and  C_10 
ROOT
ATOM      1  N   UNL d   1       2.615  -1.644  -0.361  0.00  0.00    -0.331 N 
ATOM      2  HN  UNL d   1       2.738  -0.759   0.131  1.00  0.00     0.168 HD
ATOM      3  C   UNL d   1       3.491  -2.330  -1.020  0.00  0.00     0.162 A 
ATOM      4  C   UNL d   1       1.477  -2.404  -0.490  0.00  0.00     0.111 A 
ATOM      5  O   UNL d   1       3.085  -3.482  -1.598  0.00  0.00    -0.256 OA
ATOM      6  C   UNL d   1       1.761  -3.622  -1.307  0.00  0.00     0.316 A 
ATOM      7  C   UNL d   1       0.306  -2.072   0.066  0.00  0.00     0.047 C 
ATOM      8  O   UNL d   1       1.041  -4.530  -1.657  0.00  0.00    -0.257 OA
ENDROOT
BRANCH   7   9
ATOM      9  C   UNL d   1      -0.923  -2.859   0.003  0.00  0.00    -0.034 A 
ATOM     10  C   UNL d   1      -1.219  -3.760   1.029  0.00  0.00     0.012 A 
ATOM     11  C   UNL d   1      -2.410  -4.488   1.004  0.00  0.00     0.008 A 
ATOM     12  C   UNL d   1      -3.329  -4.331  -0.044  0.00  0.00    -0.055 A 
ATOM     13  C   UNL d   1      -3.013  -3.439  -1.080  0.00  0.00     0.008 A 
ATOM     14  C   UNL d   1      -1.819  -2.709  -1.057  0.00  0.00     0.012 A 
BRANCH  12  15
ATOM     15  C   UNL d   1      -4.642  -5.095  -0.066  0.00  0.00     0.010 C 
ATOM     16  C   UNL d   1      -4.420  -6.609  -0.100  0.00  0.00     0.015 C 
ATOM     17  C   UNL d   1      -5.532  -4.709   1.120  0.00  0.00     0.015 C 
ENDBRANCH  12  15
ENDBRANCH   7   9
BRANCH   3  18
ATOM     18  C   UNL d   1       4.913  -2.001  -1.216  0.00  0.00     0.015 A 
ATOM     19  C   UNL d   1       5.446  -0.874  -0.579  0.00  0.00     0.017 A 
ATOM     20  C   UNL d   1       6.792  -0.539  -0.756  0.00  0.00     0.025 A 
ATOM     21  C   UNL d   1       7.601  -1.329  -1.572  0.00  0.00     0.034 A 
ATOM     22  C   UNL d   1       7.079  -2.454  -2.208  0.00  0.00     0.025 A 
ATOM     23 CL   UNL d   1       9.255  -0.912  -1.798  0.00  0.00    -0.084 Cl
ATOM     24  C   UNL d   1       5.735  -2.793  -2.029  0.00  0.00     0.017 A 
ENDBRANCH   3  18
TORSDOF 3
