REMARK  5 active torsions:
REMARK  status: ('A' for Active; 'I' for Inactive)
REMARK    1  A    between atoms: C_9  and  C_1 
REMARK    2  A    between atoms: C_4  and  O_11 
REMARK    3  A    between atoms: C_7  and  C_4 
REMARK    4  A    between atoms: C_10  and  C_9 
REMARK    5  A    between atoms: O_11  and  C_15 
ROOT
ATOM      1  C   UNL d   1      -1.786  -1.040  -0.078  0.00  0.00     0.029 C 
ATOM      2  C   UNL d   1      -2.021   0.432  -0.099  0.00  0.00     0.295 C 
ATOM      3  C   UNL d   1      -0.532  -1.544  -0.115  0.00  0.00    -0.036 C 
ATOM      4  O   UNL d   1      -0.971   1.225  -0.522  0.00  0.00    -0.274 OA
ATOM      5  C   UNL d   1       0.342   0.749  -0.405  0.00  0.00     0.093 A 
ATOM      6  C   UNL d   1       0.605  -0.601  -0.155  0.00  0.00     0.005 A 
ATOM      7  C   UNL d   1       1.345   1.721  -0.464  0.00  0.00     0.075 A 
ATOM      8  C   UNL d   1       1.944  -0.961   0.056  0.00  0.00     0.017 A 
ATOM      9  C   UNL d   1       2.654   1.340  -0.216  0.00  0.00     0.082 A 
ATOM     10  O   UNL d   1      -3.113   0.920   0.168  0.00  0.00    -0.259 OA
ATOM     11  C   UNL d   1       2.960   0.002   0.048  0.00  0.00     0.038 A 
ATOM     12  C   UNL d   1      -0.224  -3.020  -0.082  0.00  0.00     0.050 C 
ENDROOT
BRANCH   9  13
ATOM     13  O   UNL d   1       3.691   2.281  -0.044  0.00  0.00    -0.275 OA
BRANCH  13  14
ATOM     14  C   UNL d   1       3.868   3.312  -0.955  0.00  0.00     0.302 C 
ATOM     15  O   UNL d   1       3.207   3.527  -1.958  0.00  0.00    -0.259 OA
BRANCH  14  16
ATOM     16  C   UNL d   1       5.005   4.160  -0.523  0.00  0.00     0.083 A 
ATOM     17  C   UNL d   1       4.872   5.560  -0.510  0.00  0.00     0.052 A 
ATOM     18 CL   UNL d   1       3.373   6.369  -0.817  0.00  0.00    -0.083 Cl
ATOM     19  C   UNL d   1       5.967   6.380  -0.203  0.00  0.00     0.025 A 
ATOM     20  C   UNL d   1       7.202   5.816   0.114  0.00  0.00     0.003 A 
ATOM     21  C   UNL d   1       7.339   4.432   0.128  0.00  0.00     0.025 A 
ATOM     22  C   UNL d   1       6.255   3.604  -0.198  0.00  0.00     0.052 A 
ATOM     23 CL   UNL d   1       6.584   1.904  -0.225  0.00  0.00    -0.083 Cl
ENDBRANCH  14  16
ENDBRANCH  13  14
ENDBRANCH   9  13
BRANCH   1  24
ATOM     24  C   UNL d   1      -3.063  -1.849  -0.070  0.00  0.00     0.089 C 
BRANCH  24  25
ATOM     25  C   UNL d   1      -3.601  -2.364   1.255  0.00  0.00     0.007 A 
ATOM     26  C   UNL d   1      -3.016  -2.076   2.495  0.00  0.00     0.124 A 
ATOM     27  F   UNL d   1      -1.915  -1.317   2.580  0.00  0.00    -0.205 F 
ATOM     28  C   UNL d   1      -3.535  -2.575   3.693  0.00  0.00     0.043 A 
ATOM     29  C   UNL d   1      -4.671  -3.376   3.681  0.00  0.00     0.005 A 
ATOM     30  C   UNL d   1      -5.285  -3.671   2.470  0.00  0.00     0.024 A 
ATOM     31  C   UNL d   1      -4.759  -3.168   1.271  0.00  0.00     0.043 A 
ATOM     32 CL   UNL d   1      -5.601  -3.587  -0.185  0.00  0.00    -0.084 Cl
ENDBRANCH  24  25
ENDBRANCH   1  24
TORSDOF 5
