REMARK  4 active torsions:
REMARK  status: ('A' for Active; 'I' for Inactive)
REMARK    1  A    between atoms: C_10  and  N_6 
REMARK    2  A    between atoms: C_11  and  C_10 
REMARK       I    between atoms: N_14  and  C_11 
REMARK    3  A    between atoms: N_12  and  N_14 
REMARK    4  A    between atoms: C_19  and  C_18 
ROOT
ATOM      1  C   UNL d   1       2.019   1.002   0.232  0.00  0.00     0.276 C 
ENDROOT
BRANCH   1   2
ATOM      2  N   UNL d   1       1.009  -0.013   0.447  0.00  0.00    -0.196 N 
ATOM      3  N   UNL d   1       1.182  -1.333   0.171  0.00  0.00    -0.113 N 
ATOM      4  C   UNL d   1      -0.100  -1.742   0.126  0.00  0.00     0.712 A 
ATOM      5  HN  UNL d   1       2.042  -1.864   0.036  1.00  0.00     0.207 HD
ATOM      6  N   UNL d   1      -0.979  -0.713   0.374  0.00  0.00    -0.115 N 
ATOM      7  N   UNL d   1      -0.579  -2.990  -0.151  0.00  0.00    -0.215 N 
ATOM      8  N   UNL d   1      -0.268   0.378   0.582  0.00  0.00    -0.211 N 
ATOM      9  HN  UNL d   1      -1.996  -0.781   0.393  1.00  0.00     0.207 HD
ATOM     10  HN  UNL d   1      -0.613   1.313   0.799  1.00  0.00     0.210 HD
ATOM     11  C   UNL d   1       0.234  -4.139   0.253  0.00  0.00     0.141 C 
ATOM     12  C   UNL d   1      -2.033  -3.169  -0.018  0.00  0.00     0.141 C 
ATOM     13  C   UNL d   1      -0.220  -5.416  -0.456  0.00  0.00     0.020 C 
ATOM     14  C   UNL d   1      -1.717  -5.667  -0.324  0.00  0.00     0.003 C 
ATOM     15  C   UNL d   1      -2.521  -4.436  -0.713  0.00  0.00     0.020 C 
ENDBRANCH   1   2
BRANCH   1  16
ATOM     16  C   UNL d   1       3.433   0.687   0.625  0.00  0.00     0.257 C 
ATOM     17  N   UNL d   1       3.831  -0.637   0.542  0.00  0.00    -0.269 N 
ATOM     18  H   UNL d   1       3.152  -1.370   0.330  0.00  0.00     0.190 HD
ATOM     19  O   UNL d   1       4.203   1.614   0.895  0.00  0.00    -0.270 OA
BRANCH  17  20
ATOM     20  N   UNL d   1       5.156  -0.930   0.660  0.00  0.00    -0.308 N 
ATOM     21  C   UNL d   1       5.479  -2.178   0.534  0.00  0.00     0.120 C 
ATOM     22  HN  UNL d   1       5.854  -0.208   0.837  1.00  0.00     0.186 HD
BRANCH  21  23
ATOM     23  C   UNL d   1       6.888  -2.603   0.579  0.00  0.00    -0.004 A 
ATOM     24  C   UNL d   1       7.918  -1.695   0.783  0.00  0.00     0.100 A 
ATOM     25  N   UNL d   1       9.229  -2.043   0.817  0.00  0.00    -0.374 N 
ATOM     26  C   UNL d   1       9.517  -3.350   0.634  0.00  0.00     0.087 A 
ATOM     27  HN  UNL d   1       9.962  -1.351   0.972  1.00  0.00     0.164 HD
ATOM     28  C   UNL d   1       8.555  -4.328   0.421  0.00  0.00     0.018 A 
ATOM     29  C   UNL d   1       7.215  -3.945   0.393  0.00  0.00     0.015 A 
ENDBRANCH  21  23
ENDBRANCH  17  20
ENDBRANCH   1  16
TORSDOF 4
