REMARK  2 active torsions:
REMARK  status: ('A' for Active; 'I' for Inactive)
REMARK    1  A    between atoms: C_8  and  C_3 
REMARK    2  A    between atoms: C_13  and  C_7 
ROOT
ATOM      1  N   UNL d   1       1.255   1.133   0.256  0.00  0.00    -0.301 N 
ATOM      2  HN  UNL d   1       1.768   1.993   0.449  1.00  0.00     0.186 HD
ATOM      3  C   UNL d   1       1.891   0.012   0.101  0.00  0.00     0.044 C 
ATOM      4  N   UNL d   1      -0.097   1.151   0.159  0.00  0.00    -0.269 N 
ATOM      5  C   UNL d   1      -0.936   0.077   0.058  0.00  0.00     0.244 C 
ATOM      6  C   UNL d   1       1.200  -1.295  -0.190  0.00  0.00     0.079 C 
ATOM      7  C   UNL d   1      -0.296  -1.296   0.100  0.00  0.00     0.118 C 
ATOM      8  O   UNL d   1      -2.155   0.255   0.008  0.00  0.00    -0.271 OA
ATOM      9  H   UNL d   1      -0.538   2.066   0.184  0.00  0.00     0.190 HD
ENDROOT
BRANCH   7  10
ATOM     10  C   UNL d   1      -0.985  -2.292  -0.823  0.00  0.00    -0.045 A 
ATOM     11  C   UNL d   1      -1.058  -2.051  -2.207  0.00  0.00     0.008 A 
ATOM     12  C   UNL d   1      -1.639  -2.985  -3.063  0.00  0.00     0.001 A 
ATOM     13  C   UNL d   1      -2.165  -4.166  -2.548  0.00  0.00     0.000 A 
ATOM     14  C   UNL d   1      -2.111  -4.414  -1.177  0.00  0.00     0.001 A 
ATOM     15  C   UNL d   1      -1.522  -3.484  -0.317  0.00  0.00     0.008 A 
ENDBRANCH   7  10
BRANCH   3  16
ATOM     16  C   UNL d   1       3.348   0.049   0.157  0.00  0.00     0.028 A 
ATOM     17  S   UNL d   1       4.302  -1.146  -0.623  0.00  0.00    -0.100 SA
ATOM     18  C   UNL d   1       5.761  -0.397  -0.153  0.00  0.00     0.050 A 
ATOM     19  C   UNL d   1       5.540   0.738   0.592  0.00  0.00     0.008 A 
ATOM     20  C   UNL d   1       4.149   1.002   0.759  0.00  0.00     0.021 A 
ENDBRANCH   3  16
TORSDOF 2
