REMARK  6 active torsions:
REMARK  status: ('A' for Active; 'I' for Inactive)
REMARK    1  A    between atoms: C7_7  and  C1_1 
REMARK    2  A    between atoms: C6_6  and  O1_8 
REMARK       I    between atoms: N_18  and  C6_6 
REMARK    3  A    between atoms: O1_8  and  C7_7 
REMARK    4  A    between atoms: CA_19  and  N_18 
REMARK    5  A    between atoms: C_21  and  CA_19 
REMARK    6  A    between atoms: O_20  and  C_21 
ROOT
ATOM      1  C1  <1> d   1      -0.135   1.754  -0.057  0.00  0.00     0.078 A 
ATOM      2  C2  <1> d   1      -0.809  -0.562  -0.126  0.00  0.00    -0.018 A 
ATOM      3  C3  <1> d   1       0.638  -0.532  -0.108  0.00  0.00    -0.018 A 
ATOM      4  C4  <1> d   1      -1.295   0.764  -0.134  0.00  0.00    -0.036 A 
ATOM      5  C5  <1> d   1       1.067   0.813  -0.098  0.00  0.00    -0.036 A 
ATOM      6  C8  <1> d   1       1.563  -1.562  -0.083  0.00  0.00     0.013 A 
ATOM      7  C9  <1> d   1      -1.690  -1.631  -0.110  0.00  0.00     0.013 A 
ATOM      8  C10 <1> d   1      -2.655   1.035  -0.154  0.00  0.00     0.009 A 
ATOM      9  C11 <1> d   1       2.415   1.141  -0.098  0.00  0.00     0.009 A 
ATOM     10  C15 <1> d   1      -3.063  -1.365  -0.101  0.00  0.00     0.001 A 
ATOM     11  C16 <1> d   1       2.924  -1.238  -0.053  0.00  0.00     0.001 A 
ATOM     12  C17 <1> d   1       3.345   0.102  -0.068  0.00  0.00     0.001 A 
ATOM     13  C18 <1> d   1      -3.541  -0.044  -0.129  0.00  0.00     0.001 A 
ENDROOT
BRANCH   1  14
ATOM     14  C7  <1> d   1      -0.196   2.545   1.258  0.00  0.00     0.194 C 
BRANCH  14  15
ATOM     15  O1  <1> d   1       0.875   3.507   1.334  0.00  0.00    -0.303 OA
BRANCH  15  16
ATOM     16  C6  <1> d   1       0.535   4.781   1.632  0.00  0.00     0.360 C 
ATOM     17  N   ALA d   1       1.672   5.508   1.827  0.00  0.00    -0.331 N 
ATOM     18  H   ALA d   1       2.520   4.963   1.907  0.00  0.00     0.165 HD
ATOM     19  O2  <1> d   1      -0.599   5.210   1.754  0.00  0.00    -0.239 OA
BRANCH  17  20
ATOM     20  CA  ALA d   1       1.650   6.868   2.351  0.00  0.00     0.106 C 
ATOM     21  CB  ALA d   1       3.026   7.512   2.184  0.00  0.00     0.034 C 
BRANCH  20  22
ATOM     22  C   ALA d   1       1.198   6.912   3.824  0.00  0.00     0.189 C 
BRANCH  22  23
ATOM     23  O   ALA d   1       2.065   6.127   4.644  0.00  0.00    -0.399 OA
ATOM     24  H   ALA d   1       1.511   5.449   5.069  0.00  0.00     0.209 HD
ENDBRANCH  22  23
ENDBRANCH  20  22
ENDBRANCH  17  20
ENDBRANCH  15  16
ENDBRANCH  14  15
ENDBRANCH   1  14
TORSDOF 6
