REMARK  3 active torsions:
REMARK  status: ('A' for Active; 'I' for Inactive)
REMARK    1  A    between atoms: C_8  and  C_2 
REMARK    2  A    between atoms: C_7  and  C_3 
REMARK    3  A    between atoms: O_11  and  C_7 
ROOT
ATOM      1  C   UNL d   1      -1.236   0.146   0.009  0.00  0.00     0.132 C 
ATOM      2  C   UNL d   1       0.526  -0.558   1.161  0.00  0.00     0.090 C 
ATOM      3  C   UNL d   1      -2.488   0.162  -0.460  0.00  0.00     0.123 C 
ATOM      4  O   UNL d   1      -0.633  -0.997   0.510  0.00  0.00    -0.306 OA
ATOM      5  C   UNL d   1       0.793   0.746   1.023  0.00  0.00     0.095 C 
ATOM      6  C   UNL d   1      -0.295   1.278   0.194  0.00  0.00     0.208 C 
ATOM      7  O   UNL d   1      -0.309   2.386  -0.302  0.00  0.00    -0.285 OA
ENDROOT
BRANCH   2   8
ATOM      8  C   UNL d   1       1.286  -1.527   1.959  0.00  0.00    -0.002 A 
ATOM      9  C   UNL d   1       2.001  -1.114   3.096  0.00  0.00     0.014 A 
ATOM     10  C   UNL d   1       2.683  -2.037   3.892  0.00  0.00     0.001 A 
ATOM     11  C   UNL d   1       2.661  -3.389   3.563  0.00  0.00     0.000 A 
ATOM     12  C   UNL d   1       1.964  -3.816   2.435  0.00  0.00     0.001 A 
ATOM     13  C   UNL d   1       1.278  -2.892   1.639  0.00  0.00     0.014 A 
ENDBRANCH   2   8
BRANCH   3  14
ATOM     14  C   UNL d   1      -3.241   1.410  -0.664  0.00  0.00     0.285 C 
ATOM     15  O   UNL d   1      -3.053   2.447  -0.055  0.00  0.00    -0.260 OA
BRANCH  14  16
ATOM     16  O   UNL d   1      -4.254   1.170  -1.532  0.00  0.00    -0.323 OA
ATOM     17  C   UNL d   1      -5.124   2.293  -1.698  0.00  0.00     0.213 C 
ENDBRANCH  14  16
ENDBRANCH   3  14
TORSDOF 3
