REMARK  5 active torsions:
REMARK  status: ('A' for Active; 'I' for Inactive)
REMARK    1  A    between atoms: C_5  and  C_1 
REMARK    2  A    between atoms: S_15  and  C_6 
REMARK    3  A    between atoms: C_11  and  C_13 
REMARK    4  A    between atoms: C_26  and  S_15 
REMARK    5  A    between atoms: C_20  and  C_26 
ROOT
ATOM      1  C   UNL d   1      -0.246  -1.038  -0.032  0.00  0.00     0.177 A 
ATOM      2  O   UNL d   1      -1.150  -0.005   0.013  0.00  0.00    -0.267 OA
ATOM      3  N   UNL d   1       0.998  -0.605  -0.090  0.00  0.00    -0.277 N 
ATOM      4  HN  UNL d   1       1.841  -1.178  -0.121  1.00  0.00     0.189 HD
ATOM      5  C   UNL d   1      -0.334   1.098  -0.049  0.00  0.00     0.204 A 
ATOM      6  N   UNL d   1       0.941   0.771  -0.100  0.00  0.00    -0.272 N 
ATOM      7  HN  UNL d   1       1.732   1.413  -0.140  1.00  0.00     0.189 HD
ENDROOT
BRANCH   1   8
ATOM      8  C   UNL d   1      -0.773  -2.399  -0.065  0.00  0.00     0.039 A 
ATOM      9  C   UNL d   1      -0.036  -3.475  -0.582  0.00  0.00     0.020 A 
ATOM     10  N   UNL d   1      -0.521  -4.747  -0.640  0.00  0.00    -0.355 N 
ATOM     11  C   UNL d   1       1.349  -3.313  -1.142  0.00  0.00     0.069 C 
ATOM     12  C   UNL d   1      -1.773  -5.006  -0.174  0.00  0.00     0.117 A 
ATOM     13  HN  UNL d   1       0.049  -5.499  -1.028  1.00  0.00     0.166 HD
ATOM     14  C   UNL d   1      -2.561  -3.995   0.366  0.00  0.00     0.035 A 
ATOM     15  C   UNL d   1      -2.059  -2.692   0.417  0.00  0.00     0.020 A 
BRANCH  12  16
ATOM     16  C   UNL d   1      -2.327  -6.426  -0.257  0.00  0.00     0.432 C 
ATOM     17  F   UNL d   1      -1.478  -7.331  -0.821  0.00  0.00    -0.165 F 
ATOM     18  F   UNL d   1      -2.651  -6.932   0.969  0.00  0.00    -0.165 F 
ATOM     19  F   UNL d   1      -3.477  -6.491  -0.992  0.00  0.00    -0.165 F 
ENDBRANCH  12  16
ENDBRANCH   1   8
BRANCH   5  20
ATOM     20  S   UNL d   1      -0.938   2.727  -0.059  0.00  0.00    -0.080 SA
BRANCH  20  21
ATOM     21  C   UNL d   1       0.483   3.603  -0.784  0.00  0.00     0.121 C 
BRANCH  21  22
ATOM     22  C   UNL d   1       0.264   5.098  -0.805  0.00  0.00    -0.043 A 
ATOM     23  C   UNL d   1       0.710   5.902   0.256  0.00  0.00     0.050 A 
ATOM     24  C   UNL d   1       0.497   7.280   0.234  0.00  0.00     0.119 A 
ATOM     25  F   UNL d   1       0.935   8.028   1.254  0.00  0.00    -0.206 F 
ATOM     26  C   UNL d   1      -0.160   7.889  -0.825  0.00  0.00     0.084 A 
ATOM     27  C   UNL d   1      -0.606   7.097  -1.872  0.00  0.00     0.119 A 
ATOM     28  C   UNL d   1      -0.404   5.716  -1.874  0.00  0.00     0.050 A 
ATOM     29  F   UNL d   1      -1.243   7.668  -2.904  0.00  0.00    -0.206 F 
ENDBRANCH  21  22
ENDBRANCH  20  21
ENDBRANCH   5  20
TORSDOF 5
