REMARK  2 active torsions:
REMARK  status: ('A' for Active; 'I' for Inactive)
REMARK    1  A    between atoms: C_8  and  C_4 
REMARK    2  A    between atoms: S_11  and  C_5 
ROOT
ATOM      1  C   UNL d   1      -0.413  -0.062   0.031  0.00  0.00     0.108 A 
ATOM      2  N   UNL d   1       1.801  -0.592   0.032  0.00  0.00    -0.297 N 
ATOM      3  HN  UNL d   1       2.687  -1.098   0.048  1.00  0.00     0.187 HD
ATOM      4  C   UNL d   1       0.560  -1.106  -0.011  0.00  0.00     0.082 A 
ATOM      5  C   UNL d   1       0.302   1.113   0.041  0.00  0.00     0.107 A 
ATOM      6  N   UNL d   1       1.614   0.738   0.048  0.00  0.00    -0.292 N 
ATOM      7  C   UNL d   1      -1.826  -0.213   0.057  0.00  0.00     0.104 C 
ATOM      8  N   UNL d   1      -2.982  -0.334   0.058  0.00  0.00    -0.191 NA
ATOM      9  H   UNL d   1       2.426   1.346   0.062  0.00  0.00     0.187 HD
ENDROOT
BRANCH   4  10
ATOM     10  C   UNL d   1       0.355  -2.558  -0.089  0.00  0.00    -0.005 A 
ATOM     11  C   UNL d   1       1.252  -3.432   0.542  0.00  0.00     0.037 A 
ATOM     12  C   UNL d   1       1.065  -4.812   0.457  0.00  0.00     0.035 A 
ATOM     13 CL   UNL d   1       2.176  -5.876   1.230  0.00  0.00    -0.084 Cl
ATOM     14  C   UNL d   1      -0.013  -5.341  -0.250  0.00  0.00     0.024 A 
ATOM     15  C   UNL d   1      -0.907  -4.484  -0.885  0.00  0.00     0.003 A 
ATOM     16  C   UNL d   1      -0.719  -3.102  -0.813  0.00  0.00     0.014 A 
ENDBRANCH   4  10
BRANCH   5  17
ATOM     17  S   UNL d   1      -0.033   2.811   0.048  0.00  0.00    -0.114 SA
ATOM     18  C   UNL d   1      -1.833   2.917  -0.018  0.00  0.00     0.097 C 
ENDBRANCH   5  17
TORSDOF 2
