REMARK  8 active torsions:
REMARK  status: ('A' for Active; 'I' for Inactive)
REMARK    1  A    between atoms: C_8  and  N_1 
REMARK    2  A    between atoms: C_13  and  N_3 
REMARK    3  A    between atoms: N_6  and  C_4 
REMARK       I    between atoms: C_9  and  N_6 
REMARK       I    between atoms: N_17  and  C_9 
REMARK    4  A    between atoms: C_10  and  O_21 
REMARK    5  A    between atoms: C_11  and  O_20 
REMARK    6  A    between atoms: C_32  and  N_17 
REMARK    7  A    between atoms: O_20  and  C_34 
REMARK    8  A    between atoms: O_21  and  C_33 
ROOT
ATOM      1  N   UNL d   1      -0.877  -0.769  -0.257  0.00  0.00    -0.250 N 
ATOM      2  C   UNL d   1       0.496  -0.778   0.013  0.00  0.00     0.341 C 
ATOM      3  N   UNL d   1       0.947   0.543   0.067  0.00  0.00    -0.246 N 
ATOM      4  C   UNL d   1      -0.079   1.367  -0.271  0.00  0.00     0.160 C 
ATOM      5  C   UNL d   1      -1.307   0.520  -0.154  0.00  0.00     0.157 C 
ATOM      6  S   UNL d   1      -2.775   1.209   0.214  0.00  0.00    -0.056 SA
ATOM      7  O   UNL d   1       1.195  -1.765   0.199  0.00  0.00    -0.245 OA
ENDROOT
BRANCH   4   8
ATOM      8  N   UNL d   1      -0.173   2.561  -0.749  0.00  0.00    -0.291 N 
ATOM      9  C   UNL d   1       0.910   3.289  -1.119  0.00  0.00     0.326 C 
ATOM     10  N   UNL d   1       0.877   4.615  -0.755  0.00  0.00    -0.309 N 
ATOM     11  O   UNL d   1       1.870   2.845  -1.733  0.00  0.00    -0.247 OA
ATOM     12  H   UNL d   1       1.786   5.056  -0.796  0.00  0.00     0.170 HD
ATOM     13  HN  UNL d   1      -1.099   2.975  -0.853  1.00  0.00     0.172 HD
BRANCH  10  14
ATOM     14  C   UNL d   1      -0.213   5.348  -0.265  0.00  0.00     0.036 A 
ATOM     15  C   UNL d   1       0.054   6.426   0.577  0.00  0.00     0.032 A 
ATOM     16  C   UNL d   1      -0.998   7.158   1.138  0.00  0.00     0.039 A 
ATOM     17  C   UNL d   1      -2.323   6.822   0.847  0.00  0.00     0.078 A 
ATOM     18  C   UNL d   1      -2.589   5.808  -0.064  0.00  0.00     0.039 A 
ATOM     19  C   UNL d   1      -1.540   5.067  -0.611  0.00  0.00     0.032 A 
BRANCH  17  20
ATOM     20  O   UNL d   1      -3.376   7.555   1.306  0.00  0.00    -0.255 OA
BRANCH  20  21
ATOM     21  C   UNL d   1      -3.523   7.599   2.723  0.00  0.00     0.530 C 
ATOM     22  F   UNL d   1      -2.369   7.418   3.401  0.00  0.00    -0.144 F 
ATOM     23  F   UNL d   1      -4.015   8.813   3.060  0.00  0.00    -0.144 F 
ATOM     24  F   UNL d   1      -4.409   6.661   3.119  0.00  0.00    -0.144 F 
ENDBRANCH  20  21
ENDBRANCH  17  20
ENDBRANCH  10  14
ENDBRANCH   4   8
BRANCH   3  25
ATOM     25  C   UNL d   1       2.266   0.919   0.365  0.00  0.00     0.046 A 
ATOM     26  C   UNL d   1       3.334   0.435  -0.391  0.00  0.00     0.033 A 
ATOM     27  C   UNL d   1       4.623   0.913  -0.157  0.00  0.00     0.039 A 
ATOM     28  C   UNL d   1       4.875   1.811   0.884  0.00  0.00     0.078 A 
ATOM     29  C   UNL d   1       3.816   2.276   1.663  0.00  0.00     0.039 A 
ATOM     30  C   UNL d   1       2.511   1.840   1.395  0.00  0.00     0.033 A 
BRANCH  28  31
ATOM     31  O   UNL d   1       6.175   2.201   1.003  0.00  0.00    -0.255 OA
BRANCH  31  32
ATOM     32  C   UNL d   1       6.677   2.393   2.316  0.00  0.00     0.530 C 
ATOM     33  F   UNL d   1       6.000   1.690   3.249  0.00  0.00    -0.144 F 
ATOM     34  F   UNL d   1       7.966   1.985   2.341  0.00  0.00    -0.144 F 
ATOM     35  F   UNL d   1       6.641   3.703   2.637  0.00  0.00    -0.144 F 
ENDBRANCH  31  32
ENDBRANCH  28  31
ENDBRANCH   3  25
BRANCH   1  36
ATOM     36  C   UNL d   1      -1.656  -1.894  -0.656  0.00  0.00     0.047 A 
ATOM     37  C   UNL d   1      -1.279  -3.210  -0.371  0.00  0.00     0.055 A 
ATOM     38  C   UNL d   1      -2.005  -4.299  -0.885  0.00  0.00     0.058 A 
ATOM     39 CL   UNL d   1      -1.457  -5.890  -0.488  0.00  0.00    -0.082 Cl
ATOM     40  C   UNL d   1      -3.118  -4.082  -1.701  0.00  0.00     0.055 A 
ATOM     41  C   UNL d   1      -3.511  -2.778  -1.985  0.00  0.00     0.028 A 
ATOM     42 CL   UNL d   1      -4.026  -5.367  -2.412  0.00  0.00    -0.083 Cl
ATOM     43  C   UNL d   1      -2.787  -1.702  -1.470  0.00  0.00     0.032 A 
ENDBRANCH   1  36
TORSDOF 8
