REMARK  2 active torsions:
REMARK  status: ('A' for Active; 'I' for Inactive)
REMARK       I    between atoms: N_2  and  C_1 
REMARK    1  A    between atoms: C_3  and  C_1 
REMARK       I    between atoms: C_4  and  N_2 
REMARK       I    between atoms: N_6  and  C_4 
REMARK    2  A    between atoms: C_5  and  N_6 
ROOT
ATOM      1  C   UNL d   1       1.104   0.254   0.178  0.00  0.00     0.264 C 
ATOM      2  N   UNL d   1       0.528  -0.872   0.739  0.00  0.00    -0.275 N 
ATOM      3  C   UNL d   1       1.103  -1.899   1.445  0.00  0.00     0.327 C 
ATOM      4  N   UNL d   1       2.456  -1.832   1.626  0.00  0.00    -0.306 N 
ATOM      5  O   UNL d   1       2.317   0.440   0.185  0.00  0.00    -0.267 OA
ATOM      6  O   UNL d   1       0.354  -2.771   1.884  0.00  0.00    -0.247 OA
ATOM      7  H   UNL d   1      -0.473  -1.002   0.671  0.00  0.00     0.173 HD
ATOM      8  H   UNL d   1       2.904  -0.966   1.317  0.00  0.00     0.171 HD
ENDROOT
BRANCH   4   9
ATOM      9  C   UNL d   1       3.241  -2.725   2.386  0.00  0.00     0.078 A 
ATOM     10  C   UNL d   1       2.797  -3.987   2.786  0.00  0.00     0.076 A 
ATOM     11  C   UNL d   1       3.588  -4.771   3.625  0.00  0.00     0.136 A 
ATOM     12  F   UNL d   1       3.122  -5.969   4.008  0.00  0.00    -0.205 F 
ATOM     13  C   UNL d   1       4.827  -4.314   4.068  0.00  0.00     0.052 A 
ATOM     14  C   UNL d   1       5.308  -3.083   3.632  0.00  0.00     0.067 A 
ATOM     15 BR   UNL d   1       5.851  -5.343   5.277  0.00  0.00    -0.048 Br
ATOM     16  C   UNL d   1       4.517  -2.307   2.786  0.00  0.00     0.144 A 
ATOM     17  F   UNL d   1       4.979  -1.110   2.394  0.00  0.00    -0.204 F 
ENDBRANCH   4   9
BRANCH   1  18
ATOM     18  C   UNL d   1       0.159   1.235  -0.447  0.00  0.00     0.092 A 
ATOM     19  C   UNL d   1      -1.099   0.798  -0.891  0.00  0.00     0.133 A 
ATOM     20  F   UNL d   1      -1.464  -0.487  -0.763  0.00  0.00    -0.205 F 
ATOM     21  C   UNL d   1      -2.027   1.667  -1.463  0.00  0.00     0.043 A 
ATOM     22  C   UNL d   1      -1.708   3.010  -1.615  0.00  0.00     0.005 A 
ATOM     23  C   UNL d   1      -0.463   3.469  -1.189  0.00  0.00     0.025 A 
ATOM     24  C   UNL d   1       0.471   2.594  -0.607  0.00  0.00     0.052 A 
ATOM     25 CL   UNL d   1       1.946   3.317  -0.070  0.00  0.00    -0.083 Cl
ENDBRANCH   1  18
TORSDOF 2
