REMARK  4 active torsions:
REMARK  status: ('A' for Active; 'I' for Inactive)
REMARK    1  A    between atoms: C_2  and  C_1 
REMARK    2  A    between atoms: O_3  and  C_1 
REMARK    3  A    between atoms: O_6  and  C_2 
REMARK    4  A    between atoms: C_5  and  O_3 
ROOT
ATOM      1  O   UNL d   1       0.677  -0.288  -1.345  0.00  0.00    -0.330 OA
ENDROOT
BRANCH   1   2
ATOM      2  C   UNL d   1       1.078   0.099  -0.022  0.00  0.00     0.145 C 
ATOM      3  C   UNL d   1       0.488  -0.983   0.905  0.00  0.00     0.058 C 
ATOM      4  C   UNL d   1       2.605   0.028   0.124  0.00  0.00     0.058 C 
BRANCH   2   5
ATOM      5  C   UNL d   1       0.509   1.446   0.485  0.00  0.00     0.175 C 
ATOM      6  O   UNL d   1       1.170   2.322   1.031  0.00  0.00    -0.648 OA
BRANCH   5   7
ATOM      7  O   UNL d   1      -0.823   1.589   0.264  0.00  0.00    -0.774 OA
ATOM      8  H   UNL d   1      -1.192   0.851  -0.262  0.00  0.00     0.167 HD
ENDBRANCH   5   7
ENDBRANCH   2   5
ENDBRANCH   1   2
BRANCH   1   9
ATOM      9  C   UNL d   1       0.581   0.645  -2.337  0.00  0.00     0.070 A 
ATOM     10  C   UNL d   1       1.310   1.830  -2.424  0.00  0.00     0.038 A 
ATOM     11  C   UNL d   1       1.049   2.747  -3.447  0.00  0.00     0.026 A 
ATOM     12  C   UNL d   1       0.072   2.468  -4.399  0.00  0.00     0.034 A 
ATOM     13  C   UNL d   1      -0.625   1.264  -4.353  0.00  0.00     0.026 A 
ATOM     14 CL   UNL d   1      -0.279   3.619  -5.626  0.00  0.00    -0.084 Cl
ATOM     15  C   UNL d   1      -0.362   0.351  -3.328  0.00  0.00     0.038 A 
ENDBRANCH   1   9
TORSDOF 4
