REMARK  4 active torsions:
REMARK  status: ('A' for Active; 'I' for Inactive)
REMARK    1  A    between atoms: N_2  and  C_1 
REMARK    2  A    between atoms: N_7  and  C_1 
REMARK       I    between atoms: C_3  and  N_2 
REMARK       I    between atoms: N_6  and  C_3 
REMARK    3  A    between atoms: N_4  and  N_6 
REMARK    4  A    between atoms: C_12  and  N_7 
ROOT
ATOM      1  N   UNL d   1       0.398  -0.372   1.048  0.00  0.00    -0.165 N 
ATOM      2  C   UNL d   1       1.060  -0.793   2.195  0.00  0.00     0.692 C 
ATOM      3  N   UNL d   1       2.300  -0.293   2.511  0.00  0.00    -0.133 N 
ATOM      4  N   UNL d   1       0.427  -1.649   2.923  0.00  0.00    -0.233 N 
ATOM      5  HN  UNL d   1       0.783  -2.009   3.809  1.00  0.00     0.174 HD
ATOM      6  H   UNL d   1      -0.516  -0.780   0.943  0.00  0.00     0.186 HD
ATOM      7  H   UNL d   1       2.694   0.308   1.790  0.00  0.00     0.205 HD
ATOM      8  H   UNL d   1      -0.463  -1.925   2.520  0.00  0.00     0.174 HD
ENDROOT
BRANCH   1   9
ATOM      9  C   UNL d   1       0.795   0.340  -0.080  0.00  0.00     0.191 C 
ATOM     10  S   UNL d   1       2.346   0.833  -0.453  0.00  0.00    -0.040 SA
BRANCH   9  11
ATOM     11  N   UNL d   1      -0.196   0.531  -1.015  0.00  0.00    -0.333 N 
ATOM     12  H   UNL d   1       0.138   0.674  -1.965  0.00  0.00     0.168 HD
BRANCH  11  13
ATOM     13  C   UNL d   1      -1.580   0.701  -0.814  0.00  0.00     0.034 A 
ATOM     14  C   UNL d   1      -2.108   1.184   0.388  0.00  0.00     0.029 A 
ATOM     15  C   UNL d   1      -3.483   1.386   0.522  0.00  0.00     0.002 A 
ATOM     16  C   UNL d   1      -4.338   1.095  -0.538  0.00  0.00     0.000 A 
ATOM     17  C   UNL d   1      -3.817   0.621  -1.741  0.00  0.00     0.002 A 
ATOM     18  C   UNL d   1      -2.439   0.444  -1.886  0.00  0.00     0.029 A 
ENDBRANCH  11  13
ENDBRANCH   9  11
ENDBRANCH   1   9
BRANCH   3  19
ATOM     19  N   UNL d   1       3.196  -0.996   3.264  0.00  0.00    -0.295 N 
ATOM     20  C   UNL d   1       4.197  -0.359   3.790  0.00  0.00    -0.004 C 
ATOM     21  C   UNL d   1       4.441   1.129   3.726  0.00  0.00     0.064 C 
ATOM     22  C   UNL d   1       5.223  -1.181   4.533  0.00  0.00     0.064 C 
ATOM     23  HN  UNL d   1       3.082  -1.999   3.409  1.00  0.00     0.186 HD
ENDBRANCH   3  19
TORSDOF 4
