REMARK  4 active torsions:
REMARK  status: ('A' for Active; 'I' for Inactive)
REMARK    1  A    between atoms: C_2  and  N_1 
REMARK    2  A    between atoms: O_5  and  C_3 
REMARK    3  A    between atoms: C_4  and  C_12 
REMARK    4  A    between atoms: C_15  and  O_5 
ROOT
ATOM      1  C   UNL d   1       1.208  -1.482   3.318  0.00  0.00    -0.035 A 
ATOM      2  C   UNL d   1      -0.145  -1.765   3.071  0.00  0.00     0.012 A 
ATOM      3  C   UNL d   1       1.730  -0.268   2.838  0.00  0.00     0.012 A 
ATOM      4  C   UNL d   1      -0.424   0.347   1.916  0.00  0.00     0.077 A 
ATOM      5  C   UNL d   1      -0.947  -0.870   2.361  0.00  0.00     0.038 A 
ATOM      6  C   UNL d   1       0.920   0.638   2.141  0.00  0.00     0.038 A 
ENDROOT
BRANCH   4   7
ATOM      7  O   UNL d   1      -1.151   1.270   1.192  0.00  0.00    -0.291 OA
BRANCH   7   8
ATOM      8  C   UNL d   1      -2.502   1.377   1.468  0.00  0.00     0.181 A 
ATOM      9  C   UNL d   1      -3.410   1.592   0.450  0.00  0.00     0.154 A 
ATOM     10  C   UNL d   1      -4.776   1.681   0.736  0.00  0.00     0.042 A 
ATOM     11  C   UNL d   1      -5.184   1.560   2.061  0.00  0.00     0.020 A 
ATOM     12  C   UNL d   1      -4.213   1.384   3.035  0.00  0.00     0.090 A 
ATOM     13  N   UNL d   1      -2.891   1.307   2.770  0.00  0.00    -0.345 N 
ATOM     14  HN  UNL d   1      -2.207   1.200   3.520  1.00  0.00     0.167 HD
BRANCH   9  15
ATOM     15  N   UNL d   1      -2.970   1.702  -0.917  0.00  0.00    -0.111 N 
ATOM     16  O   UNL d   1      -2.334   0.753  -1.391  0.00  0.00    -0.532 OA
ATOM     17  O   UNL d   1      -3.320   2.717  -1.534  0.00  0.00    -0.532 OA
ENDBRANCH   9  15
ENDBRANCH   7   8
ENDBRANCH   4   7
BRANCH   1  18
ATOM     18  C   UNL d   1       2.054  -2.522   4.020  0.00  0.00     0.141 C 
ATOM     19  S   UNL d   1       2.963  -1.893   5.463  0.00  0.00    -0.148 SA
ATOM     20  C   UNL d   1       4.382  -2.998   5.272  0.00  0.00     0.085 C 
ATOM     21  C   UNL d   1       4.728  -3.010   3.797  0.00  0.00     0.085 C 
ATOM     22  S   UNL d   1       3.210  -3.339   2.865  0.00  0.00    -0.148 SA
ENDBRANCH   1  18
TORSDOF 4
