REMARK  4 active torsions:
REMARK  status: ('A' for Active; 'I' for Inactive)
REMARK    1  A    between atoms: N_13  and  C_3 
REMARK    2  A    between atoms: S_10  and  C_4 
REMARK    3  A    between atoms: C_7  and  C_9 
REMARK    4  A    between atoms: C_9  and  S_10 
ROOT
ATOM      1  N   UNL d   1       1.608  -0.706  -0.003  0.00  0.00    -0.168 N 
ATOM      2  HN  UNL d   1       2.486  -1.209  -0.128  1.00  0.00     0.186 HD
ATOM      3  C   UNL d   1       0.334  -1.187  -0.053  0.00  0.00     0.692 A 
ATOM      4  C   UNL d   1       1.420   0.566   0.246  0.00  0.00     0.174 A 
ATOM      5  N   UNL d   1      -0.630  -0.287   0.123  0.00  0.00    -0.130 N 
ATOM      6  HN  UNL d   1      -1.643  -0.410   0.106  1.00  0.00     0.205 HD
ATOM      7  N   UNL d   1       0.090   0.829   0.330  0.00  0.00    -0.265 N 
ATOM      8  H   UNL d   1      -0.373   1.711   0.507  0.00  0.00     0.189 HD
ENDROOT
BRANCH   4   9
ATOM      9  S   UNL d   1       2.586   1.820   0.439  0.00  0.00    -0.087 SA
BRANCH   9  10
ATOM     10  C   UNL d   1       4.123   0.899   0.136  0.00  0.00     0.126 C 
BRANCH  10  11
ATOM     11  C   UNL d   1       5.324   1.807   0.069  0.00  0.00     0.012 A 
ATOM     12  C   UNL d   1       5.689   2.360  -1.166  0.00  0.00     0.125 A 
ATOM     13  F   UNL d   1       4.961   2.084  -2.258  0.00  0.00    -0.205 F 
ATOM     14  C   UNL d   1       6.800   3.188  -1.309  0.00  0.00     0.043 A 
ATOM     15  C   UNL d   1       7.582   3.490  -0.199  0.00  0.00     0.005 A 
ATOM     16  C   UNL d   1       7.232   2.970   1.047  0.00  0.00     0.024 A 
ATOM     17  C   UNL d   1       6.109   2.141   1.183  0.00  0.00     0.044 A 
ATOM     18 CL   UNL d   1       5.747   1.553   2.767  0.00  0.00    -0.084 Cl
ENDBRANCH  10  11
ENDBRANCH   9  10
ENDBRANCH   4   9
BRANCH   3  19
ATOM     19  N   UNL d   1       0.143  -2.479  -0.302  0.00  0.00    -0.233 N 
ATOM     20  H   UNL d   1       0.913  -2.992  -0.707  0.00  0.00     0.174 HD
ATOM     21  H   UNL d   1      -0.772  -2.752  -0.630  0.00  0.00     0.174 HD
ENDBRANCH   3  19
TORSDOF 4
