REMARK  3 active torsions:
REMARK  status: ('A' for Active; 'I' for Inactive)
REMARK    1  A    between atoms: C_8  and  N_1 
REMARK    2  A    between atoms: C_11  and  C_5 
REMARK    3  A    between atoms: N_9  and  C_8 
ROOT
ATOM      1  N   UNL d   1       2.277  -0.577   0.019  0.00  0.00    -0.228 N 
ATOM      2  N   UNL d   1       2.227   0.798   0.017  0.00  0.00    -0.292 N 
ATOM      3  HN  UNL d   1       3.093   1.337  -0.013  1.00  0.00     0.187 HD
ATOM      4  C   UNL d   1       1.155  -1.389   0.102  0.00  0.00     0.274 C 
ATOM      5  C   UNL d   1       1.084   1.414   0.051  0.00  0.00     0.070 C 
ATOM      6  C   UNL d   1      -0.152  -0.708   0.083  0.00  0.00     0.046 A 
ATOM      7  C   UNL d   1      -0.209   0.678  -0.004  0.00  0.00     0.009 A 
ATOM      8  O   UNL d   1       1.185  -2.618   0.150  0.00  0.00    -0.266 OA
ATOM      9  C   UNL d   1      -1.331  -1.474   0.075  0.00  0.00     0.018 A 
ATOM     10  C   UNL d   1      -1.457   1.291  -0.188  0.00  0.00     0.015 A 
ATOM     11  C   UNL d   1      -2.570  -0.849  -0.040  0.00  0.00     0.001 A 
ATOM     12  C   UNL d   1      -2.633   0.533  -0.182  0.00  0.00     0.001 A 
ENDROOT
BRANCH   1  13
ATOM     13  C   UNL d   1       3.594  -1.195  -0.131  0.00  0.00     0.424 C 
BRANCH  13  14
ATOM     14  N   UNL d   1       4.523  -0.828   0.956  0.00  0.00     0.107 N 
ATOM     15  C   UNL d   1       4.027  -1.317   2.251  0.00  0.00     0.274 C 
ATOM     16  C   UNL d   1       5.011  -1.030   3.389  0.00  0.00     0.030 C 
ATOM     17  C   UNL d   1       6.386  -1.610   3.087  0.00  0.00     0.003 C 
ATOM     18  C   UNL d   1       6.877  -1.092   1.743  0.00  0.00     0.030 C 
ATOM     19  C   UNL d   1       5.854  -1.371   0.642  0.00  0.00     0.274 C 
ENDBRANCH  13  14
ENDBRANCH   1  13
BRANCH   5  20
ATOM     20  C   UNL d   1       1.145   2.909   0.147  0.00  0.00    -0.007 A 
ATOM     21  C   UNL d   1       2.175   3.579  -0.528  0.00  0.00     0.014 A 
ATOM     22  C   UNL d   1       2.274   4.971  -0.465  0.00  0.00     0.001 A 
ATOM     23  C   UNL d   1       1.342   5.703   0.269  0.00  0.00     0.000 A 
ATOM     24  C   UNL d   1       0.338   5.043   0.973  0.00  0.00     0.001 A 
ATOM     25  C   UNL d   1       0.258   3.648   0.939  0.00  0.00     0.014 A 
ENDBRANCH   5  20
TORSDOF 3
