REMARK  4 active torsions:
REMARK  status: ('A' for Active; 'I' for Inactive)
REMARK    1  A    between atoms: O_4  and  C_1 
REMARK    2  A    between atoms: C_3  and  C_2 
REMARK       I    between atoms: N_8  and  C_3 
REMARK    3  A    between atoms: C_9  and  O_4 
REMARK    4  A    between atoms: N_10  and  N_8 
ROOT
ATOM      1  C   UNL d   1      -0.562   1.134   0.164  0.00  0.00     0.164 A 
ATOM      2  C   UNL d   1       0.815   1.191   0.372  0.00  0.00     0.084 A 
ATOM      3  N   UNL d   1      -1.215  -0.002  -0.207  0.00  0.00    -0.346 N 
ATOM      4  HN  UNL d   1      -2.218   0.003  -0.389  1.00  0.00     0.167 HD
ATOM      5  C   UNL d   1       1.530  -0.009   0.232  0.00  0.00     0.023 A 
ATOM      6  C   UNL d   1      -0.491  -1.133  -0.324  0.00  0.00     0.090 A 
ATOM      7  C   UNL d   1       0.872  -1.187  -0.112  0.00  0.00     0.018 A 
ENDROOT
BRANCH   1   8
ATOM      8  O   UNL d   1      -1.313   2.295   0.300  0.00  0.00    -0.293 OA
BRANCH   8   9
ATOM      9  C   UNL d   1      -2.651   2.173   0.598  0.00  0.00     0.077 A 
ATOM     10  C   UNL d   1      -3.135   1.322   1.595  0.00  0.00     0.037 A 
ATOM     11  C   UNL d   1      -4.504   1.263   1.857  0.00  0.00     0.003 A 
ATOM     12  C   UNL d   1      -5.386   2.079   1.148  0.00  0.00     0.000 A 
ATOM     13  C   UNL d   1      -4.898   2.961   0.184  0.00  0.00     0.003 A 
ATOM     14  C   UNL d   1      -3.530   3.014  -0.087  0.00  0.00     0.037 A 
ENDBRANCH   8   9
ENDBRANCH   1   8
BRANCH   2  15
ATOM     15  C   UNL d   1       1.583   2.407   0.756  0.00  0.00     0.270 C 
ATOM     16  O   UNL d   1       2.770   2.312   1.064  0.00  0.00    -0.266 OA
ATOM     17  N   UNL d   1       0.930   3.634   0.746  0.00  0.00    -0.290 N 
ATOM     18  H   UNL d   1      -0.032   3.722   0.420  0.00  0.00     0.183 HD
BRANCH  17  19
ATOM     19  N   UNL d   1       1.659   4.806   1.042  0.00  0.00    -0.247 NA
ATOM     20  H   UNL d   1       2.655   4.539   1.047  0.00  0.00     0.143 HD
ATOM     21  H   UNL d   1       1.470   5.055   2.015  0.00  0.00     0.143 HD
ENDBRANCH  17  19
ENDBRANCH   2  15
TORSDOF 4
