REMARK  3 active torsions:
REMARK  status: ('A' for Active; 'I' for Inactive)
REMARK    1  A    between atoms: C_8  and  C_3 
REMARK    2  A    between atoms: C_7  and  C_4 
REMARK       I    between atoms: N_13  and  C_7 
REMARK    3  A    between atoms: N_14  and  N_13 
ROOT
ATOM      1  N   UNL d   1       1.289   0.095   0.116  0.00  0.00    -0.314 N 
ATOM      2  HN  UNL d   1       2.297   0.209   0.229  1.00  0.00     0.169 HD
ATOM      3  C   UNL d   1       0.319   1.069  -0.012  0.00  0.00     0.143 A 
ATOM      4  C   UNL d   1       0.588  -1.019   0.056  0.00  0.00     0.241 A 
ATOM      5  N   UNL d   1      -0.923   0.574  -0.141  0.00  0.00    -0.242 N 
ATOM      6  HN  UNL d   1      -1.795   1.091  -0.253  1.00  0.00     0.196 HD
ATOM      7  O   UNL d   1      -0.749  -0.808  -0.088  0.00  0.00    -0.212 OA
ENDROOT
BRANCH   3   8
ATOM      8  C   UNL d   1       0.624   2.493   0.010  0.00  0.00     0.070 A 
ATOM      9  C   UNL d   1       1.798   3.036  -0.538  0.00  0.00     0.051 A 
ATOM     10 CL   UNL d   1       2.999   2.088  -1.352  0.00  0.00    -0.083 Cl
ATOM     11  C   UNL d   1       2.041   4.418  -0.482  0.00  0.00     0.025 A 
ATOM     12  C   UNL d   1       1.120   5.278   0.113  0.00  0.00     0.005 A 
ATOM     13  C   UNL d   1      -0.046   4.757   0.658  0.00  0.00     0.043 A 
ATOM     14  C   UNL d   1      -0.283   3.382   0.607  0.00  0.00     0.132 A 
ATOM     15  F   UNL d   1      -1.413   2.935   1.177  0.00  0.00    -0.205 F 
ENDBRANCH   3   8
BRANCH   4  16
ATOM     16  C   UNL d   1       1.098  -2.369   0.134  0.00  0.00     0.309 C 
ATOM     17  O   UNL d   1       0.406  -3.387   0.169  0.00  0.00    -0.262 OA
ATOM     18  N   UNL d   1       2.495  -2.434   0.173  0.00  0.00    -0.287 N 
ATOM     19  H   UNL d   1       3.028  -1.574   0.033  0.00  0.00     0.183 HD
BRANCH  18  20
ATOM     20  N   UNL d   1       3.158  -3.684   0.187  0.00  0.00    -0.247 NA
ATOM     21  H   UNL d   1       2.441  -4.413   0.057  0.00  0.00     0.143 HD
ATOM     22  H   UNL d   1       3.512  -3.845   1.134  0.00  0.00     0.143 HD
ENDBRANCH  18  20
ENDBRANCH   4  16
TORSDOF 3
