REMARK  12 active torsions:
REMARK  status: ('A' for Active; 'I' for Inactive)
REMARK    1  A    between atoms: C_2  and  C_1 
REMARK    2  A    between atoms: C_3  and  C_1 
REMARK    3  A    between atoms: C_4  and  C_1 
REMARK    4  A    between atoms: N_5  and  C_1 
REMARK    5  A    between atoms: C_8  and  C_2 
REMARK    6  A    between atoms: C_9  and  C_2 
REMARK       I    between atoms: C_6  and  N_5 
REMARK       I    between atoms: N_10  and  C_6 
REMARK    7  A    between atoms: C_7  and  C_11 
REMARK    8  A    between atoms: O_28  and  C_8 
REMARK    9  A    between atoms: O_27  and  C_9 
REMARK   10  A    between atoms: C_26  and  N_10 
REMARK   11  A    between atoms: C_32  and  O_27 
REMARK   12  A    between atoms: C_31  and  O_28 
ROOT
ATOM      1  C   UNL d   1       0.914  -0.002   0.317  0.00  0.00     0.252 C 
ENDROOT
BRANCH   1   2
ATOM      2  C   UNL d   1       0.058   1.182  -0.255  0.00  0.00     0.231 C 
BRANCH   2   3
ATOM      3  C   UNL d   1      -1.335   1.334   0.325  0.00  0.00     0.275 C 
ATOM      4  O   UNL d   1      -1.892   2.403   0.526  0.00  0.00    -0.264 OA
BRANCH   3   5
ATOM      5  O   UNL d   1      -1.919   0.127   0.516  0.00  0.00    -0.321 OA
BRANCH   5   6
ATOM      6  C   UNL d   1      -3.309   0.137   0.883  0.00  0.00     0.174 C 
ATOM      7  C   UNL d   1      -3.442   0.229   2.389  0.00  0.00     0.034 C 
ENDBRANCH   5   6
ENDBRANCH   3   5
ENDBRANCH   2   3
BRANCH   2   8
ATOM      8  C   UNL d   1       0.806   2.491  -0.073  0.00  0.00     0.275 C 
ATOM      9  O   UNL d   1       1.657   2.684   0.792  0.00  0.00    -0.264 OA
BRANCH   8  10
ATOM     10  O   UNL d   1       0.427   3.402  -0.997  0.00  0.00    -0.321 OA
BRANCH  10  11
ATOM     11  C   UNL d   1       0.926   4.739  -0.793  0.00  0.00     0.174 C 
ATOM     12  C   UNL d   1      -0.064   5.502   0.065  0.00  0.00     0.034 C 
ENDBRANCH  10  11
ENDBRANCH   8  10
ENDBRANCH   2   8
ENDBRANCH   1   2
BRANCH   1  13
ATOM     13  C   UNL d   1       0.421  -1.377  -0.232  0.00  0.00     0.422 C 
ATOM     14  F   UNL d   1      -0.661  -1.264  -1.037  0.00  0.00    -0.168 F 
ATOM     15  F   UNL d   1       1.368  -1.990  -0.990  0.00  0.00    -0.168 F 
ATOM     16  F   UNL d   1       0.115  -2.287   0.717  0.00  0.00    -0.168 F 
ENDBRANCH   1  13
BRANCH   1  17
ATOM     17  C   UNL d   1       0.792  -0.039   1.859  0.00  0.00     0.422 C 
ATOM     18  F   UNL d   1       0.463   1.171   2.370  0.00  0.00    -0.168 F 
ATOM     19  F   UNL d   1      -0.124  -0.887   2.357  0.00  0.00    -0.168 F 
ATOM     20  F   UNL d   1       1.986  -0.367   2.417  0.00  0.00    -0.168 F 
ENDBRANCH   1  17
BRANCH   1  21
ATOM     21  N   UNL d   1       2.400   0.179  -0.086  0.00  0.00    -0.316 N 
ATOM     22  C   UNL d   1       2.767   0.335  -1.384  0.00  0.00     0.321 C 
ATOM     23  N   UNL d   1       4.054   0.633  -1.671  0.00  0.00    -0.309 N 
ATOM     24  O   UNL d   1       1.936   0.312  -2.288  0.00  0.00    -0.247 OA
ATOM     25  H   UNL d   1       4.138   0.939  -2.634  0.00  0.00     0.170 HD
ATOM     26  H   UNL d   1       2.987   0.657   0.591  0.00  0.00     0.165 HD
BRANCH  23  27
ATOM     27  C   UNL d   1       5.261   0.511  -0.965  0.00  0.00     0.036 A 
ATOM     28  C   UNL d   1       5.422  -0.217   0.213  0.00  0.00     0.030 A 
ATOM     29  C   UNL d   1       6.691  -0.353   0.793  0.00  0.00     0.018 A 
ATOM     30  C   UNL d   1       7.823   0.220   0.196  0.00  0.00     0.048 A 
ATOM     31  C   UNL d   1       7.656   0.966  -0.977  0.00  0.00     0.018 A 
ATOM     32  C   UNL d   1       6.388   1.105  -1.551  0.00  0.00     0.030 A 
BRANCH  30  33
ATOM     33  C   UNL d   1       9.205  -0.002   0.762  0.00  0.00     0.417 C 
ATOM     34  F   UNL d   1       9.211  -0.734   1.911  0.00  0.00    -0.166 F 
ATOM     35  F   UNL d   1      10.016  -0.668  -0.107  0.00  0.00    -0.166 F 
ATOM     36  F   UNL d   1       9.847   1.162   1.056  0.00  0.00    -0.166 F 
ENDBRANCH  30  33
ENDBRANCH  23  27
ENDBRANCH   1  21
TORSDOF 12
