REMARK  7 active torsions:
REMARK  status: ('A' for Active; 'I' for Inactive)
REMARK    1  A    between atoms: C_2  and  C_1 
REMARK    2  A    between atoms: O_10  and  C_2 
REMARK    3  A    between atoms: N_9  and  C_5 
REMARK    4  A    between atoms: C_14  and  N_9 
REMARK    5  A    between atoms: C_15  and  O_10 
REMARK    6  A    between atoms: C_11  and  C_16 
REMARK    7  A    between atoms: C_16  and  C_14 
ROOT
ATOM      1  C   UNL d   1       1.054  -0.058   0.070  0.00  0.00     0.134 C 
ATOM      2  C   UNL d   1       0.308  -0.483   1.199  0.00  0.00     0.107 C 
ATOM      3  N   UNL d   1      -0.262  -0.827   2.153  0.00  0.00    -0.191 NA
ATOM      4  C   UNL d   1       2.400  -0.044   0.088  0.00  0.00     0.112 C 
ENDROOT
BRANCH   1   5
ATOM      5  C   UNL d   1       0.348   0.469  -1.122  0.00  0.00     0.305 C 
ATOM      6  O   UNL d   1       0.900   0.918  -2.116  0.00  0.00    -0.258 OA
BRANCH   5   7
ATOM      7  O   UNL d   1      -0.990   0.472  -0.890  0.00  0.00    -0.317 OA
BRANCH   7   8
ATOM      8  C   UNL d   1      -1.772   1.353  -1.708  0.00  0.00     0.174 C 
ATOM      9  C   UNL d   1      -1.785   2.717  -1.041  0.00  0.00     0.034 C 
ENDBRANCH   7   8
ENDBRANCH   5   7
ENDBRANCH   1   5
BRANCH   4  10
ATOM     10  N   UNL d   1       3.231  -0.417   1.123  0.00  0.00    -0.397 N 
ATOM     11  H   UNL d   1       2.784  -0.710   1.992  0.00  0.00     0.158 HD
BRANCH  10  12
ATOM     12  C   UNL d   1       4.686  -0.381   1.125  0.00  0.00     0.123 C 
BRANCH  12  13
ATOM     13  C   UNL d   1       5.203  -0.864   2.485  0.00  0.00     0.058 C 
BRANCH  13  14
ATOM     14  C   UNL d   1       6.704  -0.892   2.568  0.00  0.00    -0.054 A 
ATOM     15  C   UNL d   1       7.417   0.233   2.989  0.00  0.00     0.024 A 
ATOM     16  C   UNL d   1       8.799   0.155   3.058  0.00  0.00     0.088 A 
ATOM     17  N   UNL d   1       9.506  -0.949   2.735  0.00  0.00    -0.375 N 
ATOM     18  C   UNL d   1       8.799  -2.023   2.327  0.00  0.00     0.088 A 
ATOM     19  HN  UNL d   1      10.524  -0.970   2.797  1.00  0.00     0.164 HD
ATOM     20  C   UNL d   1       7.416  -2.043   2.225  0.00  0.00     0.024 A 
ENDBRANCH  13  14
ENDBRANCH  12  13
ENDBRANCH  10  12
ENDBRANCH   4  10
TORSDOF 7
