REMARK  7 active torsions:
REMARK  status: ('A' for Active; 'I' for Inactive)
REMARK    1  A    between atoms: C_7  and  C_1 
REMARK    2  A    between atoms: O_16  and  C_8 
REMARK    3  A    between atoms: C_15  and  C_9 
REMARK    4  A    between atoms: O_17  and  C_10 
REMARK    5  A    between atoms: O_18  and  C_11 
REMARK    6  A    between atoms: O_24  and  C_19 
REMARK    7  A    between atoms: C_25  and  O_24 
ROOT
ATOM      1  C   UNL d   1       1.207   1.175   0.005  0.00  0.00     0.162 A 
ATOM      2  N   UNL d   1       1.572  -0.065   0.054  0.00  0.00    -0.331 N 
ATOM      3  HN  UNL d   1       2.517  -0.450   0.077  1.00  0.00     0.168 HD
ATOM      4  C   UNL d   1       0.374  -0.737   0.067  0.00  0.00     0.111 A 
ATOM      5  O   UNL d   1      -0.119   1.441   0.002  0.00  0.00    -0.255 OA
ATOM      6  C   UNL d   1      -0.758   0.238   0.044  0.00  0.00     0.316 A 
ATOM      7  C   UNL d   1       0.285  -2.073   0.064  0.00  0.00     0.047 C 
ATOM      8  O   UNL d   1      -1.957   0.058   0.054  0.00  0.00    -0.257 OA
ENDROOT
BRANCH   1   9
ATOM      9  C   UNL d   1       2.094   2.348  -0.068  0.00  0.00     0.021 A 
ATOM     10  C   UNL d   1       3.478   2.145  -0.092  0.00  0.00     0.055 A 
ATOM     11  C   UNL d   1       4.368   3.228  -0.194  0.00  0.00     0.105 A 
ATOM     12  C   UNL d   1       3.858   4.546  -0.258  0.00  0.00     0.135 A 
ATOM     13  C   UNL d   1       2.456   4.735  -0.254  0.00  0.00     0.105 A 
ATOM     14  C   UNL d   1       1.588   3.641  -0.142  0.00  0.00     0.055 A 
BRANCH  11  15
ATOM     15  O   UNL d   1       5.726   3.053  -0.244  0.00  0.00    -0.353 OA
ATOM     16  C   UNL d   1       6.257   1.736  -0.182  0.00  0.00     0.210 C 
ENDBRANCH  11  15
BRANCH  12  17
ATOM     17  O   UNL d   1       4.596   5.701  -0.296  0.00  0.00    -0.351 OA
ATOM     18  C   UNL d   1       6.013   5.662  -0.263  0.00  0.00     0.210 C 
ENDBRANCH  12  17
BRANCH  13  19
ATOM     19  O   UNL d   1       1.785   5.934  -0.294  0.00  0.00    -0.353 OA
ATOM     20  C   UNL d   1       2.360   6.967  -1.088  0.00  0.00     0.210 C 
ENDBRANCH  13  19
ENDBRANCH   1   9
BRANCH   7  21
ATOM     21  C   UNL d   1      -0.953  -2.846   0.008  0.00  0.00    -0.034 A 
ATOM     22  C   UNL d   1      -1.472  -3.230  -1.232  0.00  0.00     0.014 A 
ATOM     23  C   UNL d   1      -2.649  -3.982  -1.306  0.00  0.00     0.037 A 
ATOM     24  C   UNL d   1      -3.320  -4.358  -0.142  0.00  0.00     0.068 A 
ATOM     25  C   UNL d   1      -2.797  -3.976   1.097  0.00  0.00     0.037 A 
ATOM     26  C   UNL d   1      -1.620  -3.223   1.176  0.00  0.00     0.014 A 
BRANCH  24  27
ATOM     27  O   UNL d   1      -4.476  -5.090  -0.085  0.00  0.00    -0.352 OA
BRANCH  27  28
ATOM     28  C   UNL d   1      -5.048  -5.474  -1.335  0.00  0.00     0.171 C 
ATOM     29  C   UNL d   1      -6.331  -6.240  -1.068  0.00  0.00     0.034 C 
ENDBRANCH  27  28
ENDBRANCH  24  27
ENDBRANCH   7  21
TORSDOF 7
