REMARK  1 active torsions:
REMARK  status: ('A' for Active; 'I' for Inactive)
REMARK    1  A    between atoms: C_7  and  C_4 
ROOT
ATOM      1  C   UNL d   1       1.223  -1.400   0.028  0.00  0.00     0.189 C 
ATOM      2  C   UNL d   1       2.252  -0.685  -0.770  0.00  0.00    -0.006 C 
ATOM      3  C   UNL d   1      -0.132  -0.792   0.055  0.00  0.00     0.021 A 
ATOM      4  C   UNL d   1       2.593  -1.281  -1.928  0.00  0.00     0.022 C 
ATOM      5  O   UNL d   1       1.438  -2.503   0.519  0.00  0.00    -0.287 OA
ATOM      6  C   UNL d   1      -0.369   0.559   0.363  0.00  0.00    -0.044 A 
ATOM      7  C   UNL d   1       2.818   0.586  -0.214  0.00  0.00     0.043 C 
ATOM      8  C   UNL d   1      -1.199  -1.639  -0.281  0.00  0.00     0.016 A 
ATOM      9  C   UNL d   1       1.813   1.731  -0.182  0.00  0.00     0.009 C 
ATOM     10  C   UNL d   1       0.710   1.496   0.842  0.00  0.00     0.040 C 
ATOM     11  C   UNL d   1      -1.689   1.042   0.283  0.00  0.00     0.008 A 
ATOM     12  C   UNL d   1      -2.498  -1.141  -0.355  0.00  0.00     0.001 A 
ATOM     13  C   UNL d   1      -2.741   0.202  -0.082  0.00  0.00     0.001 A 
ENDROOT
BRANCH   4  14
ATOM     14  C   UNL d   1       3.519  -0.665  -2.877  0.00  0.00    -0.036 A 
ATOM     15  C   UNL d   1       4.900  -0.847  -2.754  0.00  0.00     0.011 A 
ATOM     16  C   UNL d   1       5.772  -0.148  -3.591  0.00  0.00     0.001 A 
ATOM     17  C   UNL d   1       5.267   0.726  -4.554  0.00  0.00     0.000 A 
ATOM     18  C   UNL d   1       3.890   0.895  -4.692  0.00  0.00     0.001 A 
ATOM     19  C   UNL d   1       3.017   0.199  -3.856  0.00  0.00     0.011 A 
ENDBRANCH   4  14
TORSDOF 1
