REMARK  5 active torsions:
REMARK  status: ('A' for Active; 'I' for Inactive)
REMARK    1  A    between atoms: C_2  and  C_1 
REMARK    2  A    between atoms: C_10  and  C_1 
REMARK    3  A    between atoms: C_8  and  C_2 
REMARK    4  A    between atoms: C_9  and  C_2 
REMARK    5  A    between atoms: N_4  and  C_8 
ROOT
ATOM      1  C   UNL d   1       1.077  -0.088  -0.030  0.00  0.00     0.146 C 
ATOM      2  N   UNL d   1       0.273  -1.365  -2.204  0.00  0.00    -0.197 NA
ATOM      3  C   UNL d   1       0.653  -0.808  -1.256  0.00  0.00     0.070 C 
ENDROOT
BRANCH   1   4
ATOM      4  C   UNL d   1       0.564  -0.817   1.242  0.00  0.00     0.129 C 
BRANCH   4   5
ATOM      5  C   UNL d   1      -0.956  -0.817   1.242  0.00  0.00    -0.066 C 
BRANCH   5   6
ATOM      6  N   UNL d   1      -2.217  -0.817   1.242  0.00  0.00    -0.369 N 
ATOM      7  HN2 UNL d   1      -1.197  -0.817   1.242  1.00  0.00     0.165 HD
ATOM      8  HN1 UNL d   1      -3.237  -0.817   1.242  1.00  0.00     0.165 HD
ENDBRANCH   5   6
ENDBRANCH   4   5
BRANCH   4   9
ATOM      9  C   UNL d   1       1.065  -2.265   1.365  0.00  0.00    -0.040 A 
ATOM     10  C   UNL d   1       2.278  -2.544   2.008  0.00  0.00     0.008 A 
ATOM     11  C   UNL d   1       2.761  -3.856   2.079  0.00  0.00     0.001 A 
ATOM     12  C   UNL d   1       2.033  -4.911   1.528  0.00  0.00     0.000 A 
ATOM     13  C   UNL d   1       0.810  -4.660   0.921  0.00  0.00     0.001 A 
ATOM     14  C   UNL d   1       0.335  -3.352   0.832  0.00  0.00     0.008 A 
ENDBRANCH   4   9
ENDBRANCH   1   4
BRANCH   1  15
ATOM     15  C   UNL d   1       0.700   1.404  -0.104  0.00  0.00    -0.039 A 
ATOM     16  C   UNL d   1       1.546   2.388   0.437  0.00  0.00     0.008 A 
ATOM     17  C   UNL d   1       1.286   3.749   0.224  0.00  0.00     0.001 A 
ATOM     18  C   UNL d   1       0.182   4.147  -0.530  0.00  0.00     0.000 A 
ATOM     19  C   UNL d   1      -0.701   3.190  -1.014  0.00  0.00     0.001 A 
ATOM     20  C   UNL d   1      -0.460   1.834  -0.778  0.00  0.00     0.008 A 
ENDBRANCH   1  15
TORSDOF 5
