REMARK  3 active torsions:
REMARK  status: ('A' for Active; 'I' for Inactive)
REMARK    1  A    between atoms: N_9  and  C_3 
REMARK    2  A    between atoms: C_17  and  C_4 
REMARK       I    between atoms: C_7  and  N_10 
REMARK       I    between atoms: N_11  and  C_7 
REMARK    3  A    between atoms: C_18  and  N_11 
ROOT
ATOM      1  C   UNL d   1      -0.856  -6.602  -0.065  0.00  0.00     0.319 C 
ATOM      2  N   UNL d   1       0.331  -2.578   0.036  0.00  0.00    -0.357 N 
ATOM      3  N   UNL d   1      -0.267  -5.385  -0.341  0.00  0.00    -0.331 N 
ATOM      4  N   UNL d   1      -1.911  -6.958  -0.859  0.00  0.00    -0.335 N 
ATOM      5  O   UNL d   1      -0.447  -7.330   0.843  0.00  0.00    -0.247 OA
ATOM      6  C   UNL d   1       0.832  -3.575   1.012  0.00  0.00     0.145 C 
ATOM      7  C   UNL d   1      -0.884  -3.012  -0.683  0.00  0.00     0.145 C 
ATOM      8  C   UNL d   1       0.938  -4.989   0.402  0.00  0.00     0.147 C 
ATOM      9  C   UNL d   1      -0.664  -4.383  -1.343  0.00  0.00     0.147 C 
ATOM     10  H   UNL d   1      -2.315  -6.236  -1.419  0.00  0.00     0.165 HD
ENDROOT
BRANCH   2  11
ATOM     11  C   UNL d   1       0.360  -1.249   0.382  0.00  0.00     0.165 A 
ATOM     12  N   UNL d   1      -0.517  -0.353  -0.019  0.00  0.00    -0.321 N 
ATOM     13  C   UNL d   1      -0.227   0.899   0.535  0.00  0.00     0.123 A 
ATOM     14  HN  UNL d   1      -1.299  -0.544  -0.645  1.00  0.00     0.169 HD
ATOM     15  N   UNL d   1       0.862   1.007   1.305  0.00  0.00    -0.309 N 
ATOM     16  S   UNL d   1       1.568  -0.493   1.373  0.00  0.00     0.024 SA
ATOM     17  HN  UNL d   1       1.196   1.855   1.764  1.00  0.00     0.176 HD
BRANCH  13  18
ATOM     18  C   UNL d   1      -1.124   2.037   0.299  0.00  0.00     0.009 A 
ATOM     19  C   UNL d   1      -2.188   1.933  -0.611  0.00  0.00     0.015 A 
ATOM     20  C   UNL d   1      -3.065   3.005  -0.809  0.00  0.00     0.001 A 
ATOM     21  C   UNL d   1      -2.890   4.192  -0.101  0.00  0.00     0.000 A 
ATOM     22  C   UNL d   1      -1.833   4.314   0.799  0.00  0.00     0.001 A 
ATOM     23  C   UNL d   1      -0.955   3.244   0.995  0.00  0.00     0.015 A 
ENDBRANCH  13  18
ENDBRANCH   2  11
BRANCH   4  24
ATOM     24  C   UNL d   1      -2.778  -8.134  -0.654  0.00  0.00     0.023 C 
ATOM     25  C   UNL d   1      -3.467  -8.068   0.721  0.00  0.00     0.037 C 
ATOM     26  C   UNL d   1      -3.851  -8.119  -1.762  0.00  0.00     0.037 C 
ATOM     27  C   UNL d   1      -2.000  -9.454  -0.776  0.00  0.00     0.037 C 
ENDBRANCH   4  24
TORSDOF 3
