REMARK  2 active torsions:
REMARK  status: ('A' for Active; 'I' for Inactive)
REMARK    1  A    between atoms: C_9  and  C_6 
REMARK    2  A    between atoms: O_15  and  C_10 
ROOT
ATOM      1  N   UNL d   1       0.721   0.852  -1.280  0.00  0.00    -0.307 N 
ATOM      2  C   UNL d   1       0.425  -0.369  -1.804  0.00  0.00     0.146 A 
ATOM      3  C   UNL d   1      -1.511   0.709  -0.616  0.00  0.00     0.076 A 
ATOM      4  C   UNL d   1      -0.266   1.523  -0.614  0.00  0.00     0.264 A 
ATOM      5  S   UNL d   1      -1.244  -0.769  -1.467  0.00  0.00    -0.055 SA
ATOM      6  C   UNL d   1      -2.631   1.125  -0.011  0.00  0.00     0.036 C 
ATOM      7  S   UNL d   1       1.516  -1.302  -2.628  0.00  0.00    -0.052 SA
ATOM      8  O   UNL d   1      -0.133   2.617  -0.091  0.00  0.00    -0.267 OA
ATOM      9  H   UNL d   1       1.640   1.258  -1.364  0.00  0.00     0.170 HD
ENDROOT
BRANCH   6  10
ATOM     10  C   UNL d   1      -3.878   0.362   0.061  0.00  0.00    -0.035 A 
ATOM     11  C   UNL d   1      -4.092  -0.525   1.121  0.00  0.00     0.014 A 
ATOM     12  C   UNL d   1      -5.276  -1.266   1.196  0.00  0.00     0.037 A 
ATOM     13  C   UNL d   1      -6.251  -1.127   0.207  0.00  0.00     0.068 A 
ATOM     14  C   UNL d   1      -6.047  -0.224  -0.837  0.00  0.00     0.037 A 
ATOM     15  C   UNL d   1      -4.862   0.512  -0.918  0.00  0.00     0.014 A 
BRANCH  13  16
ATOM     16  O   UNL d   1      -7.450  -1.786   0.187  0.00  0.00    -0.356 OA
ATOM     17  C   UNL d   1      -7.450  -3.075   0.792  0.00  0.00     0.210 C 
ENDBRANCH  13  16
ENDBRANCH   6  10
TORSDOF 2
