REMARK  5 active torsions:
REMARK  status: ('A' for Active; 'I' for Inactive)
REMARK    1  A    between atoms: C_12  and  C_1 
REMARK    2  A    between atoms: C_3  and  N_10 
REMARK    3  A    between atoms: N_6  and  C_3 
REMARK    4  A    between atoms: C_9  and  N_6 
REMARK    5  A    between atoms: N_10  and  C_12 
ROOT
ATOM      1  C   UNL d   1      -0.374  -5.909   1.129  0.00  0.00     0.168 C 
ATOM      2  S   UNL d   1      -1.896  -6.223   0.507  0.00  0.00    -0.041 SA
ENDROOT
BRANCH   1   3
ATOM      3  N   UNL d   1      -0.102  -5.504   2.404  0.00  0.00    -0.363 N 
ATOM      4  H   UNL d   1       0.804  -5.770   2.755  0.00  0.00     0.162 HD
BRANCH   3   5
ATOM      5  C   UNL d   1      -1.142  -5.230   3.387  0.00  0.00     0.162 C 
BRANCH   5   6
ATOM      6  C   UNL d   1      -0.647  -4.702   4.705  0.00  0.00    -0.022 A 
ATOM      7  C   UNL d   1       0.658  -4.468   5.093  0.00  0.00     0.060 A 
ATOM      8  S   UNL d   1       0.791  -3.907   6.698  0.00  0.00    -0.101 SA
ATOM      9  C   UNL d   1      -0.912  -3.922   6.931  0.00  0.00     0.015 A 
ATOM     10  C   UNL d   1      -1.573  -4.356   5.779  0.00  0.00    -0.011 A 
ATOM     11  C   UNL d   1      -1.615  -3.555   8.095  0.00  0.00     0.019 A 
ATOM     12  C   UNL d   1      -2.994  -4.400   5.820  0.00  0.00     0.013 A 
ATOM     13  C   UNL d   1      -3.696  -4.029   6.971  0.00  0.00     0.001 A 
ATOM     14  C   UNL d   1      -3.011  -3.616   8.103  0.00  0.00     0.001 A 
ENDBRANCH   5   6
ENDBRANCH   3   5
ENDBRANCH   1   3
BRANCH   1  15
ATOM     15  N   UNL d   1       0.661  -6.022   0.261  0.00  0.00    -0.363 N 
ATOM     16  H   UNL d   1       0.338  -6.315  -0.656  0.00  0.00     0.162 HD
BRANCH  15  17
ATOM     17  C   UNL d   1       2.069  -5.611   0.307  0.00  0.00     0.085 C 
ATOM     18  C   UNL d   1       2.959  -6.627   1.032  0.00  0.00     0.034 C 
ATOM     19  C   UNL d   1       4.451  -6.210   1.046  0.00  0.00    -0.045 C 
ATOM     20  C   UNL d   1       5.247  -7.200   1.918  0.00  0.00     0.015 C 
ATOM     21  C   UNL d   1       5.066  -6.247  -0.369  0.00  0.00     0.015 C 
ATOM     22  C   UNL d   1       4.564  -4.796   1.655  0.00  0.00     0.013 C 
ATOM     23  C   UNL d   1       3.724  -3.743   0.915  0.00  0.00    -0.016 C 
ATOM     24  C   UNL d   1       2.256  -4.169   0.788  0.00  0.00     0.029 C 
ATOM     25  C   UNL d   1       3.806  -2.398   1.640  0.00  0.00     0.010 C 
ENDBRANCH  15  17
ENDBRANCH   1  15
TORSDOF 5
