REMARK  1 active torsions:
REMARK  status: ('A' for Active; 'I' for Inactive)
REMARK    1  A    between atoms: S_13  and  C_7 
ROOT
ATOM      1  C   UNL d   1       0.266  -0.699   0.008  0.00  0.00     0.706 A 
ATOM      2  N   UNL d   1       0.252   0.704   0.007  0.00  0.00    -0.089 N 
ATOM      3  N   UNL d   1       1.514  -1.117   0.007  0.00  0.00    -0.167 N 
ATOM      4  HN  UNL d   1       1.861  -2.076   0.008  1.00  0.00     0.186 HD
ATOM      5  N   UNL d   1       1.524   1.166   0.005  0.00  0.00    -0.258 N 
ATOM      6  HN  UNL d   1       1.855   2.131   0.004  1.00  0.00     0.190 HD
ATOM      7  C   UNL d   1       2.230   0.039   0.005  0.00  0.00     0.172 A 
ATOM      8  N   UNL d   1      -0.886  -1.433   0.010  0.00  0.00    -0.194 N 
ATOM      9  HN  UNL d   1      -0.873  -2.453   0.011  1.00  0.00     0.184 HD
ATOM     10  C   UNL d   1      -0.952   1.417   0.008  0.00  0.00     0.050 A 
ATOM     11  C   UNL d   1      -2.108   0.730   0.009  0.00  0.00     0.052 A 
ATOM     12  C   UNL d   1      -2.001  -0.763   0.010  0.00  0.00     0.024 A 
ATOM     13  C   UNL d   1      -0.925   2.914   0.007  0.00  0.00     0.071 C 
ATOM     14  C   UNL d   1      -3.296  -1.540   0.011  0.00  0.00     0.068 C 
ENDROOT
BRANCH   7  15
ATOM     15  S   UNL d   1       3.968   0.054   0.002  0.00  0.00    -0.105 SA
ATOM     16  H   UNL d   1       4.120  -1.276   0.003  0.00  0.00     0.110 HD
ENDBRANCH   7  15
TORSDOF 1
