REMARK  4 active torsions:
REMARK  status: ('A' for Active; 'I' for Inactive)
REMARK    1  A    between atoms: C_2  and  C_1 
REMARK    2  A    between atoms: C_3  and  C_2 
REMARK    3  A    between atoms: O_14  and  N_7 
REMARK    4  A    between atoms: O_16  and  C_12 
ROOT
ATOM      1  C   UNL d   1       0.828  -3.750   0.668  0.00  0.00     0.185 C 
ATOM      2  C   UNL d   1       0.566  -5.075   0.147  0.00  0.00     0.123 C 
ATOM      3  N   UNL d   1       0.367  -6.136  -0.291  0.00  0.00    -0.190 NA
ATOM      4  N   UNL d   1       1.607  -3.618   1.707  0.00  0.00    -0.255 N 
ATOM      5  HN  UNL d   1       1.818  -2.720   2.142  1.00  0.00     0.195 HD
ENDROOT
BRANCH   1   6
ATOM      6  C   UNL d   1       0.229  -2.533   0.017  0.00  0.00     0.222 C 
ATOM      7  O   UNL d   1      -0.848  -2.675  -0.546  0.00  0.00    -0.284 OA
BRANCH   6   8
ATOM      8  C   UNL d   1       0.963  -1.236   0.015  0.00  0.00     0.037 A 
ATOM      9  C   UNL d   1       0.298   0.000   0.041  0.00  0.00     0.025 A 
ATOM     10  C   UNL d   1       1.039   1.187   0.018  0.00  0.00     0.023 A 
ATOM     11 BR   UNL d   1      -1.587   0.198   0.168  0.00  0.00    -0.050 Br
ATOM     12  C   UNL d   1       2.432   1.148  -0.016  0.00  0.00     0.038 A 
ATOM     13  C   UNL d   1       3.106  -0.071  -0.040  0.00  0.00     0.069 A 
ATOM     14  C   UNL d   1       2.372  -1.258  -0.043  0.00  0.00     0.053 A 
BRANCH  13  15
ATOM     15  O   UNL d   1       4.469   0.032  -0.060  0.00  0.00    -0.356 OA
ATOM     16  C   UNL d   1       5.216  -1.179  -0.027  0.00  0.00     0.210 C 
ENDBRANCH  13  15
ENDBRANCH   6   8
ENDBRANCH   1   6
BRANCH   4  17
ATOM     17  O   UNL d   1       2.126  -4.839   2.164  0.00  0.00    -0.289 OA
ATOM     18  H   UNL d   1       2.660  -4.582   2.941  0.00  0.00     0.244 HD
ENDBRANCH   4  17
TORSDOF 4
