REMARK  3 active torsions:
REMARK  status: ('A' for Active; 'I' for Inactive)
REMARK    1  A    between atoms: C_2  and  N_1 
REMARK    2  A    between atoms: C_8  and  N_3 
REMARK    3  A    between atoms: C_6  and  C_5 
ROOT
ATOM      1  C   UNL d   1      -2.965  -0.037   0.863  0.00  0.00     0.042 A 
ATOM      2  C   UNL d   1      -3.217  -0.709   2.081  0.00  0.00     0.006 A 
ATOM      3  C   UNL d   1      -4.071   0.634   0.294  0.00  0.00     0.030 A 
ATOM      4  C   UNL d   1      -4.486  -0.654   2.696  0.00  0.00     0.015 A 
ATOM      5  C   UNL d   1      -5.327   0.692   0.911  0.00  0.00     0.002 A 
ATOM      6  C   UNL d   1      -5.530   0.056   2.123  0.00  0.00     0.001 A 
ENDROOT
BRANCH   2   7
ATOM      7  C   UNL d   1      -2.164  -1.401   2.873  0.00  0.00     0.102 C 
ATOM      8  N   UNL d   1      -2.505  -2.357   3.673  0.00  0.00    -0.365 N 
ATOM      9  HN  UNL d   1      -3.473  -2.676   3.654  1.00  0.00     0.165 HD
BRANCH   8  10
ATOM     10  C   UNL d   1      -1.624  -2.980   4.564  0.00  0.00     0.035 A 
ATOM     11  C   UNL d   1      -0.522  -2.353   5.150  0.00  0.00     0.053 A 
ATOM     12  C   UNL d   1       0.150  -2.968   6.211  0.00  0.00     0.037 A 
ATOM     13 CL   UNL d   1       1.474  -2.160   6.959  0.00  0.00    -0.084 Cl
ATOM     14  C   UNL d   1      -0.267  -4.201   6.706  0.00  0.00     0.048 A 
ATOM     15  C   UNL d   1      -1.345  -4.837   6.104  0.00  0.00     0.037 A 
ATOM     16  C   UNL d   1      -2.009  -4.242   5.032  0.00  0.00     0.053 A 
ATOM     17 CL   UNL d   1      -1.911  -6.337   6.732  0.00  0.00    -0.084 Cl
ENDBRANCH   8  10
ENDBRANCH   2   7
BRANCH   1  18
ATOM     18  N   UNL d   1      -1.711   0.053   0.277  0.00  0.00    -0.377 N 
ATOM     19  C   UNL d   1      -1.383   1.164  -0.639  0.00  0.00     0.153 C 
ATOM     20  C   UNL d   1       0.105   1.534  -0.447  0.00  0.00     0.291 C 
ATOM     21  N   UNL d   1       1.018   0.393  -0.685  0.00  0.00     0.087 N 
ATOM     22  C   UNL d   1       0.605  -0.773   0.135  0.00  0.00     0.291 C 
ATOM     23  C   UNL d   1       2.389   0.788  -0.360  0.00  0.00     0.310 C 
ATOM     24  C   UNL d   1      -0.896  -1.144  -0.013  0.00  0.00     0.153 C 
ENDBRANCH   1  18
TORSDOF 3
