REMARK  4 active torsions:
REMARK  status: ('A' for Active; 'I' for Inactive)
REMARK    1  A    between atoms: C_5  and  C_1 
REMARK    2  A    between atoms: N_3  and  C_2 
REMARK       I    between atoms: C_4  and  N_3 
REMARK    3  A    between atoms: C_9  and  C_4 
REMARK    4  A    between atoms: O_12  and  C_5 
ROOT
ATOM      1  C   UNL d   1      -0.271   0.856  -0.126  0.00  0.00     0.106 A 
ATOM      2  C   UNL d   1       0.994   0.566  -0.620  0.00  0.00     0.058 A 
ATOM      3  S   UNL d   1      -1.333  -0.497  -0.286  0.00  0.00    -0.094 SA
ATOM      4  C   UNL d   1       1.019  -0.731  -1.242  0.00  0.00     0.038 A 
ATOM      5  C   UNL d   1      -0.163  -1.417  -1.108  0.00  0.00     0.053 A 
ENDROOT
BRANCH   2   6
ATOM      6  N   UNL d   1       2.171   1.320  -0.575  0.00  0.00    -0.325 N 
ATOM      7  C   UNL d   1       2.520   2.176   0.452  0.00  0.00     0.229 C 
ATOM      8  O   UNL d   1       1.748   2.552   1.334  0.00  0.00    -0.272 OA
ATOM      9  H   UNL d   1       2.920   0.935  -1.130  0.00  0.00     0.169 HD
BRANCH   7  10
ATOM     10  C   UNL d   1       3.997   2.665   0.442  0.00  0.00     0.030 C 
ATOM     11  C   UNL d   1       4.972   1.733  -0.296  0.00  0.00     0.025 C 
ATOM     12  C   UNL d   1       4.055   4.060  -0.195  0.00  0.00     0.025 C 
ATOM     13  C   UNL d   1       4.459   2.753   1.910  0.00  0.00     0.025 C 
ENDBRANCH   7  10
ENDBRANCH   2   6
BRANCH   1  14
ATOM     14  C   UNL d   1      -0.862   2.058   0.432  0.00  0.00     0.302 C 
ATOM     15  O   UNL d   1      -1.688   2.091   1.338  0.00  0.00    -0.259 OA
BRANCH  14  16
ATOM     16  O   UNL d   1      -0.476   3.143  -0.303  0.00  0.00    -0.322 OA
ATOM     17  C   UNL d   1      -1.040   4.394   0.100  0.00  0.00     0.213 C 
ENDBRANCH  14  16
ENDBRANCH   1  14
TORSDOF 4
