REMARK  5 active torsions:
REMARK  status: ('A' for Active; 'I' for Inactive)
REMARK    1  A    between atoms: C_3  and  C_1 
REMARK    2  A    between atoms: C_2  and  C_5 
REMARK       I    between atoms: N_4  and  C_2 
REMARK    3  A    between atoms: N_9  and  N_4 
REMARK       I    between atoms: C_7  and  N_9 
REMARK    4  A    between atoms: C_15  and  C_7 
REMARK    5  A    between atoms: C_8  and  C_15 
ROOT
ATOM      1  C   UNL d   1       0.418  -4.467  -2.226  0.00  0.00     0.270 C 
ATOM      2  N   UNL d   1       0.452  -5.189  -3.401  0.00  0.00    -0.263 N 
ATOM      3  O   UNL d   1      -0.361  -3.529  -2.068  0.00  0.00    -0.266 OA
ATOM      4  H   UNL d   1       0.999  -6.030  -3.562  0.00  0.00     0.190 HD
ENDROOT
BRANCH   2   5
ATOM      5  N   UNL d   1      -0.425  -4.829  -4.433  0.00  0.00    -0.267 N 
ATOM      6  C   UNL d   1      -0.735  -5.786  -5.375  0.00  0.00     0.240 C 
ATOM      7  O   UNL d   1      -0.279  -6.928  -5.338  0.00  0.00    -0.272 OA
ATOM      8  H   UNL d   1      -1.000  -4.003  -4.268  0.00  0.00     0.190 HD
BRANCH   6   9
ATOM      9  C   UNL d   1      -1.607  -5.292  -6.513  0.00  0.00     0.143 C 
BRANCH   9  10
ATOM     10  C   UNL d   1      -3.093  -5.346  -6.265  0.00  0.00    -0.043 A 
ATOM     11  C   UNL d   1      -3.877  -4.193  -6.425  0.00  0.00     0.050 A 
ATOM     12  C   UNL d   1      -5.264  -4.261  -6.304  0.00  0.00     0.119 A 
ATOM     13  F   UNL d   1      -5.992  -3.151  -6.481  0.00  0.00    -0.206 F 
ATOM     14  C   UNL d   1      -5.901  -5.459  -6.022  0.00  0.00     0.084 A 
ATOM     15  C   UNL d   1      -5.129  -6.600  -5.859  0.00  0.00     0.119 A 
ATOM     16  C   UNL d   1      -3.739  -6.558  -5.976  0.00  0.00     0.050 A 
ATOM     17  F   UNL d   1      -5.731  -7.769  -5.603  0.00  0.00    -0.206 F 
ENDBRANCH   9  10
ENDBRANCH   6   9
ENDBRANCH   2   5
BRANCH   1  18
ATOM     18  C   UNL d   1       1.376  -4.854  -1.143  0.00  0.00     0.034 A 
ATOM     19  C   UNL d   1       1.293  -4.165   0.080  0.00  0.00     0.033 A 
ATOM     20  C   UNL d   1       2.175  -4.446   1.138  0.00  0.00     0.048 A 
ATOM     21  C   UNL d   1       3.164  -5.422   0.949  0.00  0.00     0.016 A 
ATOM     22  C   UNL d   1       3.252  -6.116  -0.256  0.00  0.00     0.002 A 
ATOM     23  C   UNL d   1       2.360  -5.840  -1.297  0.00  0.00     0.017 A 
BRANCH  20  24
ATOM     24  C   UNL d   1       2.068  -3.727   2.460  0.00  0.00     0.417 C 
ATOM     25  F   UNL d   1       1.032  -2.846   2.524  0.00  0.00    -0.166 F 
ATOM     26  F   UNL d   1       3.188  -3.010   2.756  0.00  0.00    -0.166 F 
ATOM     27  F   UNL d   1       1.891  -4.587   3.501  0.00  0.00    -0.166 F 
ENDBRANCH  20  24
ENDBRANCH   1  18
TORSDOF 5
