REMARK  5 active torsions:
REMARK  status: ('A' for Active; 'I' for Inactive)
REMARK    1  A    between atoms: C_7  and  C_1 
REMARK    2  A    between atoms: N_15  and  C_3 
REMARK    3  A    between atoms: C_9  and  C_7 
REMARK    4  A    between atoms: C_10  and  C_7 
REMARK    5  A    between atoms: N_8  and  C_10 
ROOT
ATOM      1  C   UNL d   1      -0.052   1.641  -0.044  0.00  0.00     0.061 A 
ATOM      2  N   UNL d   1      -1.232  -0.410   0.007  0.00  0.00    -0.294 N 
ATOM      3  C   UNL d   1      -1.233   0.982  -0.026  0.00  0.00     0.096 A 
ATOM      4  N   UNL d   1       1.125  -0.496   0.048  0.00  0.00    -0.270 N 
ATOM      5  C   UNL d   1      -0.070  -1.181   0.047  0.00  0.00     0.332 A 
ATOM      6  C   UNL d   1       1.218   0.872   0.029  0.00  0.00     0.261 A 
ATOM      7  O   UNL d   1      -0.105  -2.414   0.085  0.00  0.00    -0.246 OA
ATOM      8  O   UNL d   1       2.293   1.472   0.054  0.00  0.00    -0.267 OA
ATOM      9  C   UNL d   1      -2.455  -1.202  -0.056  0.00  0.00     0.162 C 
ATOM     10  C   UNL d   1       2.341  -1.285   0.070  0.00  0.00     0.164 C 
ENDROOT
BRANCH   1  11
ATOM     11  C   UNL d   1       0.122   3.164  -0.163  0.00  0.00     0.109 C 
BRANCH  11  12
ATOM     12  C   UNL d   1       0.706   3.784   1.085  0.00  0.00     0.063 A 
ATOM     13  O   UNL d   1      -0.049   3.670   2.219  0.00  0.00    -0.326 OA
ATOM     14  C   UNL d   1       0.662   4.233   3.229  0.00  0.00     0.142 A 
ATOM     15  C   UNL d   1       1.854   4.732   2.762  0.00  0.00     0.027 A 
ATOM     16  C   UNL d   1       1.883   4.446   1.376  0.00  0.00     0.035 A 
ENDBRANCH  11  12
BRANCH  11  17
ATOM     17  C   UNL d   1       0.900   3.613  -1.411  0.00  0.00     0.217 C 
BRANCH  17  18
ATOM     18  N   UNL d   1       0.146   3.193  -2.629  0.00  0.00    -0.155 N 
ATOM     19  O   UNL d   1      -0.712   3.976  -3.057  0.00  0.00    -0.537 OA
ATOM     20  O   UNL d   1       0.441   2.099  -3.131  0.00  0.00    -0.537 OA
ENDBRANCH  17  18
ENDBRANCH  11  17
ENDBRANCH   1  11
BRANCH   3  21
ATOM     21  N   UNL d   1      -2.427   1.688  -0.050  0.00  0.00    -0.288 NA
ATOM     22  H   UNL d   1      -3.211   1.176   0.336  0.00  0.00     0.125 HD
ATOM     23  H   UNL d   1      -2.382   2.594   0.410  0.00  0.00     0.125 HD
ENDBRANCH   3  21
TORSDOF 5
