REMARK  5 active torsions:
REMARK  status: ('A' for Active; 'I' for Inactive)
REMARK    1  A    between atoms: S_7  and  C_1 
REMARK    2  A    between atoms: C_9  and  N_3 
REMARK    3  A    between atoms: C_10  and  C_4 
REMARK    4  A    between atoms: O_11  and  C_6 
REMARK    5  A    between atoms: C_12  and  S_7 
ROOT
ATOM      1  C   UNL d   1      -0.716   1.273   0.013  0.00  0.00     0.107 A 
ATOM      2  C   UNL d   1      -1.471  -0.034  -0.081  0.00  0.00     0.272 A 
ATOM      3  N   UNL d   1      -0.689  -1.209  -0.067  0.00  0.00    -0.277 N 
ATOM      4  C   UNL d   1       0.704  -1.163  -0.037  0.00  0.00     0.056 A 
ATOM      5  C   UNL d   1       1.354   0.010   0.016  0.00  0.00     0.069 A 
ATOM      6  C   UNL d   1       0.627   1.252   0.049  0.00  0.00     0.090 A 
ATOM      7  O   UNL d   1      -2.702  -0.043  -0.160  0.00  0.00    -0.266 OA
ENDROOT
BRANCH   1   8
ATOM      8  S   UNL d   1      -1.644   2.743   0.001  0.00  0.00    -0.082 SA
BRANCH   8   9
ATOM      9  C   UNL d   1      -1.911   2.949   1.754  0.00  0.00     0.005 A 
ATOM     10  C   UNL d   1      -1.343   4.045   2.414  0.00  0.00     0.019 A 
ATOM     11  C   UNL d   1      -1.583   4.255   3.775  0.00  0.00     0.001 A 
ATOM     12  C   UNL d   1      -2.391   3.369   4.486  0.00  0.00     0.000 A 
ATOM     13  C   UNL d   1      -2.967   2.280   3.836  0.00  0.00     0.001 A 
ATOM     14  C   UNL d   1      -2.735   2.076   2.473  0.00  0.00     0.019 A 
ENDBRANCH   8   9
ENDBRANCH   1   8
BRANCH   6  15
ATOM     15  O   UNL d   1       1.391   2.403   0.114  0.00  0.00    -0.359 OA
ATOM     16  H   UNL d   1       2.335   2.175   0.100  0.00  0.00     0.217 HD
ENDBRANCH   6  15
BRANCH   3  17
ATOM     17  C   UNL d   1      -1.404  -2.439  -0.027  0.00  0.00     0.043 A 
ATOM     18  C   UNL d   1      -1.675  -3.141  -1.205  0.00  0.00     0.030 A 
ATOM     19  C   UNL d   1      -2.406  -4.329  -1.151  0.00  0.00     0.002 A 
ATOM     20  C   UNL d   1      -2.864  -4.815   0.075  0.00  0.00     0.000 A 
ATOM     21  C   UNL d   1      -2.597  -4.112   1.250  0.00  0.00     0.002 A 
ATOM     22  C   UNL d   1      -1.873  -2.921   1.200  0.00  0.00     0.030 A 
ENDBRANCH   3  17
BRANCH   4  23
ATOM     23  C   UNL d   1       1.528  -2.386  -0.057  0.00  0.00    -0.009 A 
ATOM     24  C   UNL d   1       1.946  -2.981   1.141  0.00  0.00     0.014 A 
ATOM     25  C   UNL d   1       2.814  -4.073   1.119  0.00  0.00     0.001 A 
ATOM     26  C   UNL d   1       3.272  -4.578  -0.098  0.00  0.00     0.000 A 
ATOM     27  C   UNL d   1       2.854  -3.999  -1.295  0.00  0.00     0.001 A 
ATOM     28  C   UNL d   1       1.986  -2.906  -1.276  0.00  0.00     0.014 A 
ENDBRANCH   4  23
TORSDOF 5
