REMARK  5 active torsions:
REMARK  status: ('A' for Active; 'I' for Inactive)
REMARK    1  A    between atoms: N_4  and  C_1 
REMARK    2  A    between atoms: C_3  and  C_2 
REMARK       I    between atoms: N_6  and  C_3 
REMARK    3  A    between atoms: O_17  and  C_5 
REMARK    4  A    between atoms: C_7  and  N_6 
REMARK    5  A    between atoms: O_22  and  C_10 
ROOT
ATOM      1  C   UNL d   1       1.350  -0.438   0.284  0.00  0.00     0.137 C 
ATOM      2  C   UNL d   1      -0.926  -1.255   0.208  0.00  0.00     0.101 C 
ATOM      3  C   UNL d   1       0.452  -1.519   0.381  0.00  0.00     0.119 C 
ATOM      4  C   UNL d   1       0.932   0.852  -0.050  0.00  0.00     0.042 C 
ATOM      5  C   UNL d   1      -1.326   0.019  -0.288  0.00  0.00     0.086 C 
ATOM      6  C   UNL d   1      -0.401   1.067  -0.374  0.00  0.00     0.040 C 
ENDROOT
BRANCH   2   7
ATOM      7  C   UNL d   1      -2.022  -2.217   0.629  0.00  0.00     0.261 C 
ATOM      8  N   UNL d   1      -1.685  -3.549   0.837  0.00  0.00    -0.320 N 
ATOM      9  H   UNL d   1      -0.696  -3.746   0.936  0.00  0.00     0.169 HD
ATOM     10  O   UNL d   1      -3.127  -1.767   0.904  0.00  0.00    -0.267 OA
BRANCH   8  11
ATOM     11  C   UNL d   1      -2.593  -4.562   1.250  0.00  0.00     0.074 A 
ATOM     12  C   UNL d   1      -3.981  -4.548   1.017  0.00  0.00     0.146 A 
ATOM     13  C   UNL d   1      -4.812  -5.559   1.497  0.00  0.00     0.086 A 
ATOM     14  F   UNL d   1      -4.559  -3.617   0.245  0.00  0.00    -0.204 F 
ATOM     15  C   UNL d   1      -4.255  -6.618   2.193  0.00  0.00     0.119 A 
ATOM     16  C   UNL d   1      -2.882  -6.687   2.404  0.00  0.00     0.044 A 
ATOM     17  F   UNL d   1      -5.044  -7.598   2.651  0.00  0.00    -0.206 F 
ATOM     18  C   UNL d   1      -2.051  -5.665   1.928  0.00  0.00     0.036 A 
ENDBRANCH   8  11
ENDBRANCH   2   7
BRANCH   3  19
ATOM     19  O   UNL d   1       0.857  -2.798   0.677  0.00  0.00    -0.352 OA
ATOM     20  C   UNL d   1       1.792  -3.336  -0.274  0.00  0.00     0.210 C 
ENDBRANCH   3  19
BRANCH   5  21
ATOM     21  O   UNL d   1      -2.635   0.172  -0.662  0.00  0.00    -0.355 OA
ATOM     22  C   UNL d   1      -3.007   1.254  -1.503  0.00  0.00     0.210 C 
ENDBRANCH   5  21
BRANCH   1  23
ATOM     23  N   UNL d   1       2.766  -0.603   0.548  0.00  0.00    -0.113 N 
ATOM     24  O   UNL d   1       3.101  -0.977   1.673  0.00  0.00    -0.532 OA
ATOM     25  O   UNL d   1       3.535  -0.345  -0.391  0.00  0.00    -0.532 OA
ENDBRANCH   1  23
TORSDOF 5
