REMARK  3 active torsions:
REMARK  status: ('A' for Active; 'I' for Inactive)
REMARK    1  A    between atoms: C_11  and  N_1 
REMARK    2  A    between atoms: N_7  and  C_9 
REMARK    3  A    between atoms: C_18  and  C_11 
ROOT
ATOM      1  N   UNL d   1       2.216  -0.148   0.238  0.00  0.00    -0.277 N 
ATOM      2  C   UNL d   1       1.485  -1.332   0.225  0.00  0.00     0.261 A 
ATOM      3  C   UNL d   1       1.660   1.122   0.161  0.00  0.00     0.261 A 
ATOM      4  C   UNL d   1       0.007  -1.218   0.171  0.00  0.00     0.044 A 
ATOM      5  C   UNL d   1      -0.600   0.044   0.106  0.00  0.00     0.008 A 
ATOM      6  C   UNL d   1       0.179   1.210   0.088  0.00  0.00     0.044 A 
ATOM      7  C   UNL d   1      -2.020   0.142   0.045  0.00  0.00     0.009 A 
ATOM      8  C   UNL d   1      -2.758  -1.072   0.062  0.00  0.00     0.114 A 
ATOM      9  C   UNL d   1      -0.757  -2.396   0.160  0.00  0.00     0.020 A 
ATOM     10  C   UNL d   1      -2.143  -2.329   0.103  0.00  0.00     0.038 A 
ATOM     11  O   UNL d   1       1.987  -2.453   0.215  0.00  0.00    -0.267 OA
ATOM     12  O   UNL d   1       2.326   2.154   0.136  0.00  0.00    -0.267 OA
ATOM     13  C   UNL d   1      -0.419   2.474  -0.009  0.00  0.00     0.018 A 
ATOM     14  C   UNL d   1      -2.592   1.437  -0.046  0.00  0.00     0.015 A 
ATOM     15  C   UNL d   1      -1.802   2.585  -0.076  0.00  0.00     0.002 A 
ENDROOT
BRANCH   1  16
ATOM     16  C   UNL d   1       3.680  -0.247   0.280  0.00  0.00     0.167 C 
BRANCH  16  17
ATOM     17  C   UNL d   1       4.271  -0.013   1.680  0.00  0.00     0.140 C 
ATOM     18  O   UNL d   1       3.898  -1.067   2.588  0.00  0.00    -0.384 OA
ATOM     19  C   UNL d   1       5.042  -1.441   3.368  0.00  0.00     0.168 C 
ATOM     20  C   UNL d   1       6.158  -0.474   3.037  0.00  0.00     0.029 C 
ATOM     21  C   UNL d   1       5.794  -0.005   1.653  0.00  0.00     0.035 C 
ENDBRANCH  16  17
ENDBRANCH   1  16
BRANCH   8  22
ATOM     22  N   UNL d   1      -4.211  -1.062   0.039  0.00  0.00    -0.115 N 
ATOM     23  O   UNL d   1      -4.790  -0.489   0.973  0.00  0.00    -0.532 OA
ATOM     24  O   UNL d   1      -4.763  -1.652  -0.898  0.00  0.00    -0.532 OA
ENDBRANCH   8  22
TORSDOF 3
