REMARK  5 active torsions:
REMARK  status: ('A' for Active; 'I' for Inactive)
REMARK    1  A    between atoms: O_11  and  C_5 
REMARK    2  A    between atoms: O_12  and  C_8 
REMARK    3  A    between atoms: O_19  and  C_9 
REMARK    4  A    between atoms: C_13  and  O_11 
REMARK    5  A    between atoms: C_14  and  O_12 
ROOT
ATOM      1  C   UNL d   1       1.281  -0.342  -0.018  0.00  0.00     0.066 A 
ATOM      2  C   UNL d   1       1.052   1.041   0.025  0.00  0.00     0.068 A 
ATOM      3  C   UNL d   1       0.127  -1.270  -0.133  0.00  0.00     0.197 C 
ATOM      4  C   UNL d   1      -0.333   1.563  -0.040  0.00  0.00     0.197 C 
ATOM      5  C   UNL d   1       2.606  -0.815   0.056  0.00  0.00     0.097 A 
ATOM      6  C   UNL d   1      -1.249  -0.741  -0.035  0.00  0.00     0.029 A 
ATOM      7  C   UNL d   1      -1.472   0.632   0.004  0.00  0.00     0.029 A 
ATOM      8  C   UNL d   1       3.435   1.442   0.271  0.00  0.00     0.116 A 
ATOM      9  C   UNL d   1       2.133   1.936   0.150  0.00  0.00     0.115 A 
ATOM     10  C   UNL d   1       3.671   0.074   0.214  0.00  0.00     0.078 A 
ATOM     11  O   UNL d   1       0.285  -2.473  -0.309  0.00  0.00    -0.286 OA
ATOM     12  O   UNL d   1      -0.519   2.776  -0.109  0.00  0.00    -0.286 OA
ATOM     13  C   UNL d   1      -2.337  -1.623   0.022  0.00  0.00     0.016 A 
ATOM     14  C   UNL d   1      -2.780   1.127   0.104  0.00  0.00     0.016 A 
ATOM     15  C   UNL d   1      -3.859   0.247   0.170  0.00  0.00     0.001 A 
ATOM     16  C   UNL d   1      -3.638  -1.129   0.128  0.00  0.00     0.001 A 
ENDROOT
BRANCH   5  17
ATOM     17  O   UNL d   1       2.858  -2.207   0.083  0.00  0.00    -0.278 OA
BRANCH  17  18
ATOM     18  C   UNL d   1       3.975  -2.750  -0.553  0.00  0.00     0.260 C 
ATOM     19  O   UNL d   1       4.811  -2.139  -1.208  0.00  0.00    -0.265 OA
ATOM     20  C   UNL d   1       4.044  -4.226  -0.297  0.00  0.00     0.126 C 
ENDBRANCH  17  18
ENDBRANCH   5  17
BRANCH   8  21
ATOM     21  O   UNL d   1       4.497   2.369   0.374  0.00  0.00    -0.276 OA
BRANCH  21  22
ATOM     22  C   UNL d   1       5.613   2.082   1.159  0.00  0.00     0.260 C 
ATOM     23  O   UNL d   1       5.777   1.096   1.867  0.00  0.00    -0.265 OA
ATOM     24  C   UNL d   1       6.632   3.172   1.018  0.00  0.00     0.126 C 
ENDBRANCH  21  22
ENDBRANCH   8  21
BRANCH   9  25
ATOM     25  O   UNL d   1       1.964   3.297   0.173  0.00  0.00    -0.357 OA
ATOM     26  H   UNL d   1       1.010   3.499   0.036  0.00  0.00     0.217 HD
ENDBRANCH   9  25
TORSDOF 5
