REMARK  7 active torsions:
REMARK  status: ('A' for Active; 'I' for Inactive)
REMARK    1  A    between atoms: O_10  and  C_3 
REMARK    2  A    between atoms: S_9  and  C_4 
REMARK    3  A    between atoms: C_11  and  C_5 
REMARK    4  A    between atoms: C_12  and  C_8 
REMARK    5  A    between atoms: C_15  and  C_11 
REMARK    6  A    between atoms: O_13  and  C_12 
REMARK    7  A    between atoms: C_16  and  C_15 
ROOT
ATOM      1  N   UNL d   1      -0.596   1.298   0.048  0.00  0.00    -0.317 N 
ATOM      2  HN  UNL d   1      -1.065   2.203   0.055  1.00  0.00     0.170 HD
ATOM      3  C   UNL d   1      -1.268   0.140   0.034  0.00  0.00     0.150 A 
ATOM      4  C   UNL d   1       0.732   1.179   0.051  0.00  0.00     0.143 A 
ATOM      5  C   UNL d   1      -0.721  -1.129  -0.009  0.00  0.00     0.018 A 
ATOM      6  N   UNL d   1       1.400   0.024   0.063  0.00  0.00    -0.338 N 
ATOM      7  HN  UNL d   1       2.419   0.003   0.090  1.00  0.00     0.168 HD
ATOM      8  C   UNL d   1       0.673  -1.123   0.039  0.00  0.00     0.045 A 
ENDROOT
BRANCH   5   9
ATOM      9  C   UNL d   1      -1.517  -2.409  -0.013  0.00  0.00     0.045 C 
BRANCH   9  10
ATOM     10  C   UNL d   1      -2.903  -2.438  -0.676  0.00  0.00     0.004 C 
BRANCH  10  11
ATOM     11  C   UNL d   1      -2.870  -2.103  -2.168  0.00  0.00    -0.004 C 
ATOM     12  C   UNL d   1      -4.269  -2.118  -2.765  0.00  0.00     0.005 C 
ENDBRANCH  10  11
ENDBRANCH   9  10
ENDBRANCH   5   9
BRANCH   3  13
ATOM     13  O   UNL d   1      -2.607   0.342   0.075  0.00  0.00    -0.346 OA
ATOM     14  H   UNL d   1      -2.645   1.315   0.062  0.00  0.00     0.219 HD
ENDBRANCH   3  13
BRANCH   8  15
ATOM     15  C   UNL d   1       1.504  -2.386   0.001  0.00  0.00     0.224 C 
BRANCH  15  16
ATOM     16  O   UNL d   1       1.685  -2.879  -1.331  0.00  0.00    -0.390 OA
ATOM     17  C   UNL d   1       2.541  -2.046  -2.109  0.00  0.00     0.201 C 
ENDBRANCH  15  16
ENDBRANCH   8  15
BRANCH   4  18
ATOM     18  S   UNL d   1       1.673   2.674   0.027  0.00  0.00    -0.107 SA
ATOM     19  H   UNL d   1       0.591   3.459   0.001  0.00  0.00     0.110 HD
ENDBRANCH   4  18
TORSDOF 7
