REMARK  7 active torsions:
REMARK  status: ('A' for Active; 'I' for Inactive)
REMARK    1  A    between atoms: C_4  and  C_1 
REMARK    2  A    between atoms: C_2  and  C_5 
REMARK    3  A    between atoms: C_3  and  N_12 
REMARK    4  A    between atoms: N_6  and  C_3 
REMARK    5  A    between atoms: C_8  and  N_6 
REMARK    6  A    between atoms: N_7  and  C_9 
REMARK    7  A    between atoms: N_12  and  C_11 
ROOT
ATOM      1  C   UNL d   1      -1.188  -0.311   7.409  0.00  0.00     0.176 C 
ATOM      2  S   UNL d   1      -2.373   0.843   7.173  0.00  0.00    -0.041 SA
ENDROOT
BRANCH   1   3
ATOM      3  N   UNL d   1      -1.194  -1.043   8.556  0.00  0.00    -0.333 N 
ATOM      4  H   UNL d   1      -2.101  -1.070   9.012  0.00  0.00     0.168 HD
BRANCH   3   5
ATOM      5  C   UNL d   1      -0.105  -1.307   9.422  0.00  0.00     0.035 A 
ATOM      6  C   UNL d   1       1.155  -0.733   9.272  0.00  0.00     0.045 A 
ATOM      7  C   UNL d   1       2.153  -0.895  10.250  0.00  0.00     0.050 A 
ATOM      8  C   UNL d   1       1.877  -1.686  11.375  0.00  0.00     0.032 A 
ATOM      9  C   UNL d   1       0.619  -2.282  11.545  0.00  0.00     0.050 A 
ATOM     10  C   UNL d   1      -0.365  -2.083  10.561  0.00  0.00     0.045 A 
BRANCH   7  11
ATOM     11  C   UNL d   1       3.484  -0.200  10.092  0.00  0.00     0.417 C 
ATOM     12  F   UNL d   1       4.231  -0.199  11.231  0.00  0.00    -0.166 F 
ATOM     13  F   UNL d   1       3.350   1.109   9.737  0.00  0.00    -0.166 F 
ATOM     14  F   UNL d   1       4.264  -0.769   9.133  0.00  0.00    -0.166 F 
ENDBRANCH   7  11
BRANCH   9  15
ATOM     15  C   UNL d   1       0.309  -3.119  12.763  0.00  0.00     0.417 C 
ATOM     16  F   UNL d   1       1.228  -2.981  13.761  0.00  0.00    -0.166 F 
ATOM     17  F   UNL d   1      -0.892  -2.807  13.319  0.00  0.00    -0.166 F 
ATOM     18  F   UNL d   1       0.260  -4.449  12.479  0.00  0.00    -0.166 F 
ENDBRANCH   9  15
ENDBRANCH   3   5
ENDBRANCH   1   3
BRANCH   1  19
ATOM     19  N   UNL d   1      -0.243  -0.505   6.454  0.00  0.00    -0.331 N 
ATOM     20  H   UNL d   1      -0.179   0.225   5.751  0.00  0.00     0.168 HD
BRANCH  19  21
ATOM     21  C   UNL d   1       0.308  -1.727   5.988  0.00  0.00     0.061 A 
ATOM     22  C   UNL d   1       1.393  -1.693   5.069  0.00  0.00     0.057 A 
ATOM     23  C   UNL d   1       1.774  -2.920   4.488  0.00  0.00     0.031 A 
ATOM     24  C   UNL d   1       1.113  -4.120   4.774  0.00  0.00     0.002 A 
ATOM     25  C   UNL d   1       0.048  -4.127   5.661  0.00  0.00     0.002 A 
ATOM     26  C   UNL d   1      -0.345  -2.939   6.272  0.00  0.00     0.032 A 
BRANCH  22  27
ATOM     27  N   UNL d   1       2.092  -0.528   4.709  0.00  0.00    -0.379 N 
ATOM     28  C   UNL d   1       2.501   0.426   5.741  0.00  0.00     0.123 C 
ATOM     29  C   UNL d   1       3.457   1.527   5.291  0.00  0.00     0.020 C 
ATOM     30  C   UNL d   1       4.732   1.029   4.626  0.00  0.00     0.002 C 
ATOM     31  C   UNL d   1       4.556   0.815   3.128  0.00  0.00     0.002 C 
ATOM     32  C   UNL d   1       3.635  -0.346   2.765  0.00  0.00     0.020 C 
ATOM     33  C   UNL d   1       2.201  -0.211   3.284  0.00  0.00     0.123 C 
ENDBRANCH  22  27
ENDBRANCH  19  21
ENDBRANCH   1  19
TORSDOF 7
