REMARK  5 active torsions:
REMARK  status: ('A' for Active; 'I' for Inactive)
REMARK    1  A    between atoms: C_8  and  C_1 
REMARK    2  A    between atoms: C_9  and  C_2 
REMARK    3  A    between atoms: N_7  and  C_3 
REMARK       I    between atoms: C_10  and  N_7 
REMARK    4  A    between atoms: C_12  and  C_10 
REMARK    5  A    between atoms: C_11  and  C_13 
ROOT
ATOM      1  C   UNL d   1       1.564   0.751   0.119  0.00  0.00     0.147 A 
ATOM      2  C   UNL d   1       1.494  -0.679   0.004  0.00  0.00     0.053 A 
ATOM      3  C   UNL d   1       0.146  -0.987   0.179  0.00  0.00     0.138 A 
ATOM      4  N   UNL d   1       0.339   1.266   0.339  0.00  0.00    -0.292 N 
ATOM      5  HN  UNL d   1       0.093   2.251   0.437  1.00  0.00     0.187 HD
ATOM      6  N   UNL d   1      -0.491   0.211   0.402  0.00  0.00    -0.280 N 
ATOM      7  C   UNL d   1      -1.905   0.505   0.442  0.00  0.00     0.179 C 
ENDROOT
BRANCH   2   8
ATOM      8  C   UNL d   1       2.547  -1.672  -0.211  0.00  0.00    -0.019 A 
ATOM      9  C   UNL d   1       2.555  -2.886   0.501  0.00  0.00     0.028 A 
ATOM     10  C   UNL d   1       3.520  -3.878   0.249  0.00  0.00     0.048 A 
ATOM     11  C   UNL d   1       4.542  -3.607  -0.667  0.00  0.00     0.016 A 
ATOM     12  C   UNL d   1       4.574  -2.390  -1.344  0.00  0.00     0.002 A 
ATOM     13  C   UNL d   1       3.567  -1.443  -1.139  0.00  0.00     0.012 A 
BRANCH  10  14
ATOM     14  C   UNL d   1       3.448  -5.230   0.920  0.00  0.00     0.417 C 
ATOM     15  F   UNL d   1       2.389  -5.345   1.771  0.00  0.00    -0.166 F 
ATOM     16  F   UNL d   1       3.300  -6.238   0.016  0.00  0.00    -0.166 F 
ATOM     17  F   UNL d   1       4.556  -5.527   1.646  0.00  0.00    -0.166 F 
ENDBRANCH  10  14
ENDBRANCH   2   8
BRANCH   1  18
ATOM     18  C   UNL d   1       2.758   1.676   0.010  0.00  0.00     0.434 C 
ATOM     19  F   UNL d   1       3.949   1.028   0.083  0.00  0.00    -0.165 F 
ATOM     20  F   UNL d   1       2.760   2.344  -1.176  0.00  0.00    -0.165 F 
ATOM     21  F   UNL d   1       2.781   2.614   0.993  0.00  0.00    -0.165 F 
ENDBRANCH   1  18
BRANCH   3  22
ATOM     22  N   UNL d   1      -0.377  -2.272   0.060  0.00  0.00    -0.305 N 
ATOM     23  C   UNL d   1      -1.255  -2.856   1.035  0.00  0.00     0.281 C 
ATOM     24  O   UNL d   1      -1.686  -2.192   1.960  0.00  0.00    -0.265 OA
ATOM     25  H   UNL d   1       0.072  -2.921  -0.580  0.00  0.00     0.170 HD
BRANCH  23  26
ATOM     26  C   UNL d   1      -1.450  -4.278   0.838  0.00  0.00     0.142 A 
ATOM     27  O   UNL d   1      -0.919  -4.870  -0.281  0.00  0.00    -0.317 OA
ATOM     28  C   UNL d   1      -1.225  -6.193  -0.216  0.00  0.00     0.143 A 
ATOM     29  C   UNL d   1      -1.928  -6.471   0.932  0.00  0.00     0.027 A 
ATOM     30  C   UNL d   1      -2.078  -5.237   1.611  0.00  0.00     0.045 A 
ENDBRANCH  23  26
ENDBRANCH   3  22
TORSDOF 5
