REMARK  5 active torsions:
REMARK  status: ('A' for Active; 'I' for Inactive)
REMARK    1  A    between atoms: N_2  and  S_1 
REMARK    2  A    between atoms: C_4  and  S_1 
REMARK    3  A    between atoms: C_3  and  O_7 
REMARK    4  A    between atoms: O_7  and  C_15 
REMARK    5  A    between atoms: N_16  and  C_8 
ROOT
ATOM      1  C   UNL d   1       0.479   0.457   1.789  0.00  0.00     0.079 A 
ATOM      2  C   UNL d   1       0.029  -0.444   2.760  0.00  0.00     0.028 A 
ATOM      3  C   UNL d   1       0.620   1.812   2.099  0.00  0.00     0.028 A 
ATOM      4  C   UNL d   1      -0.272   1.387   4.318  0.00  0.00     0.076 A 
ATOM      5  C   UNL d   1       0.237   2.273   3.361  0.00  0.00     0.039 A 
ATOM      6  C   UNL d   1      -0.337   0.022   4.027  0.00  0.00     0.039 A 
ENDROOT
BRANCH   4   7
ATOM      7  O   UNL d   1      -0.663   1.966   5.506  0.00  0.00    -0.307 OA
BRANCH   7   8
ATOM      8  C   UNL d   1      -1.587   1.327   6.312  0.00  0.00     0.118 C 
ATOM      9  C   UNL d   1      -2.875   0.971   5.858  0.00  0.00     0.042 C 
ATOM     10  C   UNL d   1      -3.726   0.282   6.733  0.00  0.00     0.026 C 
ATOM     11  C   UNL d   1      -3.380   0.086   8.071  0.00  0.00     0.004 C 
ATOM     12  C   UNL d   1      -2.156   0.547   8.546  0.00  0.00     0.027 C 
ATOM     13  C   UNL d   1      -1.258   1.160   7.668  0.00  0.00     0.069 C 
ATOM     14 CL   UNL d   1       0.253   1.705   8.306  0.00  0.00    -0.081 Cl
BRANCH   9  15
ATOM     15  N   UNL d   1      -3.267   1.096   4.511  0.00  0.00    -0.300 NA
ATOM     16  H   UNL d   1      -2.777   1.849   4.034  0.00  0.00     0.124 HD
ATOM     17  H   UNL d   1      -4.271   1.148   4.376  0.00  0.00     0.124 HD
ENDBRANCH   9  15
ENDBRANCH   7   8
ENDBRANCH   4   7
BRANCH   1  18
ATOM     18  S   UNL d   1       1.032  -0.156   0.213  0.00  0.00     0.261 S 
ATOM     19  O   UNL d   1       2.037   0.766  -0.277  0.00  0.00    -0.200 OA
ATOM     20  O   UNL d   1       1.339  -1.560   0.384  0.00  0.00    -0.200 OA
BRANCH  18  21
ATOM     21  N   UNL d   1      -0.310  -0.045  -0.795  0.00  0.00    -0.303 N 
ATOM     22  C   UNL d   1      -0.691   1.245  -1.412  0.00  0.00     0.161 C 
ATOM     23  C   UNL d   1      -1.898   1.861  -0.701  0.00  0.00     0.188 C 
ATOM     24  O   UNL d   1      -3.002   0.946  -0.663  0.00  0.00    -0.388 OA
ATOM     25  C   UNL d   1      -2.645  -0.254   0.038  0.00  0.00     0.188 C 
ATOM     26  C   UNL d   1      -1.459  -0.966  -0.622  0.00  0.00     0.161 C 
ENDBRANCH  18  21
ENDBRANCH   1  18
TORSDOF 5
