REMARK  2 active torsions:
REMARK  status: ('A' for Active; 'I' for Inactive)
REMARK    1  A    between atoms: C_11  and  N_2 
REMARK    2  A    between atoms: C_17  and  C_11 
ROOT
ATOM      1  S   UNL d   1       0.426   1.672   1.073  0.00  0.00     0.269 S 
ATOM      2  N   UNL d   1      -0.331   2.278  -0.315  0.00  0.00    -0.233 N 
ATOM      3  S   UNL d   1       0.125  -0.518  -1.712  0.00  0.00     0.087 S 
ATOM      4  C   UNL d   1       1.682   0.556   0.479  0.00  0.00     0.099 A 
ATOM      5  C   UNL d   1      -1.588   1.816  -0.799  0.00  0.00     0.269 C 
ATOM      6  C   UNL d   1      -2.049   0.498  -0.340  0.00  0.00     0.052 A 
ATOM      7  C   UNL d   1       1.494  -0.416  -0.518  0.00  0.00     0.059 A 
ATOM      8  C   UNL d   1      -1.269  -0.640  -0.590  0.00  0.00     0.052 A 
ATOM      9  O   UNL d   1       1.132   2.762   1.720  0.00  0.00    -0.200 OA
ATOM     10  O   UNL d   1      -0.478   0.860   1.853  0.00  0.00    -0.200 OA
ATOM     11  O   UNL d   1       0.239  -1.871  -2.354  0.00  0.00    -0.247 OA
ATOM     12  O   UNL d   1      -2.233   2.401  -1.655  0.00  0.00    -0.266 OA
ATOM     13  C   UNL d   1       2.920   0.650   1.153  0.00  0.00     0.027 A 
ATOM     14  C   UNL d   1      -3.246   0.421   0.380  0.00  0.00     0.018 A 
ATOM     15  C   UNL d   1       2.570  -1.298  -0.767  0.00  0.00     0.023 A 
ATOM     16  C   UNL d   1      -1.695  -1.869  -0.077  0.00  0.00     0.022 A 
ATOM     17  C   UNL d   1       3.967  -0.219   0.866  0.00  0.00     0.002 A 
ATOM     18  C   UNL d   1      -3.646  -0.806   0.902  0.00  0.00     0.001 A 
ATOM     19  C   UNL d   1       3.785  -1.209  -0.084  0.00  0.00     0.002 A 
ATOM     20  C   UNL d   1      -2.869  -1.946   0.680  0.00  0.00     0.002 A 
ENDROOT
BRANCH   2  21
ATOM     21  C   UNL d   1       0.293   3.500  -0.893  0.00  0.00     0.183 C 
BRANCH  21  22
ATOM     22  C   UNL d   1      -0.113   4.781  -0.193  0.00  0.00    -0.039 A 
ATOM     23  C   UNL d   1       0.831   5.527   0.530  0.00  0.00     0.009 A 
ATOM     24  C   UNL d   1       0.444   6.654   1.259  0.00  0.00     0.001 A 
ATOM     25  C   UNL d   1      -0.889   7.056   1.264  0.00  0.00     0.000 A 
ATOM     26  C   UNL d   1      -1.830   6.346   0.525  0.00  0.00     0.001 A 
ATOM     27  C   UNL d   1      -1.444   5.221  -0.206  0.00  0.00     0.009 A 
ENDBRANCH  21  22
ENDBRANCH   2  21
TORSDOF 2
