REMARK  5 active torsions:
REMARK  status: ('A' for Active; 'I' for Inactive)
REMARK    1  A    between atoms: C_6  and  N_1 
REMARK    2  A    between atoms: C_14  and  C_4 
REMARK    3  A    between atoms: O_15  and  C_7 
REMARK    4  A    between atoms: O_17  and  C_10 
REMARK    5  A    between atoms: O_16  and  C_11 
ROOT
ATOM      1  N   UNL d   1       0.046   0.914  -0.063  0.00  0.00    -0.244 N 
ATOM      2  C   UNL d   1      -0.914   0.099   0.478  0.00  0.00     0.266 A 
ATOM      3  C   UNL d   1       1.015   0.148  -0.644  0.00  0.00     0.256 A 
ATOM      4  C   UNL d   1      -0.517  -1.306   0.208  0.00  0.00     0.048 A 
ATOM      5  C   UNL d   1       0.649  -1.256  -0.443  0.00  0.00     0.093 A 
ATOM      6  O   UNL d   1      -1.953   0.402   1.050  0.00  0.00    -0.267 OA
ATOM      7  O   UNL d   1       2.055   0.453  -1.200  0.00  0.00    -0.268 OA
ENDROOT
BRANCH   1   8
ATOM      8  C   UNL d   1       0.059   2.335   0.004  0.00  0.00     0.051 A 
ATOM      9  C   UNL d   1      -0.628   3.012   1.020  0.00  0.00     0.070 A 
ATOM     10  C   UNL d   1      -0.585   4.411   1.154  0.00  0.00     0.106 A 
ATOM     11  C   UNL d   1       0.122   5.180   0.207  0.00  0.00     0.135 A 
ATOM     12  C   UNL d   1       0.814   4.506  -0.821  0.00  0.00     0.106 A 
ATOM     13  C   UNL d   1       0.775   3.105  -0.913  0.00  0.00     0.070 A 
BRANCH  10  14
ATOM     14  O   UNL d   1      -1.200   5.059   2.195  0.00  0.00    -0.353 OA
ATOM     15  C   UNL d   1      -1.868   4.290   3.188  0.00  0.00     0.210 C 
ENDBRANCH  10  14
BRANCH  11  16
ATOM     16  O   UNL d   1       0.194   6.548   0.162  0.00  0.00    -0.351 OA
ATOM     17  C   UNL d   1      -0.501   7.340   1.110  0.00  0.00     0.210 C 
ENDBRANCH  11  16
BRANCH  12  18
ATOM     18  O   UNL d   1       1.521   5.086  -1.850  0.00  0.00    -0.353 OA
ATOM     19  C   UNL d   1       2.265   6.256  -1.532  0.00  0.00     0.210 C 
ENDBRANCH  12  18
ENDBRANCH   1   8
BRANCH   4  20
ATOM     20  C   UNL d   1      -1.264  -2.516   0.564  0.00  0.00    -0.020 A 
ATOM     21  C   UNL d   1      -2.084  -2.556   1.701  0.00  0.00     0.012 A 
ATOM     22  C   UNL d   1      -2.845  -3.690   1.998  0.00  0.00     0.001 A 
ATOM     23  C   UNL d   1      -2.794  -4.804   1.165  0.00  0.00     0.000 A 
ATOM     24  C   UNL d   1      -1.975  -4.789   0.040  0.00  0.00     0.001 A 
ATOM     25  C   UNL d   1      -1.215  -3.654  -0.257  0.00  0.00     0.012 A 
ENDBRANCH   4  20
TORSDOF 5
