REMARK  1 active torsions:
REMARK  status: ('A' for Active; 'I' for Inactive)
REMARK    1  A    between atoms: N_8  and  N_5 
ROOT
ATOM      1  C   UNL d   1       1.232   0.747  -0.021  0.00  0.00     0.124 A 
ATOM      2  C   UNL d   1      -0.111  -0.031   0.007  0.00  0.00     0.274 A 
ATOM      3  C   UNL d   1       2.272  -0.281  -0.067  0.00  0.00     0.027 A 
ATOM      4  N   UNL d   1       0.241  -1.362  -0.071  0.00  0.00    -0.321 N 
ATOM      5  N   UNL d   1       1.457   2.027  -0.018  0.00  0.00    -0.313 N 
ATOM      6  HN  UNL d   1       2.397   2.420  -0.057  1.00  0.00     0.181 HD
ATOM      7  C   UNL d   1       1.620  -1.514  -0.107  0.00  0.00     0.048 A 
ATOM      8  C   UNL d   1       3.647  -0.177  -0.061  0.00  0.00     0.058 A 
ATOM      9  O   UNL d   1      -1.241   0.404   0.069  0.00  0.00    -0.266 OA
ATOM     10  C   UNL d   1       2.317  -2.702  -0.161  0.00  0.00     0.033 A 
ATOM     11  C   UNL d   1       4.358  -1.374  -0.104  0.00  0.00     0.117 A 
ATOM     12  C   UNL d   1       3.712  -2.622  -0.159  0.00  0.00     0.044 A 
ATOM     13  F   UNL d   1       5.697  -1.341  -0.090  0.00  0.00    -0.206 F 
ATOM     14  H   UNL d   1      -0.445  -2.102  -0.077  0.00  0.00     0.169 HD
ENDROOT
BRANCH   5  15
ATOM     15  N   UNL d   1       0.345   2.796   0.041  0.00  0.00    -0.227 NA
ATOM     16  C   UNL d   1       0.461   4.071   0.777  0.00  0.00     0.139 C 
ATOM     17  C   UNL d   1      -0.938   4.643   1.049  0.00  0.00     0.183 C 
ATOM     18  O   UNL d   1      -1.668   4.857  -0.168  0.00  0.00    -0.389 OA
ATOM     19  C   UNL d   1      -1.766   3.628  -0.905  0.00  0.00     0.183 C 
ATOM     20  C   UNL d   1      -0.375   3.071  -1.224  0.00  0.00     0.139 C 
ENDBRANCH   5  15
TORSDOF 1
