REMARK  2 active torsions:
REMARK  status: ('A' for Active; 'I' for Inactive)
REMARK    1  A    between atoms: C_10  and  C_3 
REMARK    2  A    between atoms: N_15  and  C_9 
REMARK       I    between atoms: N_13  and  C_10 
ROOT
ATOM      1  C   UNL d   1       1.623  -0.928  -0.034  0.00  0.00     0.161 A 
ATOM      2  N   UNL d   1       0.924   0.259   0.021  0.00  0.00    -0.221 N 
ATOM      3  C   UNL d   1       2.947  -0.518   0.022  0.00  0.00     0.160 A 
ATOM      4  N   UNL d   1       1.001  -2.141  -0.098  0.00  0.00    -0.329 N 
ATOM      5  HN  UNL d   1       1.539  -3.006  -0.136  1.00  0.00     0.168 HD
ATOM      6  N   UNL d   1       1.744   1.322   0.105  0.00  0.00    -0.013 NA
ATOM      7  N   UNL d   1       2.986   0.859   0.098  0.00  0.00    -0.275 N 
ATOM      8  HN  UNL d   1       3.832   1.428   0.141  1.00  0.00     0.184 HD
ATOM      9  C   UNL d   1      -0.306  -2.159  -0.109  0.00  0.00     0.092 A 
ATOM     10  C   UNL d   1      -1.135  -0.914  -0.057  0.00  0.00     0.030 A 
ATOM     11  C   UNL d   1      -0.472   0.318   0.012  0.00  0.00     0.070 A 
ATOM     12  C   UNL d   1      -2.532  -0.930  -0.088  0.00  0.00     0.017 A 
ATOM     13  C   UNL d   1      -1.168   1.527   0.065  0.00  0.00     0.032 A 
ATOM     14  C   UNL d   1      -3.241   0.275  -0.035  0.00  0.00     0.001 A 
ATOM     15  C   UNL d   1      -2.563   1.496   0.043  0.00  0.00     0.002 A 
ENDROOT
BRANCH   3  16
ATOM     16  C   UNL d   1       4.120  -1.385  -0.028  0.00  0.00     0.275 C 
ATOM     17  N   UNL d   1       5.285  -0.975   0.613  0.00  0.00    -0.347 N 
ATOM     18  C   UNL d   1       5.498   0.185   1.461  0.00  0.00     0.126 C 
ATOM     19  C   UNL d   1       6.427  -1.869   0.658  0.00  0.00     0.126 C 
ATOM     20  C   UNL d   1       7.011   0.290   1.546  0.00  0.00     0.021 C 
ATOM     21  C   UNL d   1       7.473  -1.160   1.510  0.00  0.00     0.021 C 
ATOM     22  O   UNL d   1       4.093  -2.470  -0.613  0.00  0.00    -0.266 OA
ENDBRANCH   3  16
BRANCH   9  23
ATOM     23  N   UNL d   1      -0.901  -3.391  -0.159  0.00  0.00    -0.288 NA
ATOM     24  H   UNL d   1      -0.212  -4.130  -0.031  0.00  0.00     0.125 HD
ATOM     25  H   UNL d   1      -1.711  -3.528   0.430  0.00  0.00     0.125 HD
ENDBRANCH   9  23
TORSDOF 2
