REMARK  7 active torsions:
REMARK  status: ('A' for Active; 'I' for Inactive)
REMARK    1  A    between atoms: C_3  and  C_1 
REMARK    2  A    between atoms: C_2  and  C_4 
REMARK       I    between atoms: N_10  and  C_2 
REMARK    3  A    between atoms: C_23  and  N_10 
REMARK    4  A    between atoms: C_12  and  C_22 
REMARK    5  A    between atoms: S_14  and  C_24 
REMARK    6  A    between atoms: C_22  and  S_14 
REMARK    7  A    between atoms: C_24  and  C_23 
ROOT
ATOM      1  C   UNL d   1      -2.320   1.865   2.160  0.00  0.00     0.251 C 
ATOM      2  O   UNL d   1      -2.418   1.893   3.380  0.00  0.00    -0.268 OA
ATOM      3  N   UNL d   1      -3.402   1.972   1.311  0.00  0.00    -0.356 N 
ATOM      4  H   UNL d   1      -3.295   1.800   0.321  0.00  0.00     0.162 HD
ENDROOT
BRANCH   3   5
ATOM      5  C   UNL d   1      -4.739   2.234   1.818  0.00  0.00     0.133 C 
BRANCH   5   6
ATOM      6  C   UNL d   1      -5.511   0.959   2.175  0.00  0.00     0.093 C 
BRANCH   6   7
ATOM      7  S   UNL d   1      -7.174   1.430   2.757  0.00  0.00    -0.163 SA
BRANCH   7   8
ATOM      8  C   UNL d   1      -7.863  -0.220   3.104  0.00  0.00     0.112 C 
BRANCH   8   9
ATOM      9  C   UNL d   1      -9.271  -0.095   3.639  0.00  0.00    -0.049 A 
ATOM     10  C   UNL d   1     -10.364  -0.024   2.760  0.00  0.00     0.009 A 
ATOM     11  C   UNL d   1     -11.659   0.157   3.250  0.00  0.00     0.024 A 
ATOM     12  C   UNL d   1     -11.871   0.271   4.622  0.00  0.00     0.034 A 
ATOM     13  C   UNL d   1     -10.800   0.201   5.509  0.00  0.00     0.024 A 
ATOM     14 CL   UNL d   1     -13.466   0.512   5.223  0.00  0.00    -0.084 Cl
ATOM     15  C   UNL d   1      -9.503   0.021   5.019  0.00  0.00     0.009 A 
ENDBRANCH   8   9
ENDBRANCH   7   8
ENDBRANCH   6   7
ENDBRANCH   5   6
ENDBRANCH   3   5
BRANCH   1  16
ATOM     16  C   UNL d   1      -0.985   1.678   1.521  0.00  0.00     0.032 A 
ATOM     17  C   UNL d   1      -0.689   2.170   0.242  0.00  0.00     0.033 A 
ATOM     18  C   UNL d   1       0.584   1.967  -0.324  0.00  0.00     0.048 A 
ATOM     19  C   UNL d   1       1.556   1.276   0.418  0.00  0.00     0.016 A 
ATOM     20  C   UNL d   1       1.271   0.808   1.700  0.00  0.00     0.002 A 
ATOM     21  C   UNL d   1       0.006   1.012   2.252  0.00  0.00     0.017 A 
BRANCH  18  22
ATOM     22  C   UNL d   1       0.916   2.471  -1.708  0.00  0.00     0.417 C 
ATOM     23  F   UNL d   1      -0.109   3.149  -2.296  0.00  0.00    -0.166 F 
ATOM     24  F   UNL d   1       1.231   1.460  -2.563  0.00  0.00    -0.166 F 
ATOM     25  F   UNL d   1       1.980   3.318  -1.717  0.00  0.00    -0.166 F 
ENDBRANCH  18  22
ENDBRANCH   1  16
TORSDOF 7
