REMARK  3 active torsions:
REMARK  status: ('A' for Active; 'I' for Inactive)
REMARK    1  A    between atoms: C_2  and  N_1 
REMARK    2  A    between atoms: N_5  and  C_2 
REMARK    3  A    between atoms: C_6  and  N_5 
ROOT
ATOM      1  N   UNL d   1      -1.372   2.840  -0.400  0.00  0.00    -0.271 NA
ATOM      2  H   UNL d   1      -2.020   2.453   0.292  0.00  0.00     0.129 HD
ENDROOT
BRANCH   1   3
ATOM      3  C   UNL d   1      -0.040   2.280  -0.218  0.00  0.00     0.229 C 
BRANCH   3   4
ATOM      4  N   UNL d   1      -0.121   0.843  -0.247  0.00  0.00    -0.275 N 
ATOM      5  C   UNL d   1      -0.760   0.105   0.699  0.00  0.00     0.227 C 
ATOM      6  C   UNL d   1      -0.505  -1.351   0.444  0.00  0.00     0.112 C 
ATOM      7  O   UNL d   1      -1.421   0.534   1.635  0.00  0.00    -0.273 OA
ATOM      8  C   UNL d   1       0.518  -1.360  -0.675  0.00  0.00     0.112 C 
ATOM      9  C   UNL d   1       0.742   0.088  -0.985  0.00  0.00     0.227 C 
ATOM     10  O   UNL d   1       1.615   0.488  -1.741  0.00  0.00    -0.273 OA
ENDBRANCH   3   4
ENDBRANCH   1   3
BRANCH   1  11
ATOM     11  C   UNL d   1      -1.457   4.256  -0.383  0.00  0.00     0.087 A 
ATOM     12  C   UNL d   1      -0.505   5.118  -0.956  0.00  0.00     0.140 A 
ATOM     13  F   UNL d   1       0.606   4.636  -1.532  0.00  0.00    -0.204 F 
ATOM     14  C   UNL d   1      -0.662   6.506  -0.956  0.00  0.00     0.044 A 
ATOM     15  C   UNL d   1      -1.804   7.080  -0.408  0.00  0.00     0.006 A 
ATOM     16  C   UNL d   1      -2.792   6.255   0.121  0.00  0.00     0.044 A 
ATOM     17  C   UNL d   1      -2.620   4.869   0.115  0.00  0.00     0.140 A 
ATOM     18  F   UNL d   1      -3.595   4.104   0.633  0.00  0.00    -0.204 F 
ENDBRANCH   1  11
TORSDOF 3
