REMARK  6 active torsions:
REMARK  status: ('A' for Active; 'I' for Inactive)
REMARK    1  A    between atoms: C_5  and  C_1 
REMARK    2  A    between atoms: C_2  and  C_6 
REMARK    3  A    between atoms: C_3  and  N_10 
REMARK    4  A    between atoms: N_7  and  C_3 
REMARK    5  A    between atoms: C_4  and  N_7 
REMARK    6  A    between atoms: N_10  and  C_9 
ROOT
ATOM      1  C   UNL d   1       1.971  -2.423  -2.626  0.00  0.00     0.050 A 
ATOM      2  C   UNL d   1       1.301  -0.639  -1.103  0.00  0.00     0.050 A 
ATOM      3  C   UNL d   1       2.192  -1.657  -1.474  0.00  0.00     0.032 A 
ATOM      4  C   UNL d   1      -0.084  -1.175  -3.045  0.00  0.00     0.035 A 
ATOM      5  C   UNL d   1       0.829  -2.171  -3.404  0.00  0.00     0.045 A 
ATOM      6  C   UNL d   1       0.159  -0.413  -1.896  0.00  0.00     0.045 A 
ENDROOT
BRANCH   4   7
ATOM      7  N   UNL d   1      -1.165  -0.808  -3.878  0.00  0.00    -0.333 N 
ATOM      8  H   UNL d   1      -1.559   0.109  -3.711  0.00  0.00     0.168 HD
BRANCH   7   9
ATOM      9  C   UNL d   1      -1.735  -1.501  -4.916  0.00  0.00     0.176 C 
ATOM     10  S   UNL d   1      -2.074  -3.142  -4.923  0.00  0.00    -0.041 SA
BRANCH   9  11
ATOM     11  N   UNL d   1      -2.207  -0.765  -5.975  0.00  0.00    -0.328 N 
ATOM     12  H   UNL d   1      -2.879  -1.264  -6.553  0.00  0.00     0.168 HD
BRANCH  11  13
ATOM     13  C   UNL d   1      -1.913   0.560  -6.386  0.00  0.00     0.112 A 
ATOM     14  C   UNL d   1      -0.793   1.298  -6.005  0.00  0.00     0.146 A 
ATOM     15  F   UNL d   1       0.222   0.737  -5.334  0.00  0.00    -0.204 F 
ATOM     16  C   UNL d   1      -0.644   2.635  -6.369  0.00  0.00     0.045 A 
ATOM     17  C   UNL d   1      -1.608   3.254  -7.164  0.00  0.00     0.006 A 
ATOM     18  C   UNL d   1      -2.680   2.506  -7.641  0.00  0.00     0.045 A 
ATOM     19  C   UNL d   1      -2.816   1.169  -7.267  0.00  0.00     0.146 A 
ATOM     20  F   UNL d   1      -3.858   0.470  -7.742  0.00  0.00    -0.204 F 
ENDBRANCH  11  13
ENDBRANCH   9  11
ENDBRANCH   7   9
ENDBRANCH   4   7
BRANCH   1  21
ATOM     21  C   UNL d   1       2.955  -3.480  -3.062  0.00  0.00     0.417 C 
ATOM     22  F   UNL d   1       4.047  -3.562  -2.252  0.00  0.00    -0.166 F 
ATOM     23  F   UNL d   1       3.440  -3.253  -4.314  0.00  0.00    -0.166 F 
ATOM     24  F   UNL d   1       2.411  -4.726  -3.085  0.00  0.00    -0.166 F 
ENDBRANCH   1  21
BRANCH   2  25
ATOM     25  C   UNL d   1       1.578   0.205   0.119  0.00  0.00     0.417 C 
ATOM     26  F   UNL d   1       2.843   0.051   0.603  0.00  0.00    -0.166 F 
ATOM     27  F   UNL d   1       1.436   1.538  -0.122  0.00  0.00    -0.166 F 
ATOM     28  F   UNL d   1       0.745  -0.081   1.156  0.00  0.00    -0.166 F 
ENDBRANCH   2  25
TORSDOF 6
