REMARK  6 active torsions:
REMARK  status: ('A' for Active; 'I' for Inactive)
REMARK    1  A    between atoms: N_3  and  C_11 
REMARK    2  A    between atoms: C_13  and  C_4 
REMARK    3  A    between atoms: C_15  and  C_5 
REMARK    4  A    between atoms: C_9  and  N_6 
REMARK    5  A    between atoms: N_10  and  C_15 
REMARK    6  A    between atoms: O_25  and  C_18 
ROOT
ATOM      1  N   UNL d   1      -0.405   0.075  -0.265  0.00  0.00    -0.351 N 
ATOM      2  HN  UNL d   1      -0.576   0.044   0.741  1.00  0.00     0.166 HD
ATOM      3  C   UNL d   1      -0.483   1.225  -1.044  0.00  0.00     0.049 A 
ATOM      4  C   UNL d   1      -0.081  -0.968  -1.004  0.00  0.00     0.079 A 
ATOM      5  S   UNL d   1       0.240  -0.610  -2.658  0.00  0.00    -0.085 SA
ATOM      6  C   UNL d   1      -0.119   1.040  -2.364  0.00  0.00     0.081 A 
ENDROOT
BRANCH   4   7
ATOM      7  C   UNL d   1      -0.152  -2.399  -0.535  0.00  0.00     0.337 C 
BRANCH   7   8
ATOM      8  N   UNL d   1       1.044  -3.033   0.021  0.00  0.00     0.097 N 
ATOM      9  C   UNL d   1       2.163  -3.242  -0.901  0.00  0.00     0.292 C 
ATOM     10  C   UNL d   1       3.264  -2.154  -0.936  0.00  0.00     0.153 C 
ATOM     11  N   UNL d   1       3.690  -1.759   0.424  0.00  0.00    -0.375 N 
ATOM     12  C   UNL d   1       2.539  -1.361   1.264  0.00  0.00     0.153 C 
ATOM     13  C   UNL d   1       1.502  -2.510   1.316  0.00  0.00     0.292 C 
BRANCH  11  14
ATOM     14  C   UNL d   1       4.955  -1.177   0.617  0.00  0.00     0.064 A 
ATOM     15  C   UNL d   1       5.542  -0.933   1.891  0.00  0.00     0.094 A 
ATOM     16  C   UNL d   1       6.877  -0.488   2.003  0.00  0.00     0.039 A 
ATOM     17  C   UNL d   1       7.650  -0.232   0.878  0.00  0.00     0.003 A 
ATOM     18  C   UNL d   1       7.095  -0.416  -0.375  0.00  0.00     0.002 A 
ATOM     19  C   UNL d   1       5.778  -0.874  -0.494  0.00  0.00     0.032 A 
BRANCH  15  20
ATOM     20  O   UNL d   1       4.827  -1.235   3.030  0.00  0.00    -0.354 OA
ATOM     21  C   UNL d   1       5.124  -0.445   4.180  0.00  0.00     0.210 C 
ENDBRANCH  15  20
ENDBRANCH  11  14
ENDBRANCH   7   8
ENDBRANCH   4   7
BRANCH   3  22
ATOM     22  C   UNL d   1      -0.999   2.478  -0.483  0.00  0.00    -0.009 A 
ATOM     23  C   UNL d   1      -1.361   2.523   0.875  0.00  0.00     0.016 A 
ATOM     24  C   UNL d   1      -1.952   3.661   1.431  0.00  0.00     0.037 A 
ATOM     25  C   UNL d   1      -2.188   4.779   0.624  0.00  0.00     0.102 A 
ATOM     26  C   UNL d   1      -1.814   4.767  -0.724  0.00  0.00     0.037 A 
ATOM     27  C   UNL d   1      -1.220   3.622  -1.269  0.00  0.00     0.016 A 
BRANCH  25  28
ATOM     28  N   UNL d   1      -2.853   5.964   1.188  0.00  0.00    -0.116 N 
ATOM     29  O   UNL d   1      -3.147   5.940   2.388  0.00  0.00    -0.532 OA
ATOM     30  O   UNL d   1      -3.087   6.910   0.421  0.00  0.00    -0.532 OA
ENDBRANCH  25  28
ENDBRANCH   3  22
TORSDOF 6
