REMARK  3 active torsions:
REMARK  status: ('A' for Active; 'I' for Inactive)
REMARK    1  A    between atoms: C_2  and  C_1 
REMARK    2  A    between atoms: C_7  and  C_2 
REMARK    3  A    between atoms: O_12  and  N_5 
ROOT
ATOM      1  C   UNL d   1      -0.642   1.858  -1.198  0.00  0.00     0.185 C 
ATOM      2  C   UNL d   1      -1.401   0.630  -1.093  0.00  0.00     0.123 C 
ATOM      3  N   UNL d   1      -1.999  -0.363  -0.993  0.00  0.00    -0.190 NA
ATOM      4  N   UNL d   1      -0.450   2.398  -2.372  0.00  0.00    -0.255 N 
ATOM      5  HN  UNL d   1       0.061   3.269  -2.512  1.00  0.00     0.195 HD
ENDROOT
BRANCH   1   6
ATOM      6  C   UNL d   1      -0.092   2.537   0.021  0.00  0.00     0.221 C 
ATOM      7  O   UNL d   1      -0.796   2.585   1.022  0.00  0.00    -0.284 OA
BRANCH   6   8
ATOM      8  C   UNL d   1       1.253   3.165   0.004  0.00  0.00     0.017 A 
ATOM      9  C   UNL d   1       1.508   4.201   0.915  0.00  0.00     0.017 A 
ATOM     10  C   UNL d   1       2.751   4.839   0.928  0.00  0.00     0.025 A 
ATOM     11  C   UNL d   1       3.745   4.433   0.042  0.00  0.00     0.034 A 
ATOM     12  C   UNL d   1       3.508   3.392  -0.856  0.00  0.00     0.025 A 
ATOM     13 CL   UNL d   1       5.275   5.219   0.054  0.00  0.00    -0.084 Cl
ATOM     14  C   UNL d   1       2.261   2.755  -0.877  0.00  0.00     0.017 A 
ENDBRANCH   6   8
ENDBRANCH   1   6
BRANCH   4  15
ATOM     15  O   UNL d   1      -1.016   1.658  -3.418  0.00  0.00    -0.289 OA
ATOM     16  H   UNL d   1      -0.842   2.212  -4.204  0.00  0.00     0.244 HD
ENDBRANCH   4  15
TORSDOF 3
