REMARK  1 active torsions:
REMARK  status: ('A' for Active; 'I' for Inactive)
REMARK    1  A    between atoms: C_2  and  C_1 
ROOT
ATOM      1  C   UNL d   1      -1.825   0.009  -0.013  0.00  0.00    -0.026 A 
ATOM      2  C   UNL d   1      -1.090  -1.189  -0.031  0.00  0.00     0.013 A 
ATOM      3  C   UNL d   1      -1.087   1.206   0.027  0.00  0.00     0.013 A 
ATOM      4  C   UNL d   1       0.314   1.208   0.028  0.00  0.00     0.007 A 
ATOM      5  C   UNL d   1       0.311  -1.193  -0.016  0.00  0.00     0.007 A 
ATOM      6  C   UNL d   1       1.023   0.008   0.005  0.00  0.00    -0.062 A 
ATOM      7  C   UNL d   1       2.523  -0.008  -0.002  0.00  0.00     0.048 C 
ENDROOT
BRANCH   1   8
ATOM      8  C   UNL d   1      -3.309   0.011  -0.049  0.00  0.00    -0.026 A 
ATOM      9  C   UNL d   1      -4.065  -1.009   0.559  0.00  0.00     0.013 A 
ATOM     10  C   UNL d   1      -5.464  -1.020   0.504  0.00  0.00     0.020 A 
ATOM     11  C   UNL d   1      -6.137   0.005  -0.153  0.00  0.00     0.011 A 
ATOM     12  C   UNL d   1      -5.425   1.034  -0.755  0.00  0.00     0.020 A 
ATOM     13 BR   UNL d   1      -8.025  -0.005  -0.231  0.00  0.00    -0.051 Br
ATOM     14  C   UNL d   1      -4.025   1.031  -0.708  0.00  0.00     0.013 A 
ENDBRANCH   1   8
TORSDOF 1
