REMARK  7 active torsions:
REMARK  status: ('A' for Active; 'I' for Inactive)
REMARK    1  A    between atoms: N_7  and  C_1 
REMARK    2  A    between atoms: N_13  and  C_3 
REMARK    3  A    between atoms: C_17  and  C_6 
REMARK    4  A    between atoms: C_9  and  C_12 
REMARK    5  A    between atoms: O_22  and  C_11 
REMARK    6  A    between atoms: C_18  and  N_13 
REMARK    7  A    between atoms: S_24  and  C_21 
ROOT
ATOM      1  C   UNL d   1      -0.014   1.290   0.060  0.00  0.00     0.105 C 
ATOM      2  S   UNL d   1      -1.023  -0.093  -0.263  0.00  0.00    -0.034 SA
ATOM      3  C   UNL d   1       0.317  -1.146  -0.098  0.00  0.00     0.151 C 
ATOM      4  N   UNL d   1       1.465  -0.538   0.075  0.00  0.00    -0.334 N 
ATOM      5  HN  UNL d   1       2.358  -1.016   0.196  1.00  0.00     0.168 HD
ATOM      6  C   UNL d   1       1.307   0.842   0.073  0.00  0.00     0.078 C 
ENDROOT
BRANCH   1   7
ATOM      7  N   UNL d   1      -0.548   2.551   0.119  0.00  0.00    -0.357 N 
ATOM      8  C   UNL d   1      -1.532   2.702   0.953  0.00  0.00     0.103 C 
ATOM      9  HN  UNL d   1      -0.197   3.319  -0.454  1.00  0.00     0.166 HD
BRANCH   8  10
ATOM     10  C   UNL d   1      -2.244   3.986   1.119  0.00  0.00     0.016 A 
ATOM     11  C   UNL d   1      -3.450   4.020   1.828  0.00  0.00     0.099 A 
ATOM     12  C   UNL d   1      -4.125   5.235   1.992  0.00  0.00     0.069 A 
ATOM     13 CL   UNL d   1      -5.617   5.290   2.858  0.00  0.00    -0.081 Cl
ATOM     14  C   UNL d   1      -3.604   6.411   1.458  0.00  0.00     0.050 A 
ATOM     15  C   UNL d   1      -2.404   6.366   0.750  0.00  0.00     0.036 A 
ATOM     16  C   UNL d   1      -1.722   5.161   0.570  0.00  0.00     0.039 A 
ATOM     17 CL   UNL d   1      -1.755   7.821   0.098  0.00  0.00    -0.084 Cl
BRANCH  11  18
ATOM     18  O   UNL d   1      -3.969   2.861   2.343  0.00  0.00    -0.358 OA
ATOM     19  H   UNL d   1      -4.821   3.077   2.769  0.00  0.00     0.217 HD
ENDBRANCH  11  18
ENDBRANCH   8  10
ENDBRANCH   1   7
BRANCH   6  20
ATOM     20  C   UNL d   1       2.505   1.681   0.017  0.00  0.00    -0.007 A 
ATOM     21  C   UNL d   1       3.638   1.178  -0.648  0.00  0.00     0.014 A 
ATOM     22  C   UNL d   1       4.792   1.949  -0.796  0.00  0.00     0.001 A 
ATOM     23  C   UNL d   1       4.833   3.234  -0.264  0.00  0.00     0.000 A 
ATOM     24  C   UNL d   1       3.731   3.738   0.423  0.00  0.00     0.001 A 
ATOM     25  C   UNL d   1       2.572   2.965   0.567  0.00  0.00     0.014 A 
ENDBRANCH   6  20
BRANCH   3  26
ATOM     26  N   UNL d   1       0.148  -2.484  -0.204  0.00  0.00    -0.337 N 
ATOM     27  H   UNL d   1      -0.733  -2.837  -0.554  0.00  0.00     0.168 HD
BRANCH  26  28
ATOM     28  C   UNL d   1       1.002  -3.464   0.336  0.00  0.00     0.035 A 
ATOM     29  C   UNL d   1       1.780  -3.232   1.482  0.00  0.00     0.048 A 
ATOM     30  C   UNL d   1       2.654  -4.201   1.986  0.00  0.00     0.002 A 
ATOM     31  C   UNL d   1       2.759  -5.422   1.313  0.00  0.00     0.018 A 
ATOM     32  C   UNL d   1       2.010  -5.665   0.161  0.00  0.00     0.004 A 
ATOM     33  C   UNL d   1       1.132  -4.693  -0.320  0.00  0.00     0.029 A 
BRANCH  30  34
ATOM     34  S   UNL d   1       3.600  -3.992   3.490  0.00  0.00    -0.134 SA
ATOM     35  C   UNL d   1       3.861  -2.196   3.539  0.00  0.00     0.095 C 
ENDBRANCH  30  34
ENDBRANCH  26  28
ENDBRANCH   3  26
TORSDOF 7
