REMARK  2 active torsions:
REMARK  status: ('A' for Active; 'I' for Inactive)
REMARK    1  A    between atoms: N_3  and  C_1 
REMARK    2  A    between atoms: C_6  and  C_2 
ROOT
ATOM      1  C   UNL d   1       2.241  -0.883   0.046  0.00  0.00     0.115 C 
ATOM      2  C   UNL d   1       2.241   0.488  -0.555  0.00  0.00     0.221 C 
ATOM      3  C   UNL d   1       1.157  -1.487   0.553  0.00  0.00     0.049 C 
ATOM      4  O   UNL d   1       1.106   1.293  -0.125  0.00  0.00    -0.334 OA
ATOM      5  C   UNL d   1      -0.063   0.612   0.088  0.00  0.00     0.080 A 
ATOM      6  C   UNL d   1      -0.097  -0.756   0.391  0.00  0.00    -0.001 A 
ATOM      7  C   UNL d   1      -1.241   1.347  -0.018  0.00  0.00     0.037 A 
ATOM      8  C   UNL d   1      -1.331  -1.402   0.487  0.00  0.00     0.014 A 
ATOM      9  C   UNL d   1      -2.470   0.698   0.085  0.00  0.00     0.003 A 
ATOM     10  C   UNL d   1      -2.514  -0.678   0.313  0.00  0.00     0.001 A 
ENDROOT
BRANCH   2  11
ATOM     11  C   UNL d   1       2.358   0.630  -2.078  0.00  0.00     0.021 A 
ATOM     12  C   UNL d   1       1.845  -0.281  -3.027  0.00  0.00     0.044 A 
ATOM     13 CL   UNL d   1       0.997  -1.740  -2.646  0.00  0.00    -0.084 Cl
ATOM     14  C   UNL d   1       1.980  -0.060  -4.407  0.00  0.00     0.024 A 
ATOM     15  C   UNL d   1       2.616   1.074  -4.887  0.00  0.00     0.003 A 
ATOM     16  C   UNL d   1       3.110   2.002  -3.984  0.00  0.00     0.024 A 
ATOM     17  C   UNL d   1       2.977   1.793  -2.604  0.00  0.00     0.044 A 
ATOM     18 CL   UNL d   1       3.597   3.062  -1.596  0.00  0.00    -0.084 Cl
ENDBRANCH   2  11
BRANCH   1  19
ATOM     19  N   UNL d   1       3.521  -1.563   0.098  0.00  0.00    -0.117 N 
ATOM     20  O   UNL d   1       4.491  -0.988  -0.411  0.00  0.00    -0.532 OA
ATOM     21  O   UNL d   1       3.572  -2.675   0.642  0.00  0.00    -0.532 OA
ENDBRANCH   1  19
TORSDOF 2
