REMARK  4 active torsions:
REMARK  status: ('A' for Active; 'I' for Inactive)
REMARK    1  A    between atoms: C_8  and  C_1 
REMARK    2  A    between atoms: O_11  and  C_6 
REMARK    3  A    between atoms: C_16  and  C_9 
REMARK    4  A    between atoms: O_14  and  C_16 
ROOT
ATOM      1  C   UNL d   1       1.021  -1.132   0.010  0.00  0.00     0.117 A 
ATOM      2  N   UNL d   1      -0.325  -1.133  -0.009  0.00  0.00    -0.323 N 
ATOM      3  HN  UNL d   1      -0.872  -1.994  -0.025  1.00  0.00     0.169 HD
ATOM      4  N   UNL d   1       1.781  -0.015   0.013  0.00  0.00    -0.343 N 
ATOM      5  HN  UNL d   1       2.799  -0.070   0.008  1.00  0.00     0.167 HD
ATOM      6  C   UNL d   1      -0.892   0.077  -0.005  0.00  0.00     0.143 A 
ATOM      7  C   UNL d   1      -0.229   1.272   0.013  0.00  0.00     0.083 A 
ATOM      8  C   UNL d   1       1.144   1.179   0.025  0.00  0.00     0.038 A 
ENDROOT
BRANCH   1   9
ATOM      9  C   UNL d   1       1.722  -2.433   0.032  0.00  0.00     0.009 A 
ATOM     10  C   UNL d   1       3.131  -2.503   0.086  0.00  0.00     0.022 A 
ATOM     11  C   UNL d   1       3.816  -3.728   0.119  0.00  0.00    -0.061 A 
ATOM     12  C   UNL d   1       5.314  -3.768   0.177  0.00  0.00     0.048 C 
ATOM     13  C   UNL d   1       3.083  -4.916   0.096  0.00  0.00     0.007 A 
ATOM     14  C   UNL d   1       1.692  -4.880   0.039  0.00  0.00     0.002 A 
ATOM     15  C   UNL d   1       1.022  -3.653   0.007  0.00  0.00     0.015 A 
ENDBRANCH   1   9
BRANCH   6  16
ATOM     16  O   UNL d   1      -2.250   0.055  -0.026  0.00  0.00    -0.346 OA
ATOM     17  H   UNL d   1      -2.413  -0.905  -0.024  0.00  0.00     0.219 HD
ENDBRANCH   6  16
BRANCH   8  18
ATOM     18  C   UNL d   1       1.997   2.422   0.027  0.00  0.00     0.224 C 
BRANCH  18  19
ATOM     19  O   UNL d   1       1.684   3.225   1.168  0.00  0.00    -0.390 OA
ATOM     20  C   UNL d   1       2.483   4.399   1.209  0.00  0.00     0.201 C 
ENDBRANCH  18  19
ENDBRANCH   8  18
TORSDOF 4
