REMARK  4 active torsions:
REMARK  status: ('A' for Active; 'I' for Inactive)
REMARK    1  A    between atoms: N_5  and  C_1 
REMARK    2  A    between atoms: N_6  and  C_2 
REMARK    3  A    between atoms: N_4  and  C_3 
REMARK    4  A    between atoms: C_7  and  C_8 
ROOT
ATOM      1  C   UNL d   1      -0.415  -0.952  -1.022  0.00  0.00     0.132 A 
ATOM      2  C   UNL d   1       1.538  -0.188   0.069  0.00  0.00     0.132 A 
ATOM      3  C   UNL d   1       0.715  -1.303  -0.234  0.00  0.00     0.097 A 
ATOM      4  C   UNL d   1       0.195   1.401  -1.219  0.00  0.00     0.052 A 
ATOM      5  C   UNL d   1       1.287   1.127  -0.395  0.00  0.00     0.054 A 
ATOM      6  C   UNL d   1      -0.668   0.347  -1.522  0.00  0.00     0.054 A 
ENDROOT
BRANCH   3   7
ATOM      7  N   UNL d   1       0.924  -2.647   0.159  0.00  0.00    -0.376 N 
ATOM      8  C   UNL d   1       1.625  -2.925   1.431  0.00  0.00     0.131 C 
ATOM      9  C   UNL d   1       1.024  -4.089   2.244  0.00  0.00    -0.031 C 
ATOM     10  C   UNL d   1       1.447  -5.497   1.753  0.00  0.00     0.014 C 
ATOM     11  C   UNL d   1       1.552  -3.937   3.697  0.00  0.00     0.016 C 
ATOM     12  C   UNL d   1      -0.512  -3.976   2.322  0.00  0.00     0.016 C 
ATOM     13  C   UNL d   1       1.791  -5.715   0.269  0.00  0.00    -0.016 C 
ATOM     14  C   UNL d   1       0.880  -4.992  -0.729  0.00  0.00     0.024 C 
ATOM     15  C   UNL d   1       1.790  -7.227  -0.013  0.00  0.00     0.010 C 
ATOM     16  C   UNL d   1       1.298  -3.537  -0.965  0.00  0.00     0.123 C 
ENDBRANCH   3   7
BRANCH   2  17
ATOM     17  N   UNL d   1       2.764  -0.299   0.836  0.00  0.00    -0.113 N 
ATOM     18  O   UNL d   1       3.720  -0.870   0.289  0.00  0.00    -0.532 OA
ATOM     19  O   UNL d   1       2.777   0.237   1.952  0.00  0.00    -0.532 OA
ENDBRANCH   2  17
BRANCH   1  20
ATOM     20  N   UNL d   1      -1.437  -1.939  -1.334  0.00  0.00    -0.113 N 
ATOM     21  O   UNL d   1      -2.169  -2.315  -0.410  0.00  0.00    -0.532 OA
ATOM     22  O   UNL d   1      -1.552  -2.258  -2.526  0.00  0.00    -0.532 OA
ENDBRANCH   1  20
BRANCH   4  23
ATOM     23  C   UNL d   1      -0.038   2.784  -1.780  0.00  0.00     0.417 C 
ATOM     24  F   UNL d   1       0.874   3.697  -1.351  0.00  0.00    -0.166 F 
ATOM     25  F   UNL d   1       0.025   2.799  -3.138  0.00  0.00    -0.166 F 
ATOM     26  F   UNL d   1      -1.258   3.280  -1.449  0.00  0.00    -0.166 F 
ENDBRANCH   4  23
TORSDOF 4
