REMARK  3 active torsions:
REMARK  status: ('A' for Active; 'I' for Inactive)
REMARK    1  A    between atoms: C_2  and  C_1 
REMARK    2  A    between atoms: C_13  and  N_3 
REMARK    3  A    between atoms: C_9  and  C_4 
ROOT
ATOM      1  C   UNL d   1      -0.445  -2.718  -0.093  0.00  0.00     0.056 A 
ATOM      2  C   UNL d   1      -1.404  -3.357  -0.859  0.00  0.00     0.076 A 
ATOM      3  N   UNL d   1      -0.417  -4.920   0.487  0.00  0.00    -0.310 N 
ATOM      4  HN  UNL d   1      -0.171  -5.816   0.908  1.00  0.00     0.186 HD
ATOM      5  N   UNL d   1      -1.378  -4.661  -0.417  0.00  0.00    -0.299 N 
ATOM      6  C   UNL d   1       0.138  -3.727   0.701  0.00  0.00     0.124 A 
ATOM      7  H   UNL d   1      -1.971  -5.426  -0.723  0.00  0.00     0.187 HD
ENDROOT
BRANCH   1   8
ATOM      8  C   UNL d   1      -0.116  -1.270  -0.076  0.00  0.00     0.152 C 
ATOM      9  N   UNL d   1       1.102  -0.682   0.220  0.00  0.00    -0.224 N 
ATOM     10  N   UNL d   1       0.877   0.624   0.498  0.00  0.00     0.001 NA
ATOM     11  N   UNL d   1      -0.379   0.853   0.142  0.00  0.00    -0.007 NA
ATOM     12  N   UNL d   1      -1.001  -0.306  -0.245  0.00  0.00    -0.269 N 
ATOM     13  HN  UNL d   1      -1.955  -0.403  -0.593  1.00  0.00     0.185 HD
BRANCH   9  14
ATOM     14  C   UNL d   1       2.414  -1.193   0.089  0.00  0.00     0.056 A 
ATOM     15  C   UNL d   1       2.680  -2.246  -0.798  0.00  0.00     0.032 A 
ATOM     16  C   UNL d   1       3.987  -2.707  -0.961  0.00  0.00     0.009 A 
ATOM     17  C   UNL d   1       5.037  -2.133  -0.240  0.00  0.00    -0.062 A 
ATOM     18  C   UNL d   1       4.769  -1.070   0.632  0.00  0.00     0.009 A 
ATOM     19  C   UNL d   1       6.440  -2.621  -0.455  0.00  0.00     0.048 C 
ATOM     20  C   UNL d   1       3.465  -0.591   0.789  0.00  0.00     0.032 A 
ENDBRANCH   9  14
ENDBRANCH   1   8
BRANCH   2  21
ATOM     21  C   UNL d   1      -2.260  -2.930  -1.971  0.00  0.00     0.032 A 
ATOM     22  C   UNL d   1      -3.514  -3.513  -2.196  0.00  0.00     0.129 A 
ATOM     23  F   UNL d   1      -3.965  -4.479  -1.379  0.00  0.00    -0.205 F 
ATOM     24  C   UNL d   1      -4.314  -3.131  -3.271  0.00  0.00     0.043 A 
ATOM     25  C   UNL d   1      -3.864  -2.155  -4.155  0.00  0.00     0.003 A 
ATOM     26  C   UNL d   1      -2.614  -1.572  -3.963  0.00  0.00     0.001 A 
ATOM     27  C   UNL d   1      -1.816  -1.960  -2.883  0.00  0.00     0.017 A 
ENDBRANCH   2  21
TORSDOF 3
