REMARK  3 active torsions:
REMARK  status: ('A' for Active; 'I' for Inactive)
REMARK    1  A    between atoms: C_2  and  C_1 
REMARK    2  A    between atoms: C_7  and  C_2 
REMARK    3  A    between atoms: C_6  and  C_3 
ROOT
ATOM      1  C   UNL d   1       0.616   0.949  -0.030  0.00  0.00     0.081 C 
ATOM      2  C   UNL d   1      -0.878   1.004   0.092  0.00  0.00     0.088 C 
ATOM      3  N   UNL d   1       1.152  -0.237  -0.075  0.00  0.00    -0.321 N 
ATOM      4  HN  UNL d   1       2.136  -0.463  -0.221  1.00  0.00     0.180 HD
ATOM      5  N   UNL d   1       0.134  -1.109   0.112  0.00  0.00    -0.239 NA
ATOM      6  C   UNL d   1      -1.171  -0.487  -0.120  0.00  0.00     0.126 C 
ATOM      7  H   UNL d   1       0.263  -1.991  -0.386  0.00  0.00     0.146 HD
ENDROOT
BRANCH   1   8
ATOM      8  C   UNL d   1       1.420   2.212  -0.134  0.00  0.00     0.206 C 
ATOM      9  O   UNL d   1       0.923   3.163  -0.726  0.00  0.00    -0.285 OA
BRANCH   8  10
ATOM     10  C   UNL d   1       2.788   2.275   0.442  0.00  0.00     0.017 A 
ATOM     11  C   UNL d   1       3.704   3.191  -0.092  0.00  0.00     0.028 A 
ATOM     12  C   UNL d   1       5.029   3.240   0.378  0.00  0.00    -0.025 A 
ATOM     13  C   UNL d   1       5.972   4.128  -0.164  0.00  0.00     0.012 A 
ATOM     14  C   UNL d   1       5.427   2.365   1.416  0.00  0.00    -0.026 A 
ATOM     15  C   UNL d   1       7.288   4.148   0.305  0.00  0.00     0.001 A 
ATOM     16  C   UNL d   1       7.678   3.283   1.323  0.00  0.00     0.001 A 
ATOM     17  C   UNL d   1       6.753   2.396   1.876  0.00  0.00     0.012 A 
ATOM     18  C   UNL d   1       4.492   1.476   1.965  0.00  0.00     0.013 A 
ATOM     19  C   UNL d   1       3.181   1.433   1.486  0.00  0.00     0.016 A 
ENDBRANCH   8  10
ENDBRANCH   1   8
BRANCH   2  20
ATOM     20  C   UNL d   1      -1.343   1.561   1.420  0.00  0.00    -0.044 A 
ATOM     21  C   UNL d   1      -0.997   0.943   2.634  0.00  0.00     0.047 A 
ATOM     22  C   UNL d   1      -1.438   1.513   3.808  0.00  0.00     0.105 A 
ATOM     23  O   UNL d   1      -1.181   1.047   5.059  0.00  0.00    -0.323 OA
ATOM     24  C   UNL d   1      -2.203   2.654   3.818  0.00  0.00     0.105 A 
ATOM     25  C   UNL d   1      -1.836   2.052   5.860  0.00  0.00     0.352 A 
ATOM     26  O   UNL d   1      -2.526   3.050   5.078  0.00  0.00    -0.323 OA
ATOM     27  C   UNL d   1      -2.570   3.289   2.652  0.00  0.00     0.040 A 
ATOM     28  C   UNL d   1      -2.130   2.738   1.444  0.00  0.00     0.011 A 
ENDBRANCH   2  20
TORSDOF 3
