REMARK  6 active torsions:
REMARK  status: ('A' for Active; 'I' for Inactive)
REMARK    1  A    between atoms: C_2  and  S_1 
REMARK    2  A    between atoms: N_13  and  S_1 
REMARK    3  A    between atoms: N_3  and  C_14 
REMARK    4  A    between atoms: C_15  and  C_6 
REMARK    5  A    between atoms: C_18  and  C_10 
REMARK    6  A    between atoms: C_20  and  N_13 
ROOT
ATOM      1  C   UNL d   1       1.193   4.656   2.499  0.00  0.00     0.056 A 
ATOM      2  C   UNL d   1       0.620   2.337   1.010  0.00  0.00     0.042 A 
ATOM      3  C   UNL d   1      -0.132   4.225   2.331  0.00  0.00     0.034 A 
ATOM      4  C   UNL d   1       2.215   3.867   1.972  0.00  0.00     0.034 A 
ATOM      5  C   UNL d   1       1.937   2.721   1.223  0.00  0.00     0.032 A 
ATOM      6  C   UNL d   1      -0.416   3.076   1.577  0.00  0.00     0.032 A 
ENDROOT
BRANCH   1   7
ATOM      7  N   UNL d   1       1.461   5.854   3.234  0.00  0.00    -0.260 N 
ATOM      8  N   UNL d   1       0.599   6.168   4.244  0.00  0.00    -0.297 N 
ATOM      9  C   UNL d   1       1.196   7.127   4.953  0.00  0.00     0.036 C 
ATOM     10  HN  UNL d   1      -0.316   5.753   4.421  1.00  0.00     0.187 HD
ATOM     11  C   UNL d   1       2.360   7.569   4.290  0.00  0.00     0.055 C 
ATOM     12  C   UNL d   1       2.491   6.807   3.134  0.00  0.00     0.044 C 
BRANCH   9  13
ATOM     13  C   UNL d   1       0.614   7.647   6.264  0.00  0.00    -0.007 C 
ATOM     14  C   UNL d   1      -0.649   6.870   6.694  0.00  0.00     0.021 C 
ATOM     15  C   UNL d   1       1.656   7.510   7.397  0.00  0.00     0.021 C 
ATOM     16  C   UNL d   1       0.232   9.136   6.136  0.00  0.00     0.021 C 
ENDBRANCH   9  13
BRANCH  12  17
ATOM     17  C   UNL d   1       3.478   7.049   1.977  0.00  0.00    -0.007 C 
ATOM     18  C   UNL d   1       2.855   6.812   0.586  0.00  0.00     0.021 C 
ATOM     19  C   UNL d   1       3.915   8.546   1.963  0.00  0.00     0.021 C 
ATOM     20  C   UNL d   1       4.799   6.276   2.170  0.00  0.00     0.021 C 
ENDBRANCH  12  17
ENDBRANCH   1   7
BRANCH   2  21
ATOM     21  N   UNL d   1       0.359   1.172   0.242  0.00  0.00    -0.280 N 
ATOM     22  H   UNL d   1      -0.429   1.210  -0.406  0.00  0.00     0.179 HD
BRANCH  21  23
ATOM     23  S   UNL d   1       0.500  -0.342   0.983  0.00  0.00     0.269 S 
ATOM     24  O   UNL d   1       0.078  -1.319   0.010  0.00  0.00    -0.200 OA
ATOM     25  O   UNL d   1       1.789  -0.434   1.643  0.00  0.00    -0.200 OA
BRANCH  23  26
ATOM     26  C   UNL d   1      -0.686  -0.464   2.300  0.00  0.00     0.123 A 
ATOM     27  S   UNL d   1      -2.334  -0.249   1.863  0.00  0.00    -0.063 SA
ATOM     28  C   UNL d   1      -2.841  -0.470   3.468  0.00  0.00     0.093 A 
ATOM     29 CL   UNL d   1      -4.516  -0.354   3.832  0.00  0.00    -0.075 Cl
ATOM     30  C   UNL d   1      -1.800  -0.724   4.319  0.00  0.00     0.041 A 
ATOM     31  C   UNL d   1      -0.549  -0.729   3.651  0.00  0.00     0.054 A 
ATOM     32 BR   UNL d   1      -1.917  -1.036   6.177  0.00  0.00    -0.049 Br
ENDBRANCH  23  26
ENDBRANCH  21  23
ENDBRANCH   2  21
TORSDOF 6
