REMARK  5 active torsions:
REMARK  status: ('A' for Active; 'I' for Inactive)
REMARK    1  A    between atoms: C_11  and  C_3 
REMARK    2  A    between atoms: C_12  and  C_4 
REMARK    3  A    between atoms: C_5  and  C_7 
REMARK    4  A    between atoms: C_13  and  O_16 
REMARK    5  A    between atoms: O_16  and  C_24 
ROOT
ATOM      1  C   UNL d   1      -0.056  -2.584  -0.091  0.00  0.00    -0.002 A 
ATOM      2  C   UNL d   1       0.496  -3.342   0.949  0.00  0.00     0.017 A 
ATOM      3  C   UNL d   1      -0.800  -3.252  -1.079  0.00  0.00     0.017 A 
ATOM      4  C   UNL d   1      -0.406  -5.384   0.003  0.00  0.00     0.077 A 
ATOM      5  C   UNL d   1       0.301  -4.725   1.012  0.00  0.00     0.038 A 
ATOM      6  C   UNL d   1      -0.977  -4.640  -1.029  0.00  0.00     0.038 A 
ENDROOT
BRANCH   1   7
ATOM      7  C   UNL d   1       0.171  -1.131  -0.107  0.00  0.00     0.084 A 
ATOM      8  N   UNL d   1       1.264  -0.543   0.344  0.00  0.00    -0.349 N 
ATOM      9  C   UNL d   1       1.152   0.835   0.244  0.00  0.00     0.050 A 
ATOM     10  HN  UNL d   1       2.077  -1.035   0.715  1.00  0.00     0.166 HD
ATOM     11  C   UNL d   1      -0.041   1.279  -0.289  0.00  0.00     0.082 A 
ATOM     12  S   UNL d   1      -1.050  -0.051  -0.665  0.00  0.00    -0.081 SA
BRANCH   9  13
ATOM     13  C   UNL d   1       2.240   1.721   0.644  0.00  0.00    -0.009 A 
ATOM     14  C   UNL d   1       3.567   1.289   0.527  0.00  0.00     0.014 A 
ATOM     15  C   UNL d   1       4.627   2.140   0.861  0.00  0.00     0.007 A 
ATOM     16  C   UNL d   1       4.378   3.436   1.328  0.00  0.00    -0.062 A 
ATOM     17  C   UNL d   1       3.054   3.861   1.472  0.00  0.00     0.007 A 
ATOM     18  C   UNL d   1       5.520   4.347   1.667  0.00  0.00     0.048 C 
ATOM     19  C   UNL d   1       1.995   3.011   1.134  0.00  0.00     0.014 A 
ENDBRANCH   9  13
ENDBRANCH   1   7
BRANCH   4  20
ATOM     20  O   UNL d   1      -0.639  -6.742  -0.018  0.00  0.00    -0.294 OA
BRANCH  20  21
ATOM     21  C   UNL d   1       0.340  -7.573   0.508  0.00  0.00     0.147 A 
ATOM     22  N   UNL d   1       1.642  -7.229   0.385  0.00  0.00    -0.346 N 
ATOM     23  C   UNL d   1       2.549  -8.009   1.009  0.00  0.00     0.106 A 
ATOM     24  HN  UNL d   1       1.927  -6.413  -0.157  1.00  0.00     0.167 HD
ATOM     25  C   UNL d   1       2.220  -9.143   1.735  0.00  0.00     0.063 A 
ATOM     26  C   UNL d   1       0.871  -9.518   1.776  0.00  0.00     0.022 A 
ATOM     27  C   UNL d   1      -0.087  -8.723   1.151  0.00  0.00     0.057 A 
BRANCH  25  28
ATOM     28  C   UNL d   1       3.278  -9.910   2.464  0.00  0.00     0.418 C 
ATOM     29  F   UNL d   1       4.520  -9.361   2.362  0.00  0.00    -0.166 F 
ATOM     30  F   UNL d   1       3.022 -10.001   3.799  0.00  0.00    -0.166 F 
ATOM     31  F   UNL d   1       3.398 -11.191   2.019  0.00  0.00    -0.166 F 
ENDBRANCH  25  28
ENDBRANCH  20  21
ENDBRANCH   4  20
TORSDOF 5
