REMARK  6 active torsions:
REMARK  status: ('A' for Active; 'I' for Inactive)
REMARK    1  A    between atoms: N_8  and  C_2 
REMARK    2  A    between atoms: C_6  and  C_5 
REMARK    3  A    between atoms: C_7  and  C_6 
REMARK       I    between atoms: N_10  and  C_7 
REMARK    4  A    between atoms: C_22  and  N_8 
REMARK    5  A    between atoms: C_15  and  N_10 
REMARK    6  A    between atoms: C_13  and  C_22 
ROOT
ATOM      1  N   UNL d   1      -0.407  -0.511   1.703  0.00  0.00    -0.307 N 
ATOM      2  C   UNL d   1      -0.348   0.697   1.097  0.00  0.00     0.143 C 
ATOM      3  C   UNL d   1      -0.764  -1.577   0.933  0.00  0.00     0.238 C 
ATOM      4  S   UNL d   1      -0.597   0.543  -0.616  0.00  0.00    -0.079 SA
ATOM      5  C   UNL d   1      -0.525  -1.278  -0.529  0.00  0.00     0.156 C 
ATOM      6  O   UNL d   1      -1.235  -2.620   1.369  0.00  0.00    -0.272 OA
ATOM      7  H   UNL d   1      -0.462  -0.542   2.710  0.00  0.00     0.171 HD
ENDROOT
BRANCH   5   8
ATOM      8  C   UNL d   1      -1.409  -2.081  -1.464  0.00  0.00     0.128 C 
BRANCH   8   9
ATOM      9  C   UNL d   1      -2.891  -1.772  -1.399  0.00  0.00     0.223 C 
ATOM     10  N   UNL d   1      -3.557  -2.410  -0.367  0.00  0.00    -0.327 N 
ATOM     11  H   UNL d   1      -2.994  -2.826   0.374  0.00  0.00     0.169 HD
ATOM     12  O   UNL d   1      -3.396  -1.030  -2.233  0.00  0.00    -0.273 OA
BRANCH  10  13
ATOM     13  C   UNL d   1      -4.958  -2.540  -0.232  0.00  0.00     0.034 A 
ATOM     14  C   UNL d   1      -5.863  -2.211  -1.246  0.00  0.00     0.031 A 
ATOM     15  C   UNL d   1      -7.236  -2.425  -1.078  0.00  0.00     0.026 A 
ATOM     16  C   UNL d   1      -7.713  -2.963   0.113  0.00  0.00     0.034 A 
ATOM     17  C   UNL d   1      -6.826  -3.290   1.136  0.00  0.00     0.026 A 
ATOM     18 CL   UNL d   1      -9.399  -3.238   0.314  0.00  0.00    -0.084 Cl
ATOM     19  C   UNL d   1      -5.453  -3.083   0.961  0.00  0.00     0.031 A 
ENDBRANCH  10  13
ENDBRANCH   8   9
ENDBRANCH   5   8
BRANCH   2  20
ATOM     20  N   UNL d   1      -0.157   1.734   1.814  0.00  0.00    -0.367 N 
ATOM     21  HN  UNL d   1      -0.028   1.646   2.822  1.00  0.00     0.161 HD
BRANCH  20  22
ATOM     22  C   UNL d   1      -0.125   3.045   1.183  0.00  0.00     0.148 C 
BRANCH  22  23
ATOM     23  C   UNL d   1       0.248   4.032   2.250  0.00  0.00    -0.018 C 
ATOM     24  C   UNL d   1       1.299   4.860   2.197  0.00  0.00     0.008 C 
ENDBRANCH  22  23
ENDBRANCH  20  22
ENDBRANCH   2  20
TORSDOF 6
