REMARK  8 active torsions:
REMARK  status: ('A' for Active; 'I' for Inactive)
REMARK       I    between atoms: C_3  and  N_1 
REMARK       I    between atoms: C_2  and  N_4 
REMARK    1  A    between atoms: O_5  and  C_2 
REMARK    2  A    between atoms: C_18  and  C_3 
REMARK    3  A    between atoms: N_4  and  C_15 
REMARK    4  A    between atoms: C_12  and  O_5 
REMARK    5  A    between atoms: C_6  and  C_19 
REMARK    6  A    between atoms: O_17  and  C_6 
REMARK    7  A    between atoms: S_16  and  C_18 
REMARK    8  A    between atoms: C_19  and  S_16 
ROOT
ATOM      1  N   UNL d   1       1.870  -0.499   0.014  0.00  0.00    -0.351 N 
ATOM      2  C   UNL d   1       2.543  -0.418   1.225  0.00  0.00     0.229 C 
ATOM      3  C   UNL d   1       1.091  -1.644  -0.436  0.00  0.00     0.127 C 
ATOM      4  C   UNL d   1       1.537   0.726  -0.699  0.00  0.00     0.127 C 
ATOM      5  O   UNL d   1       3.184   0.589   1.561  0.00  0.00    -0.273 OA
ATOM      6  C   UNL d   1       0.111   1.125  -0.334  0.00  0.00     0.045 C 
ATOM      7  C   UNL d   1      -0.380  -1.430  -0.103  0.00  0.00     0.045 C 
ATOM      8  C   UNL d   1      -0.908  -0.025  -0.454  0.00  0.00     0.089 C 
ENDROOT
BRANCH   2   9
ATOM      9  C   UNL d   1       2.509  -1.607   2.175  0.00  0.00     0.177 C 
BRANCH   9  10
ATOM     10  S   UNL d   1       3.934  -2.704   1.914  0.00  0.00    -0.149 SA
BRANCH  10  11
ATOM     11  C   UNL d   1       5.317  -1.560   2.232  0.00  0.00     0.184 C 
BRANCH  11  12
ATOM     12  C   UNL d   1       5.272  -0.955   3.616  0.00  0.00     0.149 C 
ATOM     13  O   UNL d   1       5.690  -1.515   4.621  0.00  0.00    -0.649 OA
BRANCH  12  14
ATOM     14  O   UNL d   1       4.701   0.272   3.671  0.00  0.00    -0.776 OA
ATOM     15  H   UNL d   1       4.326   0.600   2.816  0.00  0.00     0.167 HD
ENDBRANCH  12  14
ENDBRANCH  11  12
ENDBRANCH  10  11
ENDBRANCH   9  10
ENDBRANCH   2   9
BRANCH   8  16
ATOM     16  N   UNL d   1      -1.729   0.040  -1.657  0.00  0.00    -0.332 N 
ATOM     17  C   UNL d   1      -1.521  -0.328  -2.950  0.00  0.00     0.361 C 
ATOM     18  O   UNL d   1      -2.415  -0.174  -3.770  0.00  0.00    -0.238 OA
ATOM     19  H   UNL d   1      -2.651   0.443  -1.556  0.00  0.00     0.165 HD
BRANCH  17  20
ATOM     20  O   UNL d   1      -0.304  -0.859  -3.200  0.00  0.00    -0.294 OA
BRANCH  20  21
ATOM     21  C   UNL d   1      -0.016  -1.357  -4.541  0.00  0.00     0.061 C 
ATOM     22  C   UNL d   1      -0.207  -0.275  -5.615  0.00  0.00     0.046 C 
ATOM     23  C   UNL d   1       1.466  -1.762  -4.523  0.00  0.00     0.046 C 
ATOM     24  C   UNL d   1      -0.854  -2.608  -4.843  0.00  0.00     0.046 C 
ENDBRANCH  20  21
ENDBRANCH  17  20
ENDBRANCH   8  16
TORSDOF 8
