REMARK  0 active torsions:
REMARK  status: ('A' for Active; 'I' for Inactive)
ROOT
ATOM      1  N   UNL d   1      -0.308  -0.614   0.002  0.00  0.00    -0.204 N 
ATOM      2  C   UNL d   1      -0.274   0.768   0.002  0.00  0.00     0.132 A 
ATOM      3  C   UNL d   1       0.835  -1.432   0.002  0.00  0.00     0.270 A 
ATOM      4  N   UNL d   1      -1.583  -1.091  -0.001  0.00  0.00    -0.294 N 
ATOM      5  HN  UNL d   1      -1.888  -2.064  -0.002  1.00  0.00     0.187 HD
ATOM      6  C   UNL d   1      -1.573   1.200   0.001  0.00  0.00     0.076 A 
ATOM      7  C   UNL d   1       2.120  -0.674   0.006  0.00  0.00     0.101 A 
ATOM      8  N   UNL d   1       0.925   1.392   0.006  0.00  0.00    -0.345 N 
ATOM      9  C   UNL d   1       2.112   0.674   0.008  0.00  0.00     0.012 A 
ATOM     10  C   UNL d   1      -2.345   0.012   0.000  0.00  0.00     0.026 A 
ATOM     11  O   UNL d   1       0.775  -2.655  -0.000  0.00  0.00    -0.266 OA
ATOM     12  C   UNL d   1       3.390   1.464   0.013  0.00  0.00     0.068 C 
ATOM     13  C   UNL d   1      -3.825  -0.090   0.001  0.00  0.00     0.070 C 
ATOM     14  H   UNL d   1       1.001   2.408   0.007  0.00  0.00     0.167 HD
ENDROOT
TORSDOF 0
