REMARK  2 active torsions:
REMARK  status: ('A' for Active; 'I' for Inactive)
REMARK    1  A    between atoms: C_10  and  C_2 
REMARK    2  A    between atoms: C_8  and  N_4 
ROOT
ATOM      1  C   UNL d   1       0.730  -0.793   0.039  0.00  0.00     0.192 C 
ATOM      2  C   UNL d   1      -0.545   1.055   0.239  0.00  0.00     0.070 C 
ATOM      3  O   UNL d   1       0.751   0.579  -0.090  0.00  0.00    -0.291 OA
ATOM      4  N   UNL d   1       1.753  -1.462  -0.389  0.00  0.00    -0.329 N 
ATOM      5  HN  UNL d   1       2.554  -0.950  -0.757  1.00  0.00     0.168 HD
ATOM      6  S   UNL d   1      -0.757  -1.430   0.737  0.00  0.00    -0.056 SA
ATOM      7  C   UNL d   1      -1.436   0.148   0.660  0.00  0.00     0.087 C 
ENDROOT
BRANCH   4   8
ATOM      8  C   UNL d   1       1.801  -2.871  -0.367  0.00  0.00     0.056 A 
ATOM      9  C   UNL d   1       2.841  -3.559   0.281  0.00  0.00     0.062 A 
ATOM     10  C   UNL d   1       2.921  -4.957   0.240  0.00  0.00     0.050 A 
ATOM     11 CL   UNL d   1       4.079  -2.708   1.139  0.00  0.00    -0.082 Cl
ATOM     12  C   UNL d   1       1.954  -5.678  -0.452  0.00  0.00     0.035 A 
ATOM     13  C   UNL d   1       0.927  -5.020  -1.121  0.00  0.00     0.026 A 
ATOM     14 CL   UNL d   1       2.036  -7.397  -0.501  0.00  0.00    -0.084 Cl
ATOM     15  C   UNL d   1       0.869  -3.625  -1.099  0.00  0.00     0.033 A 
ENDBRANCH   4   8
BRANCH   2  16
ATOM     16  C   UNL d   1      -0.762   2.552   0.050  0.00  0.00    -0.001 C 
ATOM     17  C   UNL d   1      -0.190   3.004  -1.308  0.00  0.00     0.021 C 
ATOM     18  C   UNL d   1      -2.252   2.950   0.085  0.00  0.00     0.021 C 
ATOM     19  C   UNL d   1      -0.032   3.299   1.179  0.00  0.00     0.021 C 
ENDBRANCH   2  16
TORSDOF 2
