REMARK  4 active torsions:
REMARK  status: ('A' for Active; 'I' for Inactive)
REMARK    1  A    between atoms: C_4  and  C_1 
REMARK    2  A    between atoms: C_11  and  C_6 
REMARK    3  A    between atoms: O_17  and  C_12 
REMARK    4  A    between atoms: C_20  and  O_17 
ROOT
ATOM      1  C   UNL d   1      -3.726  -0.026   0.011  0.00  0.00     0.089 C 
ATOM      2  C   UNL d   1      -4.419   1.135  -0.002  0.00  0.00     0.038 C 
ATOM      3  C   UNL d   1      -2.284  -0.030  -0.004  0.00  0.00     0.103 C 
ATOM      4  N   UNL d   1      -1.124  -0.071  -0.015  0.00  0.00    -0.191 NA
ENDROOT
BRANCH   1   5
ATOM      5  C   UNL d   1      -4.501  -1.239   0.021  0.00  0.00     0.127 A 
ATOM      6  N   UNL d   1      -5.816  -1.412   0.031  0.00  0.00    -0.339 N 
ATOM      7  C   UNL d   1      -6.040  -2.771   0.007  0.00  0.00     0.060 A 
ATOM      8  HN  UNL d   1      -6.526  -0.680   0.052  1.00  0.00     0.167 HD
ATOM      9  C   UNL d   1      -7.243  -3.498  -0.004  0.00  0.00     0.032 A 
ATOM     10  C   UNL d   1      -4.835  -3.459  -0.014  0.00  0.00     0.060 A 
ATOM     11  C   UNL d   1      -7.188  -4.899  -0.036  0.00  0.00     0.002 A 
ATOM     12  C   UNL d   1      -5.959  -5.563  -0.057  0.00  0.00     0.002 A 
ATOM     13  C   UNL d   1      -4.751  -4.855  -0.046  0.00  0.00     0.032 A 
ATOM     14  N   UNL d   1      -3.877  -2.474   0.002  0.00  0.00    -0.339 N 
ATOM     15  H   UNL d   1      -2.884  -2.635  -0.012  0.00  0.00     0.167 HD
ENDBRANCH   1   5
BRANCH   2  16
ATOM     16  C   UNL d   1      -3.814   2.468  -0.076  0.00  0.00    -0.035 A 
ATOM     17  C   UNL d   1      -3.555   3.042  -1.323  0.00  0.00     0.014 A 
ATOM     18  C   UNL d   1      -2.903   4.275  -1.412  0.00  0.00     0.037 A 
ATOM     19  C   UNL d   1      -2.518   4.958  -0.258  0.00  0.00     0.068 A 
ATOM     20  C   UNL d   1      -2.813   4.399   0.989  0.00  0.00     0.037 A 
ATOM     21  C   UNL d   1      -3.455   3.159   1.083  0.00  0.00     0.014 A 
BRANCH  19  22
ATOM     22  O   UNL d   1      -1.861   6.161  -0.226  0.00  0.00    -0.352 OA
BRANCH  22  23
ATOM     23  C   UNL d   1      -1.534   6.738  -1.492  0.00  0.00     0.171 C 
ATOM     24  C   UNL d   1      -0.797   8.046  -1.270  0.00  0.00     0.034 C 
ENDBRANCH  22  23
ENDBRANCH  19  22
ENDBRANCH   2  16
TORSDOF 4
