REMARK  6 active torsions:
REMARK  status: ('A' for Active; 'I' for Inactive)
REMARK    1  A    between atoms: S_2  and  C_1 
REMARK    2  A    between atoms: S_4  and  C_1 
REMARK    3  A    between atoms: C_8  and  S_2 
REMARK    4  A    between atoms: C_3  and  C_7 
REMARK    5  A    between atoms: C_6  and  C_3 
REMARK    6  A    between atoms: C_7  and  S_4 
ROOT
ATOM      1  C   UNL d   1      -2.527  -2.207   0.876  0.00  0.00     0.169 C 
ATOM      2  O   UNL d   1      -3.589  -2.239   0.255  0.00  0.00    -0.291 OA
ENDROOT
BRANCH   1   3
ATOM      3  C   UNL d   1      -1.527  -1.087   0.673  0.00  0.00     0.164 C 
BRANCH   3   4
ATOM      4  S   UNL d   1      -0.176  -1.593  -0.421  0.00  0.00    -0.104 SA
BRANCH   4   5
ATOM      5  C   UNL d   1       0.881  -0.181  -0.396  0.00  0.00     0.105 C 
ATOM      6  S   UNL d   1       1.130   0.816   0.928  0.00  0.00    -0.065 SA
BRANCH   5   7
ATOM      7  S   UNL d   1       1.611   0.152  -1.961  0.00  0.00    -0.102 SA
BRANCH   7   8
ATOM      8  C   UNL d   1       3.261  -0.669  -1.883  0.00  0.00     0.003 C 
ATOM      9  C   UNL d   1       3.139  -2.180  -1.654  0.00  0.00     0.026 C 
ATOM     10  C   UNL d   1       3.903  -0.428  -3.261  0.00  0.00     0.026 C 
ATOM     11  C   UNL d   1       4.165  -0.045  -0.813  0.00  0.00     0.026 C 
ENDBRANCH   7   8
ENDBRANCH   5   7
ENDBRANCH   4   5
ENDBRANCH   3   4
ENDBRANCH   1   3
BRANCH   1  12
ATOM     12  C   UNL d   1      -2.265  -3.259   1.908  0.00  0.00     0.011 A 
ATOM     13  C   UNL d   1      -3.369  -3.898   2.491  0.00  0.00     0.017 A 
ATOM     14  C   UNL d   1      -3.183  -4.924   3.428  0.00  0.00     0.025 A 
ATOM     15  C   UNL d   1      -1.897  -5.320   3.770  0.00  0.00     0.034 A 
ATOM     16  C   UNL d   1      -0.792  -4.688   3.206  0.00  0.00     0.025 A 
ATOM     17 CL   UNL d   1      -1.663  -6.607   4.888  0.00  0.00    -0.084 Cl
ATOM     18  C   UNL d   1      -0.973  -3.651   2.285  0.00  0.00     0.017 A 
ENDBRANCH   1  12
TORSDOF 6
