REMARK  1 active torsions:
REMARK  status: ('A' for Active; 'I' for Inactive)
REMARK    1  A    between atoms: C_8  and  C_1 
ROOT
ATOM      1  C   UNL d   1      -1.246   1.524   0.064  0.00  0.00     0.088 C 
ATOM      2  N   UNL d   1      -1.017   3.620  -1.563  0.00  0.00    -0.196 NA
ATOM      3  C   UNL d   1      -1.131   2.697  -0.868  0.00  0.00     0.075 C 
ATOM      4  C   UNL d   1       0.058   0.692   0.057  0.00  0.00    -0.028 A 
ATOM      5  C   UNL d   1       0.045  -0.721   0.012  0.00  0.00    -0.050 A 
ATOM      6  C   UNL d   1      -2.436   0.640  -0.415  0.00  0.00     0.031 C 
ATOM      7  C   UNL d   1      -2.470  -0.714   0.291  0.00  0.00     0.007 C 
ATOM      8  C   UNL d   1       1.306   1.347   0.117  0.00  0.00     0.009 A 
ATOM      9  C   UNL d   1      -1.232  -1.522  -0.074  0.00  0.00     0.039 C 
ATOM     10  C   UNL d   1       1.263  -1.426  -0.029  0.00  0.00     0.007 A 
ATOM     11  C   UNL d   1       2.503   0.633   0.080  0.00  0.00     0.001 A 
ATOM     12  C   UNL d   1       2.482  -0.753  -0.001  0.00  0.00     0.001 A 
ENDROOT
BRANCH   1  13
ATOM     13  C   UNL d   1      -1.464   2.041   1.514  0.00  0.00     0.153 C 
ATOM     14  C   UNL d   1      -2.681   2.851   1.658  0.00  0.00     0.061 C 
ATOM     15  N   UNL d   1      -3.653   3.472   1.769  0.00  0.00    -0.197 NA
ENDBRANCH   1  13
TORSDOF 1
