REMARK  6 active torsions:
REMARK  status: ('A' for Active; 'I' for Inactive)
REMARK    1  A    between atoms: N_2  and  S_1 
REMARK    2  A    between atoms: C_5  and  S_1 
REMARK    3  A    between atoms: C_3  and  N_2 
REMARK       I    between atoms: C_4  and  N_6 
REMARK    4  A    between atoms: C_10  and  C_4 
REMARK    5  A    between atoms: N_6  and  C_22 
REMARK    6  A    between atoms: C_12  and  C_13 
ROOT
ATOM      1  C   UNL d   1       0.609  -1.488  -1.177  0.00  0.00     0.075 A 
ATOM      2  C   UNL d   1      -0.637  -1.768  -1.744  0.00  0.00     0.027 A 
ATOM      3  C   UNL d   1       1.444  -2.527  -0.770  0.00  0.00     0.027 A 
ATOM      4  C   UNL d   1      -0.198  -4.156  -1.527  0.00  0.00     0.035 A 
ATOM      5  C   UNL d   1       1.034  -3.856  -0.936  0.00  0.00     0.031 A 
ATOM      6  C   UNL d   1      -1.040  -3.100  -1.904  0.00  0.00     0.031 A 
ENDROOT
BRANCH   4   7
ATOM      7  N   UNL d   1      -0.644  -5.470  -1.799  0.00  0.00    -0.323 N 
ATOM      8  C   UNL d   1       0.050  -6.649  -1.583  0.00  0.00     0.256 C 
ATOM      9  O   UNL d   1       1.162  -6.759  -1.073  0.00  0.00    -0.267 OA
ATOM     10  H   UNL d   1      -1.577  -5.548  -2.182  0.00  0.00     0.169 HD
BRANCH   8  11
ATOM     11  C   UNL d   1      -0.673  -7.897  -1.962  0.00  0.00     0.032 A 
ATOM     12  C   UNL d   1      -1.539  -7.978  -3.055  0.00  0.00     0.017 A 
ATOM     13  C   UNL d   1      -2.264  -9.156  -3.291  0.00  0.00     0.009 A 
ATOM     14  C   UNL d   1      -2.142 -10.279  -2.446  0.00  0.00    -0.051 A 
ATOM     15  C   UNL d   1      -1.201 -10.199  -1.407  0.00  0.00     0.009 A 
ATOM     16  C   UNL d   1      -0.475  -9.028  -1.168  0.00  0.00     0.017 A 
BRANCH  14  17
ATOM     17  C   UNL d   1      -3.048 -11.512  -2.635  0.00  0.00    -0.024 C 
ATOM     18  C   UNL d   1      -2.791 -12.625  -1.593  0.00  0.00     0.019 C 
ATOM     19  C   UNL d   1      -4.526 -11.085  -2.486  0.00  0.00     0.019 C 
ATOM     20  C   UNL d   1      -2.850 -12.137  -4.031  0.00  0.00     0.019 C 
ENDBRANCH  14  17
ENDBRANCH   8  11
ENDBRANCH   4   7
BRANCH   1  21
ATOM     21  S   UNL d   1       1.169   0.201  -1.069  0.00  0.00     0.246 S 
ATOM     22  O   UNL d   1       2.613   0.191  -0.985  0.00  0.00    -0.206 OA
ATOM     23  O   UNL d   1       0.480   0.941  -2.107  0.00  0.00    -0.206 OA
BRANCH  21  24
ATOM     24  N   UNL d   1       0.529   0.748   0.407  0.00  0.00    -0.178 NA
ATOM     25  H   UNL d   1      -0.488   0.814   0.341  0.00  0.00     0.146 HD
BRANCH  24  26
ATOM     26  C   UNL d   1       1.018   0.120   1.596  0.00  0.00     0.064 A 
ATOM     27  C   UNL d   1       2.205   0.564   2.172  0.00  0.00     0.069 A 
ATOM     28  C   UNL d   1       2.699  -0.092   3.296  0.00  0.00     0.118 A 
ATOM     29  F   UNL d   1       3.824   0.347   3.875  0.00  0.00    -0.206 F 
ATOM     30  C   UNL d   1       2.045  -1.200   3.834  0.00  0.00     0.045 A 
ATOM     31  C   UNL d   1       0.866  -1.653   3.246  0.00  0.00     0.047 A 
ATOM     32  C   UNL d   1       0.354  -0.985   2.138  0.00  0.00     0.138 A 
ATOM     33  F   UNL d   1      -0.786  -1.416   1.580  0.00  0.00    -0.204 F 
ENDBRANCH  24  26
ENDBRANCH  21  24
ENDBRANCH   1  21
TORSDOF 6
