REMARK  3 active torsions:
REMARK  status: ('A' for Active; 'I' for Inactive)
REMARK    1  A    between atoms: C_4  and  N_1 
REMARK    2  A    between atoms: C_3  and  C_2 
REMARK       I    between atoms: N_5  and  C_3 
REMARK    3  A    between atoms: C_9  and  N_5 
ROOT
ATOM      1  C   UNL d   1       1.813   1.083  -2.469  0.00  0.00     0.258 C 
ATOM      2  N   UNL d   1       2.422   1.735  -3.531  0.00  0.00    -0.323 N 
ATOM      3  O   UNL d   1       0.716   1.371  -1.995  0.00  0.00    -0.267 OA
ATOM      4  H   UNL d   1       3.292   1.388  -3.910  0.00  0.00     0.169 HD
ENDROOT
BRANCH   1   5
ATOM      5  C   UNL d   1       2.551  -0.040  -1.812  0.00  0.00     0.065 A 
ATOM      6  C   UNL d   1       3.458  -0.917  -2.416  0.00  0.00     0.118 A 
ATOM      7  C   UNL d   1       4.169  -1.880  -1.681  0.00  0.00     0.037 A 
ATOM      8  C   UNL d   1       3.933  -2.010  -0.315  0.00  0.00     0.002 A 
ATOM      9  C   UNL d   1       2.981  -1.201   0.299  0.00  0.00     0.001 A 
ATOM     10  C   UNL d   1       2.301  -0.225  -0.440  0.00  0.00     0.020 A 
BRANCH   6  11
ATOM     11  N   UNL d   1       3.651  -0.926  -3.844  0.00  0.00    -0.115 N 
ATOM     12  O   UNL d   1       2.670  -1.198  -4.550  0.00  0.00    -0.532 OA
ATOM     13  O   UNL d   1       4.773  -0.623  -4.256  0.00  0.00    -0.532 OA
ENDBRANCH   6  11
ENDBRANCH   1   5
BRANCH   2  14
ATOM     14  C   UNL d   1       1.842   2.773  -4.299  0.00  0.00     0.035 A 
ATOM     15  C   UNL d   1       0.791   3.572  -3.851  0.00  0.00     0.030 A 
ATOM     16  C   UNL d   1       0.191   4.501  -4.708  0.00  0.00     0.009 A 
ATOM     17  C   UNL d   1       0.627   4.634  -6.029  0.00  0.00    -0.062 A 
ATOM     18  C   UNL d   1       1.727   3.884  -6.456  0.00  0.00     0.009 A 
ATOM     19  C   UNL d   1      -0.129   5.512  -6.981  0.00  0.00     0.048 C 
ATOM     20  C   UNL d   1       2.342   2.975  -5.590  0.00  0.00     0.030 A 
ENDBRANCH   2  14
TORSDOF 3
