REMARK  4 active torsions:
REMARK  status: ('A' for Active; 'I' for Inactive)
REMARK    1  A    between atoms: N_2  and  C_1 
REMARK    2  A    between atoms: N_6  and  N_2 
REMARK    3  A    between atoms: C_3  and  C_8 
REMARK    4  A    between atoms: O_21  and  C_11 
ROOT
ATOM      1  N   UNL d   1      -0.249   3.790  -0.412  0.00  0.00    -0.320 N 
ATOM      2  HN  UNL d   1       0.462   3.066  -0.514  1.00  0.00     0.181 HD
ATOM      3  C   UNL d   1       0.063   5.047  -0.233  0.00  0.00     0.030 C 
ATOM      4  C   UNL d   1      -0.983   6.145  -0.143  0.00  0.00     0.070 C 
ENDROOT
BRANCH   1   5
ATOM      5  N   UNL d   1      -1.580   3.505  -0.454  0.00  0.00    -0.202 NA
ATOM      6  H   UNL d   1      -2.060   3.624   0.446  0.00  0.00     0.153 HD
BRANCH   5   7
ATOM      7  C   UNL d   1      -1.969   2.262  -1.035  0.00  0.00     0.071 A 
ATOM      8  C   UNL d   1      -3.037   1.541  -0.451  0.00  0.00     0.060 A 
ATOM      9  C   UNL d   1      -3.507   0.342  -0.994  0.00  0.00     0.049 A 
ATOM     10 CL   UNL d   1      -3.812   2.128   0.985  0.00  0.00    -0.082 Cl
ATOM     11  C   UNL d   1      -2.918  -0.158  -2.148  0.00  0.00     0.037 A 
ATOM     12  C   UNL d   1      -1.885   0.534  -2.768  0.00  0.00     0.049 A 
ATOM     13 CL   UNL d   1      -3.495  -1.625  -2.835  0.00  0.00    -0.084 Cl
ATOM     14  C   UNL d   1      -1.427   1.745  -2.231  0.00  0.00     0.060 A 
ATOM     15 CL   UNL d   1      -0.252   2.589  -3.181  0.00  0.00    -0.082 Cl
ENDBRANCH   5   7
ENDBRANCH   1   5
BRANCH   3  16
ATOM     16  C   UNL d   1       1.512   5.420  -0.153  0.00  0.00     0.023 A 
ATOM     17  C   UNL d   1       2.497   4.604  -0.736  0.00  0.00     0.078 A 
ATOM     18  C   UNL d   1       3.843   4.974  -0.718  0.00  0.00     0.040 A 
ATOM     19  C   UNL d   1       4.227   6.157  -0.091  0.00  0.00     0.045 A 
ATOM     20  C   UNL d   1       3.260   6.945   0.520  0.00  0.00     0.117 A 
ATOM     21  C   UNL d   1       1.913   6.591   0.501  0.00  0.00     0.058 A 
ATOM     22  F   UNL d   1       3.629   8.074   1.141  0.00  0.00    -0.206 F 
BRANCH  17  23
ATOM     23  O   UNL d   1       2.223   3.416  -1.353  0.00  0.00    -0.360 OA
ATOM     24  H   UNL d   1       1.262   3.239  -1.260  0.00  0.00     0.217 HD
ENDBRANCH  17  23
ENDBRANCH   3  16
TORSDOF 4
