REMARK  4 active torsions:
REMARK  status: ('A' for Active; 'I' for Inactive)
REMARK    1  A    between atoms: N_6  and  C_5 
REMARK    2  A    between atoms: C_8  and  C_11 
REMARK    3  A    between atoms: C_11  and  O_16 
REMARK    4  A    between atoms: O_16  and  C_17 
ROOT
ATOM      1  C   UNL d   1      -0.917  -0.948   0.033  0.00  0.00     0.147 A 
ATOM      2  N   UNL d   1      -0.627   0.390  -0.037  0.00  0.00    -0.323 N 
ATOM      3  N   UNL d   1       0.156  -1.693  -0.054  0.00  0.00    -0.335 N 
ATOM      4  HN  UNL d   1       0.204  -2.711  -0.097  1.00  0.00     0.168 HD
ATOM      5  C   UNL d   1       0.747   0.511  -0.047  0.00  0.00     0.063 A 
ATOM      6  S   UNL d   1      -2.517  -1.570   0.252  0.00  0.00    -0.091 SA
ATOM      7  C   UNL d   1       1.202  -0.807  -0.075  0.00  0.00     0.061 A 
ATOM      8  C   UNL d   1      -1.568   1.496  -0.009  0.00  0.00     0.164 C 
ATOM      9  C   UNL d   1      -3.040   1.074  -0.134  0.00  0.00     0.160 C 
ATOM     10  C   UNL d   1      -3.363  -0.074   0.825  0.00  0.00     0.116 C 
ATOM     11  C   UNL d   1       1.619   1.607  -0.014  0.00  0.00     0.032 A 
ATOM     12  C   UNL d   1       2.581  -1.065  -0.089  0.00  0.00     0.032 A 
ATOM     13  C   UNL d   1       2.992   1.327  -0.002  0.00  0.00     0.002 A 
ATOM     14  C   UNL d   1       3.468   0.015  -0.043  0.00  0.00     0.002 A 
ENDROOT
BRANCH   9  15
ATOM     15  O   UNL d   1      -3.975   2.179  -0.021  0.00  0.00    -0.308 OA
BRANCH  15  16
ATOM     16  C   UNL d   1      -4.105   2.821   1.171  0.00  0.00     0.317 C 
ATOM     17  O   UNL d   1      -3.417   2.582   2.155  0.00  0.00    -0.257 OA
BRANCH  16  18
ATOM     18  C   UNL d   1      -5.165   3.805   1.126  0.00  0.00     0.153 A 
ATOM     19  O   UNL d   1      -5.935   3.971  -0.002  0.00  0.00    -0.282 OA
ATOM     20  C   UNL d   1      -6.838   4.948   0.290  0.00  0.00     0.215 A 
ATOM     21  C   UNL d   1      -6.676   5.426   1.567  0.00  0.00     0.066 A 
ATOM     22  C   UNL d   1      -5.597   4.685   2.108  0.00  0.00     0.048 A 
BRANCH  20  23
ATOM     23  N   UNL d   1      -7.769   5.302  -0.736  0.00  0.00    -0.090 N 
ATOM     24  O   UNL d   1      -8.562   6.213  -0.464  0.00  0.00    -0.530 OA
ATOM     25  O   UNL d   1      -7.718   4.678  -1.804  0.00  0.00    -0.530 OA
ENDBRANCH  20  23
ENDBRANCH  16  18
ENDBRANCH  15  16
ENDBRANCH   9  15
TORSDOF 4
