REMARK  5 active torsions:
REMARK  status: ('A' for Active; 'I' for Inactive)
REMARK    1  A    between atoms: N_7  and  S_1 
REMARK    2  A    between atoms: C_9  and  S_1 
REMARK    3  A    between atoms: C_19  and  C_3 
REMARK    4  A    between atoms: C_14  and  N_7 
REMARK    5  A    between atoms: O_23  and  C_19 
ROOT
ATOM      1  C   UNL d   1       2.353  -4.046   1.103  0.00  0.00     0.092 A 
ATOM      2  C   UNL d   1       1.773  -6.417   1.483  0.00  0.00    -0.016 A 
ATOM      3  O   UNL d   1       3.678  -4.418   0.804  0.00  0.00    -0.275 OA
ATOM      4  C   UNL d   1       4.066  -5.745   0.807  0.00  0.00     0.288 A 
ATOM      5  C   UNL d   1       1.385  -4.997   1.435  0.00  0.00     0.007 A 
ATOM      6  C   UNL d   1       3.042  -6.733   1.181  0.00  0.00     0.092 A 
ATOM      7  C   UNL d   1       2.069  -2.680   1.044  0.00  0.00     0.068 A 
ATOM      8  C   UNL d   1       0.090  -4.533   1.705  0.00  0.00     0.017 A 
ATOM      9  C   UNL d   1       0.781  -2.244   1.333  0.00  0.00     0.045 A 
ATOM     10  O   UNL d   1       5.206  -6.101   0.539  0.00  0.00    -0.260 OA
ATOM     11  C   UNL d   1      -0.211  -3.166   1.658  0.00  0.00     0.031 A 
ENDROOT
BRANCH   9  12
ATOM     12  N   UNL d   1       0.482  -0.861   1.283  0.00  0.00    -0.281 N 
ATOM     13  H   UNL d   1       0.076  -0.410   2.099  0.00  0.00     0.179 HD
BRANCH  12  14
ATOM     14  S   UNL d   1       0.062  -0.141  -0.180  0.00  0.00     0.263 S 
ATOM     15  O   UNL d   1       1.071  -0.453  -1.170  0.00  0.00    -0.200 OA
ATOM     16  O   UNL d   1      -0.283   1.228   0.134  0.00  0.00    -0.200 OA
BRANCH  14  17
ATOM     17  C   UNL d   1      -1.443  -0.974  -0.647  0.00  0.00     0.079 A 
ATOM     18  C   UNL d   1      -2.672  -0.464  -0.218  0.00  0.00     0.026 A 
ATOM     19  C   UNL d   1      -3.856  -1.077  -0.631  0.00  0.00     0.008 A 
ATOM     20  C   UNL d   1      -3.821  -2.194  -1.478  0.00  0.00    -0.062 A 
ATOM     21  C   UNL d   1      -2.582  -2.690  -1.908  0.00  0.00     0.008 A 
ATOM     22  C   UNL d   1      -5.105  -2.820  -1.939  0.00  0.00     0.048 C 
ATOM     23  C   UNL d   1      -1.393  -2.078  -1.501  0.00  0.00     0.026 A 
ENDBRANCH  14  17
ENDBRANCH  12  14
ENDBRANCH   9  12
BRANCH   2  24
ATOM     24  C   UNL d   1       0.791  -7.478   1.905  0.00  0.00     0.206 C 
BRANCH  24  25
ATOM     25  O   UNL d   1      -0.293  -7.523   0.980  0.00  0.00    -0.391 OA
ATOM     26  C   UNL d   1      -1.267  -8.487   1.358  0.00  0.00     0.201 C 
ENDBRANCH  24  25
ENDBRANCH   2  24
TORSDOF 5
