REMARK  3 active torsions:
REMARK  status: ('A' for Active; 'I' for Inactive)
REMARK    1  A    between atoms: N_2  and  C_1 
REMARK    2  A    between atoms: C_9  and  C_1 
REMARK    3  A    between atoms: C_7  and  N_2 
ROOT
ATOM      1  C   UNL d   1       0.981  -0.067  -0.075  0.00  0.00     0.109 C 
ATOM      2  N   UNL d   1       0.387   1.085  -0.182  0.00  0.00    -0.385 N 
ATOM      3  HN  UNL d   1       0.845   1.971  -0.394  1.00  0.00     0.157 HD
ATOM      4  H   UNL d   1      -0.615   0.958  -0.018  0.00  0.00     0.157 HD
ENDROOT
BRANCH   1   5
ATOM      5  N   UNL d   1       0.282  -1.227   0.169  0.00  0.00    -0.342 N 
ATOM      6  H   UNL d   1       0.746  -1.984   0.653  0.00  0.00     0.167 HD
BRANCH   5   7
ATOM      7  C   UNL d   1      -1.027  -1.516  -0.269  0.00  0.00     0.035 A 
ATOM      8  C   UNL d   1      -1.565  -0.941  -1.431  0.00  0.00     0.055 A 
ATOM      9  C   UNL d   1      -2.907  -1.129  -1.778  0.00  0.00     0.058 A 
ATOM     10 CL   UNL d   1      -3.478  -0.371  -3.222  0.00  0.00    -0.082 Cl
ATOM     11  C   UNL d   1      -3.735  -1.894  -0.955  0.00  0.00     0.055 A 
ATOM     12  C   UNL d   1      -3.208  -2.489   0.194  0.00  0.00     0.028 A 
ATOM     13 CL   UNL d   1      -5.414  -2.127  -1.286  0.00  0.00    -0.083 Cl
ATOM     14  C   UNL d   1      -1.862  -2.304   0.530  0.00  0.00     0.031 A 
ENDBRANCH   5   7
ENDBRANCH   1   5
BRANCH   1  15
ATOM     15  C   UNL d   1       2.481  -0.079  -0.195  0.00  0.00     0.007 A 
ATOM     16  C   UNL d   1       3.230  -1.261  -0.126  0.00  0.00     0.015 A 
ATOM     17  C   UNL d   1       4.621  -1.219  -0.275  0.00  0.00     0.001 A 
ATOM     18  C   UNL d   1       5.271  -0.005  -0.501  0.00  0.00     0.000 A 
ATOM     19  C   UNL d   1       4.534   1.173  -0.575  0.00  0.00     0.001 A 
ATOM     20  C   UNL d   1       3.148   1.135  -0.420  0.00  0.00     0.015 A 
ENDBRANCH   1  15
TORSDOF 3
