REMARK  5 active torsions:
REMARK  status: ('A' for Active; 'I' for Inactive)
REMARK    1  A    between atoms: C_12  and  C_1 
REMARK    2  A    between atoms: C_11  and  C_2 
REMARK       I    between atoms: C_6  and  N_13 
REMARK    3  A    between atoms: C_7  and  C_6 
REMARK    4  A    between atoms: N_13  and  N_9 
REMARK    5  A    between atoms: O_23  and  C_20 
ROOT
ATOM      1  C   UNL d   1       1.116   0.784   0.040  0.00  0.00     0.026 A 
ATOM      2  C   UNL d   1      -0.266   1.155   0.041  0.00  0.00     0.071 A 
ATOM      3  N   UNL d   1      -1.048   0.063   0.097  0.00  0.00    -0.299 N 
ATOM      4  HN  UNL d   1      -2.066   0.028   0.160  1.00  0.00     0.187 HD
ATOM      5  N   UNL d   1      -0.195  -0.970   0.052  0.00  0.00    -0.310 N 
ATOM      6  C   UNL d   1       1.110  -0.595   0.015  0.00  0.00     0.122 A 
ATOM      7  H   UNL d   1      -0.578  -1.909   0.051  0.00  0.00     0.186 HD
ENDROOT
BRANCH   1   8
ATOM      8  C   UNL d   1       2.282   1.635   0.051  0.00  0.00     0.122 C 
ATOM      9  N   UNL d   1       3.383   1.207  -0.471  0.00  0.00    -0.308 N 
ATOM     10  HN  UNL d   1       3.470   0.265  -0.852  1.00  0.00     0.186 HD
BRANCH   9  11
ATOM     11  N   UNL d   1       4.426   2.092  -0.483  0.00  0.00    -0.266 N 
ATOM     12  C   UNL d   1       5.608   1.731  -1.111  0.00  0.00     0.271 C 
ATOM     13  O   UNL d   1       5.830   0.641  -1.631  0.00  0.00    -0.266 OA
ATOM     14  H   UNL d   1       4.336   2.974   0.008  0.00  0.00     0.190 HD
BRANCH  12  15
ATOM     15  C   UNL d   1       6.678   2.753  -1.119  0.00  0.00     0.049 A 
ATOM     16  C   UNL d   1       8.000   2.322  -1.145  0.00  0.00     0.104 A 
ATOM     17  N   UNL d   1       9.068   3.158  -1.163  0.00  0.00    -0.374 N 
ATOM     18  C   UNL d   1       8.803   4.482  -1.182  0.00  0.00     0.087 A 
ATOM     19  HN  UNL d   1      10.024   2.804  -1.162  1.00  0.00     0.164 HD
ATOM     20  C   UNL d   1       7.521   5.009  -1.178  0.00  0.00     0.018 A 
ATOM     21  C   UNL d   1       6.438   4.130  -1.147  0.00  0.00     0.020 A 
ENDBRANCH  12  15
ENDBRANCH   9  11
ENDBRANCH   1   8
BRANCH   2  22
ATOM     22  C   UNL d   1      -0.852   2.498  -0.035  0.00  0.00    -0.007 A 
ATOM     23  C   UNL d   1      -0.222   3.521  -0.760  0.00  0.00     0.016 A 
ATOM     24  C   UNL d   1      -0.759   4.812  -0.801  0.00  0.00     0.037 A 
ATOM     25  C   UNL d   1      -1.952   5.092  -0.139  0.00  0.00     0.068 A 
ATOM     26  C   UNL d   1      -2.622   4.066   0.528  0.00  0.00     0.037 A 
ATOM     27  C   UNL d   1      -2.073   2.781   0.590  0.00  0.00     0.016 A 
BRANCH  25  28
ATOM     28  O   UNL d   1      -2.573   6.311  -0.128  0.00  0.00    -0.356 OA
ATOM     29  C   UNL d   1      -1.709   7.438  -0.229  0.00  0.00     0.210 C 
ENDBRANCH  25  28
ENDBRANCH   2  22
TORSDOF 5
