REMARK  8 active torsions:
REMARK  status: ('A' for Active; 'I' for Inactive)
REMARK    1  A    between atoms: C_2  and  S_1 
REMARK    2  A    between atoms: C_3  and  S_1 
REMARK    3  A    between atoms: C_13  and  C_4 
REMARK    4  A    between atoms: C_12  and  C_11 
REMARK    5  A    between atoms: O_18  and  C_12 
REMARK    6  A    between atoms: O_19  and  C_12 
REMARK    7  A    between atoms: C_22  and  O_18 
REMARK    8  A    between atoms: C_23  and  O_19 
ROOT
ATOM      1  C   UNL d   1      -1.160   0.180  -2.822  0.00  0.00     0.146 C 
ATOM      2  C   UNL d   1      -0.373  -0.644  -2.106  0.00  0.00     0.046 C 
ATOM      3  C   UNL d   1      -2.548  -0.003  -3.007  0.00  0.00     0.112 C 
ATOM      4  N   UNL d   1      -3.689  -0.134  -3.181  0.00  0.00    -0.191 NA
ENDROOT
BRANCH   1   5
ATOM      5  S   UNL d   1      -0.400   1.465  -3.706  0.00  0.00     0.232 S 
ATOM      6  O   UNL d   1      -0.209   1.010  -5.077  0.00  0.00    -0.215 OA
ATOM      7  O   UNL d   1       0.743   1.985  -2.971  0.00  0.00    -0.215 OA
BRANCH   5   8
ATOM      8  C   UNL d   1      -1.633   2.759  -3.747  0.00  0.00     0.134 A 
ATOM      9  N   UNL d   1      -2.035   3.174  -2.517  0.00  0.00    -0.356 N 
ATOM     10  C   UNL d   1      -3.001   4.117  -2.506  0.00  0.00     0.089 A 
ATOM     11  HN  UNL d   1      -1.635   2.797  -1.658  1.00  0.00     0.166 HD
ATOM     12  C   UNL d   1      -3.583   4.637  -3.655  0.00  0.00     0.017 A 
ATOM     13  C   UNL d   1      -3.148   4.174  -4.895  0.00  0.00     0.004 A 
ATOM     14  C   UNL d   1      -2.145   3.213  -4.953  0.00  0.00     0.042 A 
ENDBRANCH   5   8
ENDBRANCH   1   5
BRANCH   2  15
ATOM     15  C   UNL d   1      -0.845  -1.856  -1.436  0.00  0.00    -0.034 A 
ATOM     16  C   UNL d   1      -0.946  -3.044  -2.164  0.00  0.00     0.012 A 
ATOM     17  C   UNL d   1      -1.281  -4.232  -1.517  0.00  0.00     0.013 A 
ATOM     18  C   UNL d   1      -1.466  -4.263  -0.126  0.00  0.00    -0.004 A 
ATOM     19  C   UNL d   1      -1.461  -3.050   0.580  0.00  0.00     0.013 A 
ATOM     20  C   UNL d   1      -1.150  -1.851  -0.072  0.00  0.00     0.012 A 
BRANCH  18  21
ATOM     21  C   UNL d   1      -1.556  -5.589   0.617  0.00  0.00     0.294 C 
BRANCH  21  22
ATOM     22  O   UNL d   1      -2.929  -5.975   0.699  0.00  0.00    -0.357 OA
BRANCH  22  23
ATOM     23  C   UNL d   1      -3.092  -7.160   1.478  0.00  0.00     0.167 C 
ATOM     24  C   UNL d   1      -4.563  -7.523   1.533  0.00  0.00     0.033 C 
ENDBRANCH  22  23
ENDBRANCH  21  22
BRANCH  21  25
ATOM     25  O   UNL d   1      -0.792  -6.603  -0.049  0.00  0.00    -0.357 OA
BRANCH  25  26
ATOM     26  C   UNL d   1       0.618  -6.396   0.017  0.00  0.00     0.167 C 
ATOM     27  C   UNL d   1       1.283  -7.488  -0.797  0.00  0.00     0.033 C 
ENDBRANCH  25  26
ENDBRANCH  21  25
ENDBRANCH  18  21
ENDBRANCH   2  15
TORSDOF 8
