REMARK  3 active torsions:
REMARK  status: ('A' for Active; 'I' for Inactive)
REMARK    1  A    between atoms: S_7  and  C_2 
REMARK    2  A    between atoms: C_11  and  C_6 
REMARK    3  A    between atoms: C_12  and  S_7 
ROOT
ATOM      1  N   UNL d   1       0.555   0.844   0.031  0.00  0.00    -0.294 N 
ATOM      2  C   UNL d   1       1.922   0.959   0.044  0.00  0.00     0.111 A 
ATOM      3  C   UNL d   1       0.270  -0.487   0.038  0.00  0.00     0.156 A 
ATOM      4  N   UNL d   1       1.318  -1.255   0.062  0.00  0.00    -0.333 N 
ATOM      5  HN  UNL d   1       1.352  -2.274   0.077  1.00  0.00     0.168 HD
ATOM      6  C   UNL d   1       2.384  -0.357   0.061  0.00  0.00     0.079 A 
ATOM      7  S   UNL d   1      -1.444  -0.772   0.005  0.00  0.00    -0.064 SA
ATOM      8  C   UNL d   1      -0.547   1.677   0.004  0.00  0.00     0.107 A 
ATOM      9  C   UNL d   1      -1.697   0.980  -0.014  0.00  0.00     0.071 A 
ENDROOT
BRANCH   2  10
ATOM     10  S   UNL d   1       2.676   2.518   0.108  0.00  0.00    -0.070 SA
BRANCH  10  11
ATOM     11  C   UNL d   1       2.863   2.947  -1.622  0.00  0.00     0.007 A 
ATOM     12  C   UNL d   1       2.566   2.102  -2.699  0.00  0.00     0.019 A 
ATOM     13  C   UNL d   1       2.798   2.513  -4.016  0.00  0.00     0.001 A 
ATOM     14  C   UNL d   1       3.324   3.775  -4.274  0.00  0.00     0.000 A 
ATOM     15  C   UNL d   1       3.616   4.631  -3.217  0.00  0.00     0.001 A 
ATOM     16  C   UNL d   1       3.387   4.219  -1.901  0.00  0.00     0.019 A 
ENDBRANCH  10  11
ENDBRANCH   2  10
BRANCH   6  17
ATOM     17  C   UNL d   1       3.758  -0.848   0.070  0.00  0.00    -0.007 A 
ATOM     18  C   UNL d   1       4.030  -2.074   0.699  0.00  0.00     0.014 A 
ATOM     19  C   UNL d   1       5.308  -2.639   0.654  0.00  0.00     0.001 A 
ATOM     20  C   UNL d   1       6.333  -1.985  -0.024  0.00  0.00     0.000 A 
ATOM     21  C   UNL d   1       6.083  -0.764  -0.644  0.00  0.00     0.001 A 
ATOM     22  C   UNL d   1       4.803  -0.200  -0.598  0.00  0.00     0.014 A 
ENDBRANCH   6  17
TORSDOF 3
