REMARK  5 active torsions:
REMARK  status: ('A' for Active; 'I' for Inactive)
REMARK    1  A    between atoms: C_6  and  N_1 
REMARK    2  A    between atoms: S_8  and  C_4 
REMARK    3  A    between atoms: C_10  and  C_7 
REMARK    4  A    between atoms: C_9  and  S_8 
REMARK    5  A    between atoms: O_19  and  C_10 
ROOT
ATOM      1  N   UNL d   1       0.084   0.841   0.116  0.00  0.00    -0.251 N 
ATOM      2  C   UNL d   1      -1.022   0.048   0.311  0.00  0.00     0.232 C 
ATOM      3  C   UNL d   1       1.241   0.094   0.124  0.00  0.00     0.245 C 
ATOM      4  C   UNL d   1       0.882  -1.376   0.085  0.00  0.00     0.154 C 
ATOM      5  C   UNL d   1      -0.578  -1.375   0.486  0.00  0.00     0.129 C 
ATOM      6  O   UNL d   1      -2.201   0.367   0.378  0.00  0.00    -0.273 OA
ATOM      7  O   UNL d   1       2.404   0.487   0.168  0.00  0.00    -0.271 OA
ENDROOT
BRANCH   4   8
ATOM      8  S   UNL d   1       1.244  -1.954  -1.631  0.00  0.00    -0.114 SA
BRANCH   8   9
ATOM      9  C   UNL d   1       0.891  -3.705  -1.524  0.00  0.00     0.018 A 
ATOM     10  C   UNL d   1      -0.325  -4.275  -1.945  0.00  0.00     0.054 A 
ATOM     11  C   UNL d   1      -0.513  -5.666  -1.871  0.00  0.00     0.020 A 
ATOM     12  C   UNL d   1       0.518  -6.498  -1.440  0.00  0.00     0.001 A 
ATOM     13  C   UNL d   1       1.739  -5.945  -1.066  0.00  0.00     0.001 A 
ATOM     14  C   UNL d   1       1.922  -4.558  -1.100  0.00  0.00     0.019 A 
BRANCH  10  15
ATOM     15  C   UNL d   1      -1.477  -3.502  -2.478  0.00  0.00     0.177 C 
ATOM     16  O   UNL d   1      -2.631  -3.815  -2.249  0.00  0.00    -0.646 OA
BRANCH  15  17
ATOM     17  O   UNL d   1      -1.142  -2.483  -3.295  0.00  0.00    -0.773 OA
ATOM     18  H   UNL d   1      -0.178  -2.322  -3.370  0.00  0.00     0.167 HD
ENDBRANCH  15  17
ENDBRANCH  10  15
ENDBRANCH   8   9
ENDBRANCH   4   8
BRANCH   1  19
ATOM     19  C   UNL d   1       0.050   2.260  -0.032  0.00  0.00     0.046 A 
ATOM     20  C   UNL d   1      -1.003   3.030   0.490  0.00  0.00     0.037 A 
ATOM     21  C   UNL d   1      -1.020   4.428   0.367  0.00  0.00    -0.059 A 
ATOM     22  C   UNL d   1      -2.114   5.245   0.992  0.00  0.00     0.048 C 
ATOM     23  C   UNL d   1       0.006   5.067  -0.334  0.00  0.00     0.013 A 
ATOM     24  C   UNL d   1       1.049   4.327  -0.896  0.00  0.00    -0.059 A 
ATOM     25  C   UNL d   1       1.072   2.934  -0.722  0.00  0.00     0.037 A 
ATOM     26  C   UNL d   1       2.131   5.026  -1.667  0.00  0.00     0.048 C 
ENDBRANCH   1  19
TORSDOF 5
