REMARK  3 active torsions:
REMARK  status: ('A' for Active; 'I' for Inactive)
REMARK    1  A    between atoms: C_5  and  C_3 
REMARK    2  A    between atoms: O_16  and  C_10 
REMARK    3  A    between atoms: O_15  and  C_11 
ROOT
ATOM      1  C   UNL d   1      -2.081   0.319   0.101  0.00  0.00    -0.006 C 
ATOM      2  C   UNL d   1      -1.094  -0.807   0.060  0.00  0.00     0.189 C 
ATOM      3  C   UNL d   1      -3.291   0.106  -0.443  0.00  0.00     0.022 C 
ATOM      4  C   UNL d   1       0.350  -0.416   0.042  0.00  0.00     0.021 A 
ATOM      5  C   UNL d   1       0.732   0.938  -0.014  0.00  0.00    -0.044 A 
ATOM      6  C   UNL d   1      -1.566   1.596   0.698  0.00  0.00     0.047 C 
ATOM      7  O   UNL d   1      -1.436  -1.982   0.013  0.00  0.00    -0.287 OA
ATOM      8  C   UNL d   1      -0.303   2.034  -0.032  0.00  0.00     0.044 C 
ATOM      9  C   UNL d   1       1.327  -1.419   0.042  0.00  0.00     0.016 A 
ATOM     10  C   UNL d   1       2.092   1.265  -0.097  0.00  0.00     0.008 A 
ATOM     11  C   UNL d   1       2.679  -1.078  -0.021  0.00  0.00     0.001 A 
ATOM     12  C   UNL d   1       3.060   0.261  -0.095  0.00  0.00     0.001 A 
ENDROOT
BRANCH   3  13
ATOM     13  C   UNL d   1      -4.286   1.164  -0.639  0.00  0.00    -0.030 A 
ATOM     14  C   UNL d   1      -4.250   1.911  -1.825  0.00  0.00     0.048 A 
ATOM     15  C   UNL d   1      -5.145   2.962  -2.025  0.00  0.00     0.071 A 
ATOM     16  C   UNL d   1      -6.099   3.248  -1.043  0.00  0.00     0.073 A 
ATOM     17  C   UNL d   1      -6.165   2.484   0.124  0.00  0.00     0.071 A 
ATOM     18  C   UNL d   1      -5.241   1.459   0.335  0.00  0.00     0.048 A 
BRANCH  15  19
ATOM     19  O   UNL d   1      -5.189   3.777  -3.123  0.00  0.00    -0.356 OA
ATOM     20  C   UNL d   1      -4.246   3.513  -4.157  0.00  0.00     0.210 C 
ENDBRANCH  15  19
BRANCH  17  21
ATOM     21  O   UNL d   1      -7.071   2.679   1.134  0.00  0.00    -0.356 OA
ATOM     22  C   UNL d   1      -8.328   3.212   0.725  0.00  0.00     0.210 C 
ENDBRANCH  17  21
ENDBRANCH   3  13
TORSDOF 3
