REMARK  4 active torsions:
REMARK  status: ('A' for Active; 'I' for Inactive)
REMARK    1  A    between atoms: C_6  and  S_1 
REMARK    2  A    between atoms: C_9  and  S_1 
REMARK    3  A    between atoms: C_4  and  C_6 
REMARK    4  A    between atoms: C_12  and  C_5 
ROOT
ATOM      1  N   UNL d   1       1.548   1.208   2.713  0.00  0.00    -0.352 N 
ATOM      2  HN  UNL d   1       1.704   0.212   2.557  1.00  0.00     0.166 HD
ATOM      3  C   UNL d   1       1.065   2.046   1.814  0.00  0.00     0.065 A 
ATOM      4  C   UNL d   1       1.813   1.877   3.902  0.00  0.00     0.049 A 
ATOM      5  S   UNL d   1       0.838   3.659   2.377  0.00  0.00    -0.085 SA
ATOM      6  C   UNL d   1       1.543   3.232   3.870  0.00  0.00     0.081 A 
ENDROOT
BRANCH   3   7
ATOM      7  C   UNL d   1       0.579   1.629   0.466  0.00  0.00     0.206 C 
BRANCH   7   8
ATOM      8  S   UNL d   1       1.552   2.427  -0.811  0.00  0.00     0.157 S 
ATOM      9  O   UNL d   1       2.902   1.895  -0.757  0.00  0.00    -0.227 OA
ATOM     10  O   UNL d   1       1.335   3.861  -0.739  0.00  0.00    -0.227 OA
BRANCH   8  11
ATOM     11  C   UNL d   1       0.816   1.879  -2.394  0.00  0.00     0.053 C 
ATOM     12  C   UNL d   1      -0.659   2.299  -2.469  0.00  0.00     0.031 C 
ATOM     13  C   UNL d   1       1.585   2.566  -3.537  0.00  0.00     0.031 C 
ATOM     14  C   UNL d   1       0.938   0.359  -2.551  0.00  0.00     0.031 C 
ENDBRANCH   8  11
ENDBRANCH   7   8
ENDBRANCH   3   7
BRANCH   4  15
ATOM     15  C   UNL d   1       2.325   1.189   5.081  0.00  0.00    -0.009 A 
ATOM     16  C   UNL d   1       3.109   0.039   4.938  0.00  0.00     0.014 A 
ATOM     17  C   UNL d   1       3.594  -0.636   6.065  0.00  0.00     0.007 A 
ATOM     18  C   UNL d   1       3.292  -0.179   7.354  0.00  0.00    -0.062 A 
ATOM     19  C   UNL d   1       2.509   0.968   7.500  0.00  0.00     0.007 A 
ATOM     20  C   UNL d   1       3.802  -0.918   8.555  0.00  0.00     0.048 C 
ATOM     21  C   UNL d   1       2.028   1.643   6.375  0.00  0.00     0.014 A 
ENDBRANCH   4  15
TORSDOF 4
