REMARK  2 active torsions:
REMARK  status: ('A' for Active; 'I' for Inactive)
REMARK    1  A    between atoms: C_9  and  N_2 
REMARK    2  A    between atoms: O_20  and  C_16 
ROOT
ATOM      1  C   UNL d   1       0.908  -0.201  -0.111  0.00  0.00     0.201 A 
ATOM      2  N   UNL d   1       1.725   0.334  -1.200  0.00  0.00    -0.285 N 
ATOM      3  C   UNL d   1       0.751  -1.762  -0.227  0.00  0.00     0.267 A 
ATOM      4  C   UNL d   1      -0.527   0.243   0.011  0.00  0.00     0.017 A 
ATOM      5  N   UNL d   1      -0.612  -2.043  -0.139  0.00  0.00    -0.323 N 
ATOM      6  S   UNL d   1       1.779   0.146   1.458  0.00  0.00    -0.113 SA
ATOM      7  C   UNL d   1       3.030   0.689  -0.825  0.00  0.00     0.235 C 
ATOM      8  C   UNL d   1      -1.360  -0.881  -0.015  0.00  0.00     0.045 A 
ATOM      9  C   UNL d   1       3.337   0.411   0.627  0.00  0.00     0.180 C 
ATOM     10  O   UNL d   1       1.633  -2.597  -0.377  0.00  0.00    -0.269 OA
ATOM     11  O   UNL d   1       3.887   1.188  -1.551  0.00  0.00    -0.272 OA
ATOM     12  C   UNL d   1      -1.066   1.518   0.118  0.00  0.00     0.013 A 
ATOM     13  C   UNL d   1      -2.734  -0.783   0.037  0.00  0.00     0.030 A 
ATOM     14  C   UNL d   1      -2.458   1.638   0.167  0.00  0.00     0.001 A 
ATOM     15  C   UNL d   1      -3.283   0.499   0.121  0.00  0.00     0.002 A 
ATOM     16  H   UNL d   1      -0.981  -2.981  -0.201  0.00  0.00     0.169 HD
ENDROOT
BRANCH   2  17
ATOM     17  C   UNL d   1       1.365   0.168  -2.588  0.00  0.00     0.040 A 
ATOM     18  C   UNL d   1       2.345  -0.100  -3.555  0.00  0.00     0.032 A 
ATOM     19  C   UNL d   1       2.022  -0.252  -4.910  0.00  0.00     0.039 A 
ATOM     20  C   UNL d   1       0.705  -0.160  -5.343  0.00  0.00     0.068 A 
ATOM     21  C   UNL d   1      -0.286   0.095  -4.405  0.00  0.00     0.039 A 
ATOM     22  C   UNL d   1       0.044   0.254  -3.048  0.00  0.00     0.032 A 
BRANCH  20  23
ATOM     23  O   UNL d   1       0.521  -0.276  -6.690  0.00  0.00    -0.356 OA
ATOM     24  C   UNL d   1      -0.767  -0.702  -7.118  0.00  0.00     0.210 C 
ENDBRANCH  20  23
ENDBRANCH   2  17
TORSDOF 2
