REMARK  3 active torsions:
REMARK  status: ('A' for Active; 'I' for Inactive)
REMARK    1  A    between atoms: C_2  and  N_6 
REMARK    2  A    between atoms: N_6  and  N_3 
REMARK    3  A    between atoms: C_5  and  C_7 
ROOT
ATOM      1  C   UNL d   1       3.209   3.176  -2.036  0.00  0.00     0.091 A 
ATOM      2  C   UNL d   1       4.555   5.098  -3.664  0.00  0.00     0.051 A 
ATOM      3  C   UNL d   1       2.934   4.551  -1.915  0.00  0.00     0.064 A 
ATOM      4  C   UNL d   1       4.141   2.795  -3.029  0.00  0.00     0.064 A 
ATOM      5  C   UNL d   1       4.804   3.733  -3.828  0.00  0.00     0.042 A 
ATOM      6  C   UNL d   1       3.608   5.494  -2.709  0.00  0.00     0.042 A 
ATOM      7 CL   UNL d   1       1.859   5.206  -0.725  0.00  0.00    -0.082 Cl
ATOM      8 CL   UNL d   1       4.498   1.119  -3.310  0.00  0.00    -0.082 Cl
ENDROOT
BRANCH   1   9
ATOM      9  N   UNL d   1       2.581   2.162  -1.284  0.00  0.00    -0.297 N 
ATOM     10  H   UNL d   1       3.136   1.308  -1.153  0.00  0.00     0.187 HD
BRANCH   9  11
ATOM     11  N   UNL d   1       1.297   2.265  -0.879  0.00  0.00    -0.294 N 
ATOM     12  C   UNL d   1       0.771   1.235  -0.281  0.00  0.00     0.140 C 
ATOM     13  C   UNL d   1       1.487  -0.082  -0.075  0.00  0.00     0.180 C 
ATOM     14  C   UNL d   1      -0.684   1.296   0.113  0.00  0.00     0.180 C 
ATOM     15  O   UNL d   1       2.678  -0.116   0.198  0.00  0.00    -0.291 OA
ATOM     16  C   UNL d   1       0.662  -1.303  -0.384  0.00  0.00     0.086 C 
ATOM     17  C   UNL d   1      -0.759  -1.185   0.163  0.00  0.00     0.015 C 
ATOM     18  C   UNL d   1      -1.471   0.082  -0.303  0.00  0.00     0.086 C 
ATOM     19  O   UNL d   1      -1.147   2.246   0.723  0.00  0.00    -0.291 OA
ATOM     20  HN  UNL d   1       0.760   3.118  -1.035  1.00  0.00     0.187 HD
ENDBRANCH   9  11
ENDBRANCH   1   9
BRANCH   2  21
ATOM     21  C   UNL d   1       5.293   6.136  -4.471  0.00  0.00     0.417 C 
ATOM     22  F   UNL d   1       6.176   5.602  -5.360  0.00  0.00    -0.166 F 
ATOM     23  F   UNL d   1       4.456   6.921  -5.200  0.00  0.00    -0.166 F 
ATOM     24  F   UNL d   1       6.017   6.980  -3.687  0.00  0.00    -0.166 F 
ENDBRANCH   2  21
TORSDOF 3
