REMARK  3 active torsions:
REMARK  status: ('A' for Active; 'I' for Inactive)
REMARK    1  A    between atoms: N_3  and  C_1 
REMARK    2  A    between atoms: C_8  and  C_2 
REMARK       I    between atoms: C_4  and  N_3 
REMARK    3  A    between atoms: C_6  and  C_4 
REMARK       I    between atoms: N_15  and  C_8 
ROOT
ATOM      1  C   UNL d   1       0.511  -1.036   0.117  0.00  0.00     0.093 A 
ATOM      2  C   UNL d   1       1.386   0.026  -0.053  0.00  0.00     0.072 A 
ATOM      3  S   UNL d   1      -1.101  -0.564   0.380  0.00  0.00    -0.083 SA
ATOM      4  C   UNL d   1       0.646   1.286   0.023  0.00  0.00    -0.037 A 
ATOM      5  C   UNL d   1      -0.712   1.076   0.181  0.00  0.00     0.059 A 
ATOM      6  C   UNL d   1       1.234   2.665  -0.016  0.00  0.00     0.050 C 
ENDROOT
BRANCH   1   7
ATOM      7  N   UNL d   1       0.659  -2.400   0.241  0.00  0.00    -0.313 N 
ATOM      8  C   UNL d   1       0.898  -3.269  -0.804  0.00  0.00     0.330 C 
ATOM      9  O   UNL d   1       0.556  -4.444  -0.590  0.00  0.00    -0.263 OA
ATOM     10  H   UNL d   1      -0.044  -2.837   0.832  0.00  0.00     0.169 HD
BRANCH   8  11
ATOM     11  C   UNL d   1       1.557  -2.864  -2.134  0.00  0.00     0.472 C 
ATOM     12  F   UNL d   1       1.692  -1.530  -2.339  0.00  0.00    -0.162 F 
ATOM     13  F   UNL d   1       2.804  -3.402  -2.252  0.00  0.00    -0.162 F 
ATOM     14  F   UNL d   1       0.846  -3.329  -3.203  0.00  0.00    -0.162 F 
ENDBRANCH   8  11
ENDBRANCH   1   7
BRANCH   2  15
ATOM     15  C   UNL d   1       2.844  -0.054  -0.226  0.00  0.00     0.254 C 
ATOM     16  O   UNL d   1       3.484   0.818  -0.800  0.00  0.00    -0.268 OA
ATOM     17  N   UNL d   1       3.458  -1.147   0.356  0.00  0.00    -0.361 N 
ATOM     18  C   UNL d   1       4.897  -1.198   0.425  0.00  0.00     0.149 C 
ATOM     19  H   UNL d   1       2.918  -1.739   0.972  0.00  0.00     0.162 HD
ENDBRANCH   2  15
TORSDOF 3
