REMARK  5 active torsions:
REMARK  status: ('A' for Active; 'I' for Inactive)
REMARK    1  A    between atoms: N_7  and  C_1 
REMARK    2  A    between atoms: N_8  and  C_1 
REMARK    3  A    between atoms: C_2  and  N_9 
REMARK    4  A    between atoms: C_3  and  C_4 
REMARK    5  A    between atoms: C_12  and  N_8 
ROOT
ATOM      1  N   UNL d   1       0.046  -0.513   1.103  0.00  0.00    -0.356 N 
ATOM      2  N   UNL d   1      -1.926  -1.585   3.019  0.00  0.00    -0.364 N 
ATOM      3  C   UNL d   1      -1.008  -1.484   0.726  0.00  0.00     0.145 C 
ATOM      4  C   UNL d   1      -2.279  -1.489   1.592  0.00  0.00     0.144 C 
ATOM      5  C   UNL d   1      -0.105   0.012   3.533  0.00  0.00     0.040 C 
ATOM      6  C   UNL d   1       0.648  -0.722   2.427  0.00  0.00     0.127 C 
ATOM      7  C   UNL d   1      -1.599  -0.291   3.629  0.00  0.00     0.126 C 
ENDROOT
BRANCH   1   8
ATOM      8  C   UNL d   1       0.742   0.084   0.057  0.00  0.00     0.174 C 
ATOM      9  S   UNL d   1       2.391  -0.022  -0.218  0.00  0.00    -0.041 SA
BRANCH   8  10
ATOM     10  N   UNL d   1      -0.031   0.710  -0.891  0.00  0.00    -0.333 N 
ATOM     11  H   UNL d   1       0.422   0.825  -1.790  0.00  0.00     0.168 HD
BRANCH  10  12
ATOM     12  C   UNL d   1      -1.101   1.605  -0.654  0.00  0.00     0.040 A 
ATOM     13  C   UNL d   1      -1.939   1.962  -1.722  0.00  0.00    -0.035 A 
ATOM     14  C   UNL d   1      -2.864   3.006  -1.547  0.00  0.00     0.015 A 
ATOM     15  C   UNL d   1      -1.869   1.270  -3.054  0.00  0.00     0.050 C 
ATOM     16  C   UNL d   1      -2.990   3.670  -0.321  0.00  0.00    -0.061 A 
ATOM     17  C   UNL d   1      -2.198   3.260   0.752  0.00  0.00     0.009 A 
ATOM     18  C   UNL d   1      -3.902   4.854  -0.195  0.00  0.00     0.048 C 
ATOM     19  C   UNL d   1      -1.262   2.237   0.584  0.00  0.00     0.030 A 
ENDBRANCH  10  12
ENDBRANCH   8  10
ENDBRANCH   1   8
BRANCH   2  20
ATOM     20  C   UNL d   1      -2.662  -2.465   3.812  0.00  0.00     0.125 A 
ATOM     21  N   UNL d   1      -3.899  -2.834   3.388  0.00  0.00    -0.350 N 
ATOM     22  C   UNL d   1      -4.624  -3.693   4.146  0.00  0.00     0.106 A 
ATOM     23  HN  UNL d   1      -4.276  -2.470   2.513  1.00  0.00     0.166 HD
ATOM     24  C   UNL d   1      -4.189  -4.228   5.346  0.00  0.00     0.065 A 
ATOM     25  C   UNL d   1      -2.913  -3.874   5.774  0.00  0.00     0.045 A 
ATOM     26  C   UNL d   1      -2.139  -3.002   5.004  0.00  0.00     0.078 A 
ATOM     27 CL   UNL d   1      -0.526  -2.719   5.559  0.00  0.00    -0.080 Cl
BRANCH  24  28
ATOM     28  C   UNL d   1      -5.062  -5.155   6.128  0.00  0.00     0.418 C 
ATOM     29  F   UNL d   1      -4.501  -5.564   7.300  0.00  0.00    -0.166 F 
ATOM     30  F   UNL d   1      -6.253  -4.588   6.464  0.00  0.00    -0.166 F 
ATOM     31  F   UNL d   1      -5.365  -6.291   5.444  0.00  0.00    -0.166 F 
ENDBRANCH  24  28
ENDBRANCH   2  20
TORSDOF 5
