REMARK  2 active torsions:
REMARK  status: ('A' for Active; 'I' for Inactive)
REMARK    1  A    between atoms: C_7  and  C_3 
REMARK    2  A    between atoms: C_10  and  C_4 
ROOT
ATOM      1  N   UNL d   1       1.279  -0.538  -0.427  0.00  0.00    -0.349 N 
ATOM      2  HN  UNL d   1       2.103  -1.035  -0.767  1.00  0.00     0.166 HD
ATOM      3  C   UNL d   1       1.288   0.763   0.052  0.00  0.00     0.050 A 
ATOM      4  C   UNL d   1       0.062  -1.047  -0.386  0.00  0.00     0.084 A 
ATOM      5  S   UNL d   1      -1.103  -0.040   0.389  0.00  0.00    -0.081 SA
ATOM      6  C   UNL d   1       0.076   1.186   0.562  0.00  0.00     0.082 A 
ENDROOT
BRANCH   3   7
ATOM      7  C   UNL d   1       2.485   1.606   0.005  0.00  0.00    -0.003 A 
ATOM      8  C   UNL d   1       3.404   1.568  -1.066  0.00  0.00    -0.049 A 
ATOM      9  C   UNL d   1       4.534   2.415  -1.031  0.00  0.00     0.014 A 
ATOM     10  C   UNL d   1       3.287   0.668  -2.268  0.00  0.00     0.049 C 
ATOM     11  C   UNL d   1       4.752   3.312   0.020  0.00  0.00    -0.061 A 
ATOM     12  C   UNL d   1       3.834   3.357   1.065  0.00  0.00     0.007 A 
ATOM     13  C   UNL d   1       5.961   4.199   0.007  0.00  0.00     0.048 C 
ATOM     14  C   UNL d   1       2.721   2.510   1.060  0.00  0.00     0.015 A 
ENDBRANCH   3   7
BRANCH   4  15
ATOM     15  C   UNL d   1      -0.302  -2.369  -0.921  0.00  0.00    -0.002 A 
ATOM     16  C   UNL d   1       0.672  -3.378  -0.983  0.00  0.00     0.014 A 
ATOM     17  C   UNL d   1       0.368  -4.643  -1.492  0.00  0.00     0.001 A 
ATOM     18  C   UNL d   1      -0.915  -4.917  -1.960  0.00  0.00     0.000 A 
ATOM     19  C   UNL d   1      -1.889  -3.923  -1.928  0.00  0.00     0.001 A 
ATOM     20  C   UNL d   1      -1.586  -2.659  -1.416  0.00  0.00     0.014 A 
ENDBRANCH   4  15
TORSDOF 2
