REMARK  4 active torsions:
REMARK  status: ('A' for Active; 'I' for Inactive)
REMARK    1  A    between atoms: C_5  and  C_1 
REMARK    2  A    between atoms: N_2  and  C_12 
REMARK       I    between atoms: N_10  and  C_5 
REMARK       I    between atoms: C_9  and  N_11 
REMARK    3  A    between atoms: C_15  and  C_9 
REMARK    4  A    between atoms: N_11  and  N_10 
ROOT
ATOM      1  C   UNL d   1      -3.530   3.546   0.131  0.00  0.00     0.270 C 
ATOM      2  N   UNL d   1      -2.355   2.938  -0.254  0.00  0.00    -0.263 N 
ATOM      3  O   UNL d   1      -3.567   4.476   0.930  0.00  0.00    -0.266 OA
ATOM      4  H   UNL d   1      -2.320   2.059  -0.772  0.00  0.00     0.190 HD
ENDROOT
BRANCH   2   5
ATOM      5  N   UNL d   1      -1.120   3.372   0.284  0.00  0.00    -0.263 N 
ATOM      6  C   UNL d   1       0.006   2.692  -0.142  0.00  0.00     0.274 C 
ATOM      7  O   UNL d   1      -0.126   1.738  -0.919  0.00  0.00    -0.266 OA
ATOM      8  H   UNL d   1      -1.130   4.234   0.821  0.00  0.00     0.190 HD
BRANCH   6   9
ATOM      9  C   UNL d   1       1.315   3.112   0.330  0.00  0.00     0.089 A 
ATOM     10  C   UNL d   1       2.491   2.546  -0.141  0.00  0.00     0.090 A 
ATOM     11  O   UNL d   1       3.558   3.102   0.479  0.00  0.00    -0.242 OA
ATOM     12  C   UNL d   1       2.802   1.497  -1.136  0.00  0.00     0.080 C 
ATOM     13  N   UNL d   1       3.124   4.046   1.375  0.00  0.00    -0.265 N 
ATOM     14  C   UNL d   1       1.786   4.056   1.291  0.00  0.00     0.047 A 
ATOM     15  HN  UNL d   1       3.704   4.625   1.982  1.00  0.00     0.194 HD
ATOM     16  C   UNL d   1       1.060   4.985   2.188  0.00  0.00     0.071 C 
ENDBRANCH   6   9
ENDBRANCH   2   5
BRANCH   1  17
ATOM     17  C   UNL d   1      -4.786   3.004  -0.471  0.00  0.00     0.033 A 
ATOM     18  C   UNL d   1      -5.979   3.091   0.261  0.00  0.00     0.019 A 
ATOM     19  C   UNL d   1      -7.187   2.637  -0.283  0.00  0.00     0.037 A 
ATOM     20  C   UNL d   1      -7.204   2.107  -1.581  0.00  0.00     0.102 A 
ATOM     21  C   UNL d   1      -6.019   2.018  -2.324  0.00  0.00     0.037 A 
ATOM     22  C   UNL d   1      -4.814   2.466  -1.769  0.00  0.00     0.019 A 
BRANCH  20  23
ATOM     23  N   UNL d   1      -8.476   1.659  -2.170  0.00  0.00    -0.116 N 
ATOM     24  O   UNL d   1      -9.494   1.744  -1.473  0.00  0.00    -0.532 OA
ATOM     25  O   UNL d   1      -8.448   1.224  -3.331  0.00  0.00    -0.532 OA
ENDBRANCH  20  23
ENDBRANCH   1  17
TORSDOF 4
