REMARK  2 active torsions:
REMARK  status: ('A' for Active; 'I' for Inactive)
REMARK    1  A    between atoms: C_2  and  C_1 
REMARK    2  A    between atoms: C_14  and  C_8 
ROOT
ATOM      1  C   UNL d   1      -0.304  -1.058   0.063  0.00  0.00     0.179 A 
ATOM      2  O   UNL d   1      -1.107   0.024  -0.211  0.00  0.00    -0.272 OA
ATOM      3  N   UNL d   1       0.913  -0.688   0.415  0.00  0.00    -0.277 N 
ATOM      4  HN  UNL d   1       1.687  -1.305   0.662  1.00  0.00     0.189 HD
ATOM      5  N   UNL d   1       0.941   0.689   0.386  0.00  0.00    -0.277 N 
ATOM      6  HN  UNL d   1       1.738   1.288   0.601  1.00  0.00     0.189 HD
ATOM      7  C   UNL d   1      -0.263   1.077   0.025  0.00  0.00     0.174 A 
ENDROOT
BRANCH   1   8
ATOM      8  C   UNL d   1      -0.746  -2.466  -0.009  0.00  0.00     0.072 A 
ATOM      9  C   UNL d   1      -1.980  -2.919  -0.408  0.00  0.00     0.089 A 
ATOM     10  O   UNL d   1      -1.994  -4.278  -0.324  0.00  0.00    -0.242 OA
ATOM     11  C   UNL d   1      -3.220  -2.283  -0.890  0.00  0.00     0.080 C 
ATOM     12  N   UNL d   1      -0.768  -4.730   0.129  0.00  0.00    -0.265 N 
ATOM     13  C   UNL d   1      -0.019  -3.634   0.315  0.00  0.00     0.045 A 
ATOM     14  HN  UNL d   1      -0.491  -5.698   0.290  1.00  0.00     0.194 HD
ATOM     15  C   UNL d   1       1.372  -3.755   0.809  0.00  0.00     0.071 C 
ENDBRANCH   1   8
BRANCH   7  16
ATOM     16  C   UNL d   1      -0.801   2.422  -0.132  0.00  0.00     0.017 A 
ATOM     17  C   UNL d   1      -2.149   2.651  -0.455  0.00  0.00     0.017 A 
ATOM     18  C   UNL d   1      -2.642   3.954  -0.585  0.00  0.00     0.025 A 
ATOM     19  C   UNL d   1      -1.791   5.040  -0.394  0.00  0.00     0.034 A 
ATOM     20  C   UNL d   1      -0.452   4.835  -0.074  0.00  0.00     0.025 A 
ATOM     21 CL   UNL d   1      -2.399   6.641  -0.551  0.00  0.00    -0.084 Cl
ATOM     22  C   UNL d   1       0.039   3.532   0.057  0.00  0.00     0.017 A 
ENDBRANCH   7  16
TORSDOF 2
