REMARK  6 active torsions:
REMARK  status: ('A' for Active; 'I' for Inactive)
REMARK    1  A    between atoms: N_4  and  C_1 
REMARK    2  A    between atoms: N_5  and  C_2 
REMARK    3  A    between atoms: O_10  and  C_3 
REMARK    4  A    between atoms: C_6  and  C_7 
REMARK    5  A    between atoms: C_22  and  O_10 
REMARK    6  A    between atoms: C_19  and  C_15 
ROOT
ATOM      1  C   UNL d   1       0.161  -3.221   2.253  0.00  0.00     0.140 A 
ATOM      2  C   UNL d   1      -0.848  -1.568   0.872  0.00  0.00     0.140 A 
ATOM      3  C   UNL d   1       0.186  -2.500   1.054  0.00  0.00     0.142 A 
ATOM      4  C   UNL d   1      -1.867  -2.086   3.014  0.00  0.00     0.052 A 
ATOM      5  C   UNL d   1      -1.865  -1.354   1.821  0.00  0.00     0.055 A 
ATOM      6  C   UNL d   1      -0.832  -3.008   3.232  0.00  0.00     0.055 A 
ENDROOT
BRANCH   3   7
ATOM      7  O   UNL d   1       0.998  -2.726  -0.026  0.00  0.00    -0.306 OA
BRANCH   7   8
ATOM      8  C   UNL d   1       2.350  -2.916   0.084  0.00  0.00     0.076 A 
ATOM      9  C   UNL d   1       2.922  -3.616  -0.978  0.00  0.00     0.038 A 
ATOM     10  C   UNL d   1       4.288  -3.909  -0.983  0.00  0.00     0.015 A 
ATOM     11  C   UNL d   1       5.127  -3.500   0.066  0.00  0.00    -0.026 A 
ATOM     12  C   UNL d   1       4.533  -2.766   1.111  0.00  0.00     0.015 A 
ATOM     13  C   UNL d   1       3.166  -2.450   1.110  0.00  0.00     0.038 A 
BRANCH  11  14
ATOM     14  C   UNL d   1       6.577  -3.808   0.055  0.00  0.00    -0.026 A 
ATOM     15  C   UNL d   1       7.280  -4.099   1.238  0.00  0.00     0.012 A 
ATOM     16  C   UNL d   1       8.653  -4.371   1.222  0.00  0.00     0.001 A 
ATOM     17  C   UNL d   1       9.352  -4.372   0.019  0.00  0.00     0.000 A 
ATOM     18  C   UNL d   1       8.680  -4.098  -1.167  0.00  0.00     0.001 A 
ATOM     19  C   UNL d   1       7.311  -3.813  -1.146  0.00  0.00     0.012 A 
ENDBRANCH  11  14
ENDBRANCH   7   8
ENDBRANCH   3   7
BRANCH   2  20
ATOM     20  N   UNL d   1      -0.910  -0.790  -0.354  0.00  0.00    -0.113 N 
ATOM     21  O   UNL d   1       0.049  -0.050  -0.603  0.00  0.00    -0.532 OA
ATOM     22  O   UNL d   1      -1.948  -0.886  -1.024  0.00  0.00    -0.532 OA
ENDBRANCH   2  20
BRANCH   1  23
ATOM     23  N   UNL d   1       1.107  -4.281   2.542  0.00  0.00    -0.113 N 
ATOM     24  O   UNL d   1       1.098  -5.265   1.795  0.00  0.00    -0.532 OA
ATOM     25  O   UNL d   1       1.793  -4.145   3.561  0.00  0.00    -0.532 OA
ENDBRANCH   1  23
BRANCH   4  26
ATOM     26  C   UNL d   1      -2.966  -1.933   4.041  0.00  0.00     0.417 C 
ATOM     27  F   UNL d   1      -3.920  -1.035   3.680  0.00  0.00    -0.166 F 
ATOM     28  F   UNL d   1      -3.614  -3.107   4.268  0.00  0.00    -0.166 F 
ATOM     29  F   UNL d   1      -2.489  -1.523   5.245  0.00  0.00    -0.166 F 
ENDBRANCH   4  26
TORSDOF 6
