REMARK  2 active torsions:
REMARK  status: ('A' for Active; 'I' for Inactive)
REMARK    1  A    between atoms: C_7  and  C_1 
REMARK    2  A    between atoms: C_8  and  C_3 
ROOT
ATOM      1  C   UNL d   1       0.646   1.273  -0.028  0.00  0.00     0.103 A 
ATOM      2  S   UNL d   1       1.387  -0.276  -0.066  0.00  0.00    -0.065 SA
ATOM      3  C   UNL d   1      -0.144  -1.039  -0.005  0.00  0.00     0.074 A 
ATOM      4  N   UNL d   1      -0.673   1.242  -0.004  0.00  0.00    -0.351 N 
ATOM      5  HN  UNL d   1      -1.272   2.068   0.014  1.00  0.00     0.166 HD
ATOM      6  C   UNL d   1      -1.136  -0.067  -0.007  0.00  0.00     0.027 A 
ATOM      7  C   UNL d   1      -2.609  -0.282   0.011  0.00  0.00     0.070 C 
ENDROOT
BRANCH   1   8
ATOM      8  C   UNL d   1       1.453   2.500  -0.025  0.00  0.00     0.081 A 
ATOM      9  N   UNL d   1       2.808   2.376  -0.064  0.00  0.00    -0.361 N 
ATOM     10  C   UNL d   1       3.507   3.535  -0.061  0.00  0.00     0.105 A 
ATOM     11  HN  UNL d   1       3.269   1.466  -0.094  1.00  0.00     0.165 HD
ATOM     12  C   UNL d   1       2.895   4.774  -0.019  0.00  0.00     0.104 A 
ATOM     13  N   UNL d   1       1.552   4.916   0.023  0.00  0.00    -0.372 N 
ATOM     14  C   UNL d   1       0.848   3.752   0.020  0.00  0.00     0.120 A 
ATOM     15  HN  UNL d   1       1.099   5.830   0.056  1.00  0.00     0.164 HD
ENDBRANCH   1   8
BRANCH   3  16
ATOM     16  C   UNL d   1      -0.304  -2.485   0.015  0.00  0.00     0.164 C 
ATOM     17  O   UNL d   1      -1.395  -3.023  -0.196  0.00  0.00    -0.292 OA
ATOM     18  C   UNL d   1       0.884  -3.377   0.303  0.00  0.00     0.097 C 
ENDBRANCH   3  16
TORSDOF 2
