REMARK  4 active torsions:
REMARK  status: ('A' for Active; 'I' for Inactive)
REMARK    1  A    between atoms: C_7  and  C_1 
REMARK    2  A    between atoms: C_2  and  C_7 
REMARK       I    between atoms: N_3  and  C_2 
REMARK    3  A    between atoms: C_15  and  N_3 
REMARK    4  A    between atoms: O_21  and  C_16 
ROOT
ATOM      1  C   UNL d   1       1.219   1.585   3.940  0.00  0.00     0.222 C 
ATOM      2  N   UNL d   1       0.969   2.824   4.517  0.00  0.00    -0.327 N 
ATOM      3  O   UNL d   1       1.219   0.511   4.526  0.00  0.00    -0.273 OA
ATOM      4  H   UNL d   1       0.869   3.615   3.896  0.00  0.00     0.169 HD
ENDROOT
BRANCH   1   5
ATOM      5  C   UNL d   1       1.569   1.690   2.457  0.00  0.00     0.112 C 
BRANCH   5   6
ATOM      6  C   UNL d   1       1.020   0.586   1.517  0.00  0.00    -0.031 C 
ATOM      7  C   UNL d   1      -0.529   0.569   1.535  0.00  0.00     0.014 C 
ATOM      8  C   UNL d   1      -1.078  -0.432   0.502  0.00  0.00    -0.013 C 
ATOM      9  C   UNL d   1      -0.587  -0.033  -0.900  0.00  0.00     0.009 C 
ATOM     10  C   UNL d   1      -0.566  -1.841   0.840  0.00  0.00     0.009 C 
ATOM     11  C   UNL d   1       0.948  -0.071  -0.950  0.00  0.00    -0.013 C 
ATOM     12  C   UNL d   1       1.502   0.927   0.076  0.00  0.00     0.014 C 
ATOM     13  C   UNL d   1       1.443  -1.481  -0.600  0.00  0.00     0.009 C 
ATOM     14  C   UNL d   1       0.972  -1.863   0.811  0.00  0.00    -0.013 C 
ATOM     15  C   UNL d   1       1.523  -0.847   1.837  0.00  0.00     0.014 C 
ENDBRANCH   5   6
ENDBRANCH   1   5
BRANCH   2  16
ATOM     16  C   UNL d   1       0.683   3.075   5.880  0.00  0.00     0.034 A 
ATOM     17  C   UNL d   1       0.876   2.138   6.894  0.00  0.00     0.032 A 
ATOM     18  C   UNL d   1       0.518   2.427   8.217  0.00  0.00     0.039 A 
ATOM     19  C   UNL d   1      -0.042   3.661   8.541  0.00  0.00     0.068 A 
ATOM     20  C   UNL d   1      -0.182   4.624   7.542  0.00  0.00     0.039 A 
ATOM     21  C   UNL d   1       0.183   4.336   6.220  0.00  0.00     0.032 A 
BRANCH  19  22
ATOM     22  O   UNL d   1      -0.468   4.038   9.784  0.00  0.00    -0.356 OA
ATOM     23  C   UNL d   1      -0.699   2.980  10.710  0.00  0.00     0.210 C 
ENDBRANCH  19  22
ENDBRANCH   2  16
TORSDOF 4
