REMARK  5 active torsions:
REMARK  status: ('A' for Active; 'I' for Inactive)
REMARK    1  A    between atoms: C_2  and  S_1 
REMARK    2  A    between atoms: N_4  and  S_1 
REMARK    3  A    between atoms: N_3  and  C_11 
REMARK    4  A    between atoms: O_6  and  C_5 
REMARK    5  A    between atoms: C_13  and  O_6 
ROOT
ATOM      1  C   UNL d   1       0.779  -0.311   1.754  0.00  0.00     0.078 A 
ATOM      2  C   UNL d   1      -0.289  -0.821   4.297  0.00  0.00     0.119 A 
ATOM      3  C   UNL d   1       0.135   0.475   3.946  0.00  0.00     0.071 A 
ATOM      4  C   UNL d   1      -0.085  -1.872   3.385  0.00  0.00     0.071 A 
ATOM      5  C   UNL d   1       0.461  -1.629   2.120  0.00  0.00     0.051 A 
ATOM      6  C   UNL d   1       0.629   0.728   2.670  0.00  0.00     0.051 A 
ATOM      7 CL   UNL d   1      -0.520  -3.499   3.771  0.00  0.00    -0.081 Cl
ATOM      8 CL   UNL d   1       0.110   1.829   5.025  0.00  0.00    -0.081 Cl
ENDROOT
BRANCH   2   9
ATOM      9  O   UNL d   1      -0.863  -1.139   5.514  0.00  0.00    -0.306 OA
BRANCH   9  10
ATOM     10  C   UNL d   1      -1.884  -0.335   5.989  0.00  0.00     0.098 A 
ATOM     11  C   UNL d   1      -1.956  -0.102   7.371  0.00  0.00     0.070 A 
ATOM     12  C   UNL d   1      -2.907   0.783   7.889  0.00  0.00     0.062 A 
ATOM     13 CL   UNL d   1      -0.850  -0.847   8.467  0.00  0.00    -0.081 Cl
ATOM     14  C   UNL d   1      -3.777   1.443   7.011  0.00  0.00     0.104 A 
ATOM     15  C   UNL d   1      -3.723   1.204   5.633  0.00  0.00     0.039 A 
ATOM     16  C   UNL d   1      -2.805   0.281   5.130  0.00  0.00     0.041 A 
BRANCH  14  17
ATOM     17  N   UNL d   1      -4.766   2.393   7.533  0.00  0.00    -0.116 N 
ATOM     18  O   UNL d   1      -4.852   2.516   8.765  0.00  0.00    -0.532 OA
ATOM     19  O   UNL d   1      -5.457   3.010   6.713  0.00  0.00    -0.532 OA
ENDBRANCH  14  17
ENDBRANCH   9  10
ENDBRANCH   2   9
BRANCH   1  20
ATOM     20  S   UNL d   1       1.464   0.039   0.171  0.00  0.00     0.243 S 
ATOM     21  O   UNL d   1       2.045  -1.198  -0.320  0.00  0.00    -0.206 OA
ATOM     22  O   UNL d   1       2.274   1.233   0.297  0.00  0.00    -0.206 OA
BRANCH  20  23
ATOM     23  N   UNL d   1       0.080   0.381  -0.766  0.00  0.00    -0.206 NA
ATOM     24  C   UNL d   1      -0.696   1.610  -0.465  0.00  0.00     0.108 C 
ATOM     25  C   UNL d   1      -0.007   2.863  -0.995  0.00  0.00     0.020 C 
ATOM     26  C   UNL d   1       0.402   2.745  -2.472  0.00  0.00    -0.016 C 
ATOM     27  C   UNL d   1       1.043   1.389  -2.807  0.00  0.00     0.020 C 
ATOM     28  C   UNL d   1       1.358   3.878  -2.846  0.00  0.00     0.010 C 
ATOM     29  C   UNL d   1       0.253   0.222  -2.234  0.00  0.00     0.108 C 
ENDBRANCH  20  23
ENDBRANCH   1  20
TORSDOF 5
