REMARK  5 active torsions:
REMARK  status: ('A' for Active; 'I' for Inactive)
REMARK       I    between atoms: N_2  and  C_1 
REMARK    1  A    between atoms: C_3  and  C_1 
REMARK    2  A    between atoms: C_13  and  N_2 
REMARK    3  A    between atoms: C_4  and  C_13 
REMARK    4  A    between atoms: O_14  and  C_4 
REMARK    5  A    between atoms: C_5  and  C_6 
ROOT
ATOM      1  C   UNL d   1       0.260  -1.086   0.468  0.00  0.00     0.032 A 
ATOM      2  C   UNL d   1      -1.238  -3.174   1.673  0.00  0.00    -0.051 A 
ATOM      3  C   UNL d   1       0.687  -1.658   1.669  0.00  0.00     0.017 A 
ATOM      4  C   UNL d   1      -0.926  -1.530  -0.116  0.00  0.00     0.017 A 
ATOM      5  C   UNL d   1      -1.662  -2.563   0.479  0.00  0.00     0.009 A 
ATOM      6  C   UNL d   1      -0.054  -2.687   2.260  0.00  0.00     0.009 A 
ENDROOT
BRANCH   1   7
ATOM      7  C   UNL d   1       1.026  -0.000  -0.201  0.00  0.00     0.252 C 
ATOM      8  N   UNL d   1       2.383  -0.001   0.011  0.00  0.00    -0.347 N 
ATOM      9  H   UNL d   1       2.840  -0.788   0.463  0.00  0.00     0.163 HD
ATOM     10  O   UNL d   1       0.467   0.821  -0.917  0.00  0.00    -0.268 OA
BRANCH   8  11
ATOM     11  C   UNL d   1       3.241   0.999  -0.589  0.00  0.00     0.232 C 
BRANCH  11  12
ATOM     12  C   UNL d   1       4.684   0.760  -0.168  0.00  0.00     0.158 C 
ATOM     13  O   UNL d   1       5.045  -0.155   0.558  0.00  0.00    -0.649 OA
BRANCH  12  14
ATOM     14  O   UNL d   1       5.551   1.662  -0.687  0.00  0.00    -0.775 OA
ATOM     15  H   UNL d   1       5.132   2.336  -1.256  0.00  0.00     0.167 HD
ENDBRANCH  12  14
ENDBRANCH  11  12
ENDBRANCH   8  11
ENDBRANCH   1   7
BRANCH   2  16
ATOM     16  C   UNL d   1      -2.004  -4.341   2.323  0.00  0.00    -0.024 C 
ATOM     17  C   UNL d   1      -3.264  -4.759   1.532  0.00  0.00     0.019 C 
ATOM     18  C   UNL d   1      -1.082  -5.577   2.409  0.00  0.00     0.019 C 
ATOM     19  C   UNL d   1      -2.463  -3.966   3.748  0.00  0.00     0.019 C 
ENDBRANCH   2  16
TORSDOF 5
