REMARK  9 active torsions:
REMARK  status: ('A' for Active; 'I' for Inactive)
REMARK    1  A    between atoms: C_3  and  N_1 
REMARK    2  A    between atoms: C_9  and  N_2 
REMARK    3  A    between atoms: C_7  and  C_3 
REMARK    4  A    between atoms: C_8  and  C_3 
REMARK    5  A    between atoms: S_6  and  C_14 
REMARK    6  A    between atoms: C_13  and  S_6 
REMARK    7  A    between atoms: C_12  and  C_9 
REMARK    8  A    between atoms: C_14  and  C_12 
REMARK    9  A    between atoms: O_21  and  C_12 
ROOT
ATOM      1  N   UNL d   1      -1.641   0.320   0.212  0.00  0.00     0.105 N 
ATOM      2  N   UNL d   1       1.375   0.015  -0.293  0.00  0.00     0.094 N 
ATOM      3  C   UNL d   1      -1.009  -0.898  -0.343  0.00  0.00     0.304 C 
ATOM      4  C   UNL d   1      -0.778   1.460  -0.199  0.00  0.00     0.304 C 
ATOM      5  C   UNL d   1       0.464  -1.096   0.092  0.00  0.00     0.302 C 
ATOM      6  C   UNL d   1       0.745   1.302   0.091  0.00  0.00     0.302 C 
ENDROOT
BRANCH   1   7
ATOM      7  C   UNL d   1      -1.823   0.247   1.696  0.00  0.00     0.289 C 
BRANCH   7   8
ATOM      8  C   UNL d   1      -2.516   1.488   2.269  0.00  0.00    -0.021 A 
ATOM      9  C   UNL d   1      -3.801   1.870   1.849  0.00  0.00     0.010 A 
ATOM     10  C   UNL d   1      -4.442   2.968   2.424  0.00  0.00     0.001 A 
ATOM     11  C   UNL d   1      -3.802   3.709   3.415  0.00  0.00     0.000 A 
ATOM     12  C   UNL d   1      -2.519   3.357   3.829  0.00  0.00     0.001 A 
ATOM     13  C   UNL d   1      -1.881   2.253   3.263  0.00  0.00     0.010 A 
ENDBRANCH   7   8
BRANCH   7  14
ATOM     14  C   UNL d   1      -2.550  -1.017   2.201  0.00  0.00    -0.021 A 
ATOM     15  C   UNL d   1      -2.142  -1.614   3.407  0.00  0.00     0.010 A 
ATOM     16  C   UNL d   1      -2.793  -2.750   3.904  0.00  0.00     0.001 A 
ATOM     17  C   UNL d   1      -3.864  -3.300   3.204  0.00  0.00     0.000 A 
ATOM     18  C   UNL d   1      -4.294  -2.715   2.021  0.00  0.00     0.001 A 
ATOM     19  C   UNL d   1      -3.650  -1.573   1.526  0.00  0.00     0.010 A 
ENDBRANCH   7  14
ENDBRANCH   1   7
BRANCH   2  20
ATOM     20  C   UNL d   1       1.685  -0.095  -1.729  0.00  0.00     0.304 C 
BRANCH  20  21
ATOM     21  C   UNL d   1       2.713   0.865  -2.378  0.00  0.00     0.156 C 
BRANCH  21  22
ATOM     22  C   UNL d   1       4.127   0.843  -1.755  0.00  0.00     0.113 C 
BRANCH  22  23
ATOM     23  S   UNL d   1       5.189   2.069  -2.649  0.00  0.00    -0.127 SA
BRANCH  23  24
ATOM     24  C   UNL d   1       6.776   2.007  -1.835  0.00  0.00     0.000 A 
ATOM     25  C   UNL d   1       7.915   2.267  -2.620  0.00  0.00     0.021 A 
ATOM     26  C   UNL d   1       9.186   2.349  -2.041  0.00  0.00     0.043 A 
ATOM     27  C   UNL d   1       9.320   2.179  -0.672  0.00  0.00     0.116 A 
ATOM     28  C   UNL d   1       8.209   1.923   0.124  0.00  0.00     0.043 A 
ATOM     29  F   UNL d   1      10.531   2.276  -0.107  0.00  0.00    -0.206 F 
ATOM     30  C   UNL d   1       6.938   1.838  -0.457  0.00  0.00     0.021 A 
ENDBRANCH  23  24
ENDBRANCH  22  23
ENDBRANCH  21  22
BRANCH  21  31
ATOM     31  O   UNL d   1       2.775   0.492  -3.771  0.00  0.00    -0.393 OA
ATOM     32  H   UNL d   1       3.168  -0.397  -3.826  0.00  0.00     0.210 HD
ENDBRANCH  21  31
ENDBRANCH  20  21
ENDBRANCH   2  20
TORSDOF 9
