REMARK  5 active torsions:
REMARK  status: ('A' for Active; 'I' for Inactive)
REMARK       I    between atoms: C_2  and  N_10 
REMARK    1  A    between atoms: C_6  and  C_2 
REMARK    2  A    between atoms: N_11  and  C_3 
REMARK    3  A    between atoms: N_10  and  N_11 
REMARK    4  A    between atoms: O_22  and  C_12 
REMARK    5  A    between atoms: O_23  and  C_13 
ROOT
ATOM      1  C   UNL d   1       0.257   0.861   0.101  0.00  0.00     0.033 A 
ATOM      2  C   UNL d   1      -0.998   1.496   0.214  0.00  0.00     0.112 A 
ATOM      3  C   UNL d   1       0.235  -0.527  -0.049  0.00  0.00     0.049 A 
ATOM      4  C   UNL d   1       1.497   1.541   0.130  0.00  0.00     0.056 A 
ATOM      5  C   UNL d   1       1.454  -1.187  -0.204  0.00  0.00     0.070 A 
ATOM      6  N   UNL d   1      -2.156   0.810   0.240  0.00  0.00    -0.341 N 
ATOM      7  HN  UNL d   1      -3.057   1.272   0.362  1.00  0.00     0.167 HD
ATOM      8  C   UNL d   1       2.713   0.879  -0.036  0.00  0.00     0.102 A 
ATOM      9  C   UNL d   1       2.684  -0.504  -0.196  0.00  0.00     0.103 A 
ATOM     10  N   UNL d   1      -0.913  -1.218  -0.055  0.00  0.00    -0.351 N 
ATOM     11  HN  UNL d   1      -0.923  -2.231  -0.168  1.00  0.00     0.166 HD
ATOM     12  C   UNL d   1      -2.049  -0.519   0.095  0.00  0.00     0.182 A 
ENDROOT
BRANCH   2  13
ATOM     13  N   UNL d   1      -1.010   2.909   0.362  0.00  0.00    -0.187 NA
ATOM     14  H   UNL d   1      -0.439   3.355  -0.361  0.00  0.00     0.154 HD
BRANCH  13  15
ATOM     15  N   UNL d   1      -2.282   3.503   0.410  0.00  0.00    -0.280 N 
ATOM     16  C   UNL d   1      -2.285   4.891   0.486  0.00  0.00     0.289 C 
ATOM     17  O   UNL d   1      -1.304   5.559   0.148  0.00  0.00    -0.264 OA
ATOM     18  H   UNL d   1      -3.027   2.951   0.830  0.00  0.00     0.184 HD
BRANCH  16  19
ATOM     19  C   UNL d   1      -3.495   5.473   1.013  0.00  0.00     0.143 A 
ATOM     20  O   UNL d   1      -4.592   4.688   1.248  0.00  0.00    -0.317 OA
ATOM     21  C   UNL d   1      -5.561   5.500   1.747  0.00  0.00     0.143 A 
ATOM     22  C   UNL d   1      -5.105   6.792   1.853  0.00  0.00     0.027 A 
ATOM     23  C   UNL d   1      -3.775   6.779   1.376  0.00  0.00     0.045 A 
ENDBRANCH  16  19
ENDBRANCH  13  15
ENDBRANCH   2  13
BRANCH   8  24
ATOM     24  O   UNL d   1       3.768   1.742  -0.030  0.00  0.00    -0.353 OA
ATOM     25  C   UNL d   1       5.087   1.241  -0.154  0.00  0.00     0.210 C 
ENDBRANCH   8  24
BRANCH   9  26
ATOM     26  O   UNL d   1       3.814  -1.227  -0.469  0.00  0.00    -0.353 OA
ATOM     27  C   UNL d   1       4.347  -1.841   0.704  0.00  0.00     0.210 C 
ENDBRANCH   9  26
TORSDOF 5
