REMARK  4 active torsions:
REMARK  status: ('A' for Active; 'I' for Inactive)
REMARK    1  A    between atoms: C_2  and  C_1 
REMARK       I    between atoms: N_6  and  C_2 
REMARK    2  A    between atoms: C_16  and  C_5 
REMARK    3  A    between atoms: C_12  and  C_9 
REMARK    4  A    between atoms: O_19  and  C_9 
ROOT
ATOM      1  C   UNL d   1       0.158  -2.566   0.155  0.00  0.00     0.258 C 
ATOM      2  N   UNL d   1      -0.609  -3.700  -0.141  0.00  0.00    -0.348 N 
ATOM      3  C   UNL d   1      -1.385  -6.418  -0.934  0.00  0.00     0.088 C 
ATOM      4  C   UNL d   1      -1.206  -5.271  -1.950  0.00  0.00     0.063 C 
ATOM      5  C   UNL d   1      -0.495  -6.127   0.293  0.00  0.00     0.063 C 
ATOM      6  C   UNL d   1      -0.750  -4.738   0.878  0.00  0.00     0.129 C 
ATOM      7  C   UNL d   1      -1.423  -3.904  -1.329  0.00  0.00     0.129 C 
ATOM      8  O   UNL d   1       0.888  -2.540   1.146  0.00  0.00    -0.267 OA
ENDROOT
BRANCH   1   9
ATOM      9  C   UNL d   1       0.141  -1.414  -0.735  0.00  0.00     0.092 A 
ATOM     10  C   UNL d   1      -0.917  -0.676  -1.362  0.00  0.00     0.083 A 
ATOM     11  N   UNL d   1      -0.415   0.310  -2.124  0.00  0.00    -0.259 N 
ATOM     12  O   UNL d   1       0.945   0.301  -1.929  0.00  0.00    -0.241 OA
ATOM     13  HN  UNL d   1      -0.940   0.942  -2.728  1.00  0.00     0.195 HD
ATOM     14  C   UNL d   1       1.275  -0.701  -1.080  0.00  0.00     0.090 A 
ATOM     15  C   UNL d   1       2.706  -0.808  -0.731  0.00  0.00     0.080 C 
BRANCH  10  16
ATOM     16  C   UNL d   1      -2.367  -0.867  -1.291  0.00  0.00    -0.006 A 
ATOM     17  C   UNL d   1      -3.150  -0.714  -2.447  0.00  0.00     0.014 A 
ATOM     18  C   UNL d   1      -4.520  -0.978  -2.419  0.00  0.00     0.001 A 
ATOM     19  C   UNL d   1      -5.123  -1.394  -1.234  0.00  0.00     0.000 A 
ATOM     20  C   UNL d   1      -4.362  -1.527  -0.074  0.00  0.00     0.001 A 
ATOM     21  C   UNL d   1      -2.991  -1.252  -0.097  0.00  0.00     0.014 A 
ENDBRANCH  10  16
ENDBRANCH   1   9
BRANCH   3  22
ATOM     22  C   UNL d   1      -1.097  -7.739  -1.660  0.00  0.00    -0.024 A 
ATOM     23  C   UNL d   1      -0.060  -8.605  -1.274  0.00  0.00     0.012 A 
ATOM     24  C   UNL d   1       0.247  -9.744  -2.027  0.00  0.00     0.024 A 
ATOM     25  C   UNL d   1      -0.493 -10.040  -3.171  0.00  0.00     0.034 A 
ATOM     26  C   UNL d   1      -1.555  -9.232  -3.547  0.00  0.00     0.024 A 
ATOM     27 CL   UNL d   1      -0.077 -11.411  -4.127  0.00  0.00    -0.084 Cl
ATOM     28  C   UNL d   1      -1.860  -8.095  -2.792  0.00  0.00     0.012 A 
ENDBRANCH   3  22
BRANCH   3  29
ATOM     29  O   UNL d   1      -2.747  -6.403  -0.482  0.00  0.00    -0.385 OA
ATOM     30  H   UNL d   1      -3.221  -7.154  -0.875  0.00  0.00     0.211 HD
ENDBRANCH   3  29
TORSDOF 4
