REMARK  4 active torsions:
REMARK  status: ('A' for Active; 'I' for Inactive)
REMARK    1  A    between atoms: S_2  and  N_1 
REMARK    2  A    between atoms: C_7  and  S_2 
REMARK    3  A    between atoms: C_11  and  C_6 
REMARK    4  A    between atoms: C_14  and  C_11 
ROOT
ATOM      1  N   UNL d   1       0.603   1.239  -0.083  0.00  0.00    -0.141 N 
ATOM      2  N   UNL d   1      -0.853   1.150  -0.002  0.00  0.00    -0.289 N 
ATOM      3  HN  UNL d   1      -1.516   1.925   0.028  1.00  0.00     0.187 HD
ATOM      4  C   UNL d   1       1.199  -0.038  -0.050  0.00  0.00     0.262 A 
ATOM      5  C   UNL d   1       0.071  -1.038   0.073  0.00  0.00     0.131 A 
ATOM      6  C   UNL d   1      -1.131  -0.117   0.023  0.00  0.00     0.014 A 
ATOM      7  O   UNL d   1       2.392  -0.278  -0.129  0.00  0.00    -0.270 OA
ATOM      8  C   UNL d   1      -2.534  -0.630  -0.004  0.00  0.00     0.066 C 
ENDROOT
BRANCH   1   9
ATOM      9  S   UNL d   1       1.405   2.691   0.202  0.00  0.00     0.286 S 
ATOM     10  O   UNL d   1       0.582   3.808  -0.218  0.00  0.00    -0.198 OA
ATOM     11  O   UNL d   1       1.902   2.640   1.564  0.00  0.00    -0.198 OA
BRANCH   9  12
ATOM     12  C   UNL d   1       2.809   2.674  -0.884  0.00  0.00     0.103 A 
ATOM     13  C   UNL d   1       2.667   2.558  -2.268  0.00  0.00     0.057 A 
ATOM     14 CL   UNL d   1       1.154   2.345  -3.071  0.00  0.00    -0.083 Cl
ATOM     15  C   UNL d   1       3.808   2.611  -3.080  0.00  0.00     0.025 A 
ATOM     16  C   UNL d   1       5.074   2.787  -2.519  0.00  0.00     0.002 A 
ATOM     17  C   UNL d   1       5.212   2.906  -1.139  0.00  0.00     0.002 A 
ATOM     18  C   UNL d   1       4.084   2.847  -0.320  0.00  0.00     0.027 A 
ENDBRANCH   9  12
ENDBRANCH   1   9
BRANCH   5  19
ATOM     19  C   UNL d   1       0.111  -1.796   1.403  0.00  0.00     0.053 C 
BRANCH  19  20
ATOM     20  C   UNL d   1       1.343  -2.643   1.634  0.00  0.00    -0.092 C 
ATOM     21  C   UNL d   1       2.166  -2.421   2.673  0.00  0.00     0.014 C 
ATOM     22  C   UNL d   1       1.631  -3.765   0.678  0.00  0.00     0.042 C 
ENDBRANCH  19  20
ENDBRANCH   5  19
TORSDOF 4
