REMARK  6 active torsions:
REMARK  status: ('A' for Active; 'I' for Inactive)
REMARK    1  A    between atoms: S_3  and  C_1 
REMARK    2  A    between atoms: C_7  and  C_2 
REMARK    3  A    between atoms: N_11  and  S_3 
REMARK    4  A    between atoms: C_10  and  N_6 
REMARK    5  A    between atoms: O_15  and  C_7 
REMARK    6  A    between atoms: C_18  and  O_15 
ROOT
ATOM      1  C   UNL d   1      -0.134  -1.124  -0.017  0.00  0.00     0.115 A 
ATOM      2  C   UNL d   1       1.193  -0.605  -0.024  0.00  0.00     0.086 A 
ATOM      3  C   UNL d   1      -1.026  -0.052  -0.024  0.00  0.00     0.037 A 
ATOM      4  C   UNL d   1       1.066   0.788  -0.029  0.00  0.00     0.031 A 
ATOM      5  N   UNL d   1      -0.288   1.128  -0.087  0.00  0.00    -0.317 N 
ATOM      6  C   UNL d   1       2.154   1.808   0.145  0.00  0.00     0.070 C 
ATOM      7  C   UNL d   1      -2.523  -0.109  -0.052  0.00  0.00     0.070 C 
ENDROOT
BRANCH   1   8
ATOM      8  S   UNL d   1      -0.636  -2.794  -0.006  0.00  0.00     0.242 S 
ATOM      9  O   UNL d   1      -1.257  -2.951   1.285  0.00  0.00    -0.206 OA
ATOM     10  O   UNL d   1      -1.357  -2.931  -1.252  0.00  0.00    -0.206 OA
BRANCH   8  11
ATOM     11  N   UNL d   1       0.633  -3.864  -0.107  0.00  0.00    -0.225 NA
ATOM     12  H   UNL d   1       1.402  -3.635   0.536  0.00  0.00     0.136 HD
ATOM     13  H   UNL d   1       0.935  -4.010  -1.067  0.00  0.00     0.136 HD
ENDBRANCH   8  11
ENDBRANCH   1   8
BRANCH   2  14
ATOM     14  C   UNL d   1       2.460  -1.328   0.072  0.00  0.00     0.296 C 
ATOM     15  O   UNL d   1       2.569  -2.406   0.643  0.00  0.00    -0.259 OA
BRANCH  14  16
ATOM     16  O   UNL d   1       3.499  -0.658  -0.502  0.00  0.00    -0.318 OA
BRANCH  16  17
ATOM     17  C   UNL d   1       4.824  -1.083  -0.152  0.00  0.00     0.174 C 
ATOM     18  C   UNL d   1       5.543  -1.617  -1.373  0.00  0.00     0.034 C 
ENDBRANCH  16  17
ENDBRANCH  14  16
ENDBRANCH   2  14
BRANCH   5  19
ATOM     19  C   UNL d   1      -0.813   2.458  -0.185  0.00  0.00     0.039 A 
ATOM     20  C   UNL d   1      -1.937   2.846   0.554  0.00  0.00     0.030 A 
ATOM     21  C   UNL d   1      -2.452   4.140   0.433  0.00  0.00     0.002 A 
ATOM     22  C   UNL d   1      -1.836   5.063  -0.410  0.00  0.00     0.000 A 
ATOM     23  C   UNL d   1      -0.708   4.692  -1.136  0.00  0.00     0.002 A 
ATOM     24  C   UNL d   1      -0.201   3.394  -1.032  0.00  0.00     0.030 A 
ENDBRANCH   5  19
TORSDOF 6
