REMARK  4 active torsions:
REMARK  status: ('A' for Active; 'I' for Inactive)
REMARK    1  A    between atoms: N_2  and  S_1 
REMARK    2  A    between atoms: C_6  and  S_1 
REMARK    3  A    between atoms: N_3  and  N_2 
REMARK       I    between atoms: C_4  and  N_3 
REMARK    4  A    between atoms: C_5  and  C_4 
ROOT
ATOM      1  N   UNL d   1       0.484   1.346  -0.808  0.00  0.00    -0.220 N 
ATOM      2  H   UNL d   1      -0.235   1.232  -1.529  0.00  0.00     0.200 HD
ENDROOT
BRANCH   1   3
ATOM      3  S   UNL d   1       1.064   0.042   0.088  0.00  0.00     0.276 S 
ATOM      4  O   UNL d   1       0.471   0.135   1.406  0.00  0.00    -0.199 OA
ATOM      5  O   UNL d   1       2.504   0.027  -0.063  0.00  0.00    -0.199 OA
BRANCH   3   6
ATOM      6  C   UNL d   1       0.390  -1.373  -0.733  0.00  0.00     0.081 A 
ATOM      7  C   UNL d   1       1.150  -2.031  -1.703  0.00  0.00     0.026 A 
ATOM      8  C   UNL d   1       0.680  -3.225  -2.252  0.00  0.00     0.008 A 
ATOM      9  C   UNL d   1      -0.541  -3.770  -1.832  0.00  0.00    -0.062 A 
ATOM     10  C   UNL d   1      -1.296  -3.096  -0.862  0.00  0.00     0.008 A 
ATOM     11  C   UNL d   1      -1.008  -5.080  -2.399  0.00  0.00     0.048 C 
ATOM     12  C   UNL d   1      -0.832  -1.901  -0.308  0.00  0.00     0.026 A 
ENDBRANCH   3   6
ENDBRANCH   1   3
BRANCH   1  13
ATOM     13  N   UNL d   1       0.862   2.677  -0.378  0.00  0.00    -0.256 N 
ATOM     14  C   UNL d   1       0.273   3.777  -0.968  0.00  0.00     0.272 C 
ATOM     15  O   UNL d   1      -0.516   3.681  -1.904  0.00  0.00    -0.266 OA
ATOM     16  H   UNL d   1       1.544   2.725   0.373  0.00  0.00     0.191 HD
BRANCH  14  17
ATOM     17  C   UNL d   1       0.632   5.108  -0.406  0.00  0.00     0.049 A 
ATOM     18  C   UNL d   1       0.209   6.249  -1.081  0.00  0.00     0.104 A 
ATOM     19  N   UNL d   1       0.451   7.518  -0.659  0.00  0.00    -0.374 N 
ATOM     20  C   UNL d   1       1.140   7.658   0.492  0.00  0.00     0.087 A 
ATOM     21  HN  UNL d   1       0.126   8.327  -1.188  1.00  0.00     0.164 HD
ATOM     22  C   UNL d   1       1.604   6.589   1.240  0.00  0.00     0.018 A 
ATOM     23  C   UNL d   1       1.345   5.296   0.784  0.00  0.00     0.020 A 
ENDBRANCH  14  17
ENDBRANCH   1  13
TORSDOF 4
