REMARK  3 active torsions:
REMARK  status: ('A' for Active; 'I' for Inactive)
REMARK    1  A    between atoms: O_5  and  C_3 
REMARK    2  A    between atoms: C_4  and  O_5 
REMARK    3  A    between atoms: C_9  and  C_4 
ROOT
ATOM      1  C   UNL d   1      -1.092   1.848  -2.878  0.00  0.00     0.293 C 
ATOM      2  O   UNL d   1      -0.695   2.432  -1.883  0.00  0.00    -0.259 OA
ENDROOT
BRANCH   1   3
ATOM      3  O   UNL d   1      -0.557   0.701  -3.376  0.00  0.00    -0.309 OA
BRANCH   3   4
ATOM      4  C   UNL d   1       0.593   0.189  -2.666  0.00  0.00     0.174 A 
ATOM      5  C   UNL d   1       1.950   0.745  -3.029  0.00  0.00     0.142 A 
ATOM      6  C   UNL d   1       1.550  -0.635  -3.480  0.00  0.00     0.080 A 
ATOM      7 CL   UNL d   1       2.105   1.977  -4.276  0.00  0.00    -0.099 Cl
ATOM      8 CL   UNL d   1       3.155   0.874  -1.754  0.00  0.00    -0.099 Cl
ENDBRANCH   3   4
ENDBRANCH   1   3
BRANCH   1   9
ATOM      9  C   UNL d   1      -2.225   2.318  -3.719  0.00  0.00     0.039 A 
ATOM     10  C   UNL d   1      -2.857   3.517  -3.364  0.00  0.00     0.017 A 
ATOM     11  C   UNL d   1      -3.915   4.009  -4.131  0.00  0.00     0.001 A 
ATOM     12  C   UNL d   1      -4.347   3.305  -5.254  0.00  0.00     0.000 A 
ATOM     13  C   UNL d   1      -3.726   2.108  -5.610  0.00  0.00     0.001 A 
ATOM     14  C   UNL d   1      -2.667   1.613  -4.846  0.00  0.00     0.017 A 
ENDBRANCH   1   9
TORSDOF 3
