REMARK  8 active torsions:
REMARK  status: ('A' for Active; 'I' for Inactive)
REMARK    1  A    between atoms: C_8  and  C_1 
REMARK    2  A    between atoms: N_4  and  C_2 
REMARK    3  A    between atoms: C_7  and  C_11 
REMARK    4  A    between atoms: O_17  and  C_8 
REMARK    5  A    between atoms: C_9  and  N_14 
REMARK    6  A    between atoms: N_14  and  C_19 
REMARK    7  A    between atoms: C_26  and  O_17 
REMARK    8  A    between atoms: C_19  and  C_26 
ROOT
ATOM      1  C   UNL d   1      -1.390  -5.750  -0.446  0.00  0.00     0.045 C 
ATOM      2  C   UNL d   1      -2.136  -6.428  -1.621  0.00  0.00     0.040 C 
ATOM      3  C   UNL d   1       0.047  -6.307  -0.482  0.00  0.00     0.040 C 
ENDROOT
BRANCH   1   4
ATOM      4  N   UNL d   1      -2.099  -6.149   0.798  0.00  0.00    -0.377 N 
ATOM      5  H   UNL d   1      -2.805  -6.871   0.610  0.00  0.00     0.160 HD
BRANCH   4   6
ATOM      6  C   UNL d   1      -1.596  -6.240   2.096  0.00  0.00     0.062 A 
ATOM      7  C   UNL d   1      -2.142  -7.114   3.074  0.00  0.00     0.130 A 
ATOM      8  C   UNL d   1      -1.665  -7.135   4.408  0.00  0.00     0.054 A 
ATOM      9  C   UNL d   1      -0.621  -6.296   4.810  0.00  0.00     0.050 A 
ATOM     10  C   UNL d   1      -0.069  -5.438   3.858  0.00  0.00     0.018 A 
ATOM     11  C   UNL d   1      -0.568  -5.395   2.547  0.00  0.00     0.032 A 
BRANCH   7  12
ATOM     12  N   UNL d   1      -3.201  -8.089   2.741  0.00  0.00    -0.113 N 
ATOM     13  O   UNL d   1      -3.501  -8.252   1.546  0.00  0.00    -0.532 OA
ATOM     14  O   UNL d   1      -3.723  -8.716   3.673  0.00  0.00    -0.532 OA
ENDBRANCH   7  12
BRANCH   9  15
ATOM     15  C   UNL d   1      -0.097  -6.308   6.226  0.00  0.00     0.417 C 
ATOM     16  F   UNL d   1      -0.810  -7.112   7.061  0.00  0.00    -0.166 F 
ATOM     17  F   UNL d   1       1.191  -6.743   6.297  0.00  0.00    -0.166 F 
ATOM     18  F   UNL d   1      -0.109  -5.072   6.796  0.00  0.00    -0.166 F 
ENDBRANCH   9  15
ENDBRANCH   4   6
ENDBRANCH   1   4
BRANCH   1  19
ATOM     19  C   UNL d   1      -1.412  -4.208  -0.661  0.00  0.00     0.209 C 
BRANCH  19  20
ATOM     20  O   UNL d   1      -2.748  -3.648  -0.733  0.00  0.00    -0.315 OA
BRANCH  20  21
ATOM     21  C   UNL d   1      -3.249  -3.366  -1.960  0.00  0.00     0.299 C 
ATOM     22  O   UNL d   1      -2.709  -3.685  -3.013  0.00  0.00    -0.259 OA
BRANCH  21  23
ATOM     23  C   UNL d   1      -4.540  -2.626  -1.907  0.00  0.00     0.115 C 
ATOM     24  C   UNL d   1      -5.080  -2.013  -0.670  0.00  0.00     0.304 C 
ATOM     25  O   UNL d   1      -6.353  -1.439  -0.758  0.00  0.00    -0.274 OA
ATOM     26  O   UNL d   1      -4.471  -1.979   0.388  0.00  0.00    -0.259 OA
ATOM     27  C   UNL d   1      -7.015  -1.272  -1.985  0.00  0.00     0.089 A 
ATOM     28  C   UNL d   1      -6.450  -1.756  -3.159  0.00  0.00    -0.001 A 
ATOM     29  C   UNL d   1      -8.229  -0.586  -1.982  0.00  0.00     0.038 A 
ATOM     30  C   UNL d   1      -5.197  -2.491  -3.076  0.00  0.00     0.038 C 
ATOM     31  C   UNL d   1      -7.111  -1.525  -4.368  0.00  0.00     0.014 A 
ATOM     32  C   UNL d   1      -8.325  -0.828  -4.383  0.00  0.00     0.001 A 
ATOM     33  C   UNL d   1      -8.887  -0.366  -3.191  0.00  0.00     0.003 A 
ENDBRANCH  21  23
ENDBRANCH  20  21
ENDBRANCH  19  20
ENDBRANCH   1  19
TORSDOF 8
