REMARK  6 active torsions:
REMARK  status: ('A' for Active; 'I' for Inactive)
REMARK    1  A    between atoms: C_8  and  C_1 
REMARK    2  A    between atoms: S_10  and  C_3 
REMARK    3  A    between atoms: C_12  and  C_7 
REMARK    4  A    between atoms: O_16  and  C_8 
REMARK    5  A    between atoms: C_15  and  S_10 
REMARK    6  A    between atoms: C_25  and  O_16 
ROOT
ATOM      1  C   UNL d   1      -0.803   1.419   0.113  0.00  0.00     0.086 A 
ATOM      2  C   UNL d   1      -1.502   0.200   0.172  0.00  0.00     0.096 A 
ATOM      3  C   UNL d   1      -0.767  -0.966   0.025  0.00  0.00     0.097 A 
ATOM      4  N   UNL d   1       0.583  -0.956  -0.093  0.00  0.00    -0.351 N 
ATOM      5  HN  UNL d   1       1.084  -1.840  -0.182  1.00  0.00     0.166 HD
ATOM      6  C   UNL d   1       0.603   1.436  -0.040  0.00  0.00     0.075 A 
ATOM      7  C   UNL d   1       1.284   0.212  -0.095  0.00  0.00     0.040 A 
ATOM      8  C   UNL d   1      -2.908   0.138   0.440  0.00  0.00     0.103 C 
ATOM      9  N   UNL d   1      -4.041   0.082   0.676  0.00  0.00    -0.191 NA
ATOM     10 CL   UNL d   1       1.435   2.948  -0.203  0.00  0.00    -0.081 Cl
ENDROOT
BRANCH   1  11
ATOM     11  C   UNL d   1      -1.522   2.703   0.314  0.00  0.00     0.296 C 
ATOM     12  O   UNL d   1      -1.131   3.587   1.054  0.00  0.00    -0.259 OA
BRANCH  11  13
ATOM     13  O   UNL d   1      -2.637   2.736  -0.454  0.00  0.00    -0.318 OA
BRANCH  13  14
ATOM     14  C   UNL d   1      -3.415   3.947  -0.397  0.00  0.00     0.174 C 
ATOM     15  C   UNL d   1      -4.072   4.177   0.955  0.00  0.00     0.034 C 
ENDBRANCH  13  14
ENDBRANCH  11  13
ENDBRANCH   1  11
BRANCH   3  16
ATOM     16  S   UNL d   1      -1.476  -2.607   0.085  0.00  0.00    -0.071 SA
BRANCH  16  17
ATOM     17  C   UNL d   1      -1.884  -2.888  -1.629  0.00  0.00     0.007 A 
ATOM     18  C   UNL d   1      -0.907  -2.881  -2.628  0.00  0.00     0.019 A 
ATOM     19  C   UNL d   1      -1.257  -3.111  -3.963  0.00  0.00     0.008 A 
ATOM     20  C   UNL d   1      -2.588  -3.361  -4.317  0.00  0.00    -0.062 A 
ATOM     21  C   UNL d   1      -3.560  -3.399  -3.312  0.00  0.00     0.008 A 
ATOM     22  C   UNL d   1      -2.961  -3.557  -5.758  0.00  0.00     0.048 C 
ATOM     23  C   UNL d   1      -3.209  -3.168  -1.978  0.00  0.00     0.019 A 
ENDBRANCH  16  17
ENDBRANCH   3  16
BRANCH   7  24
ATOM     24  C   UNL d   1       2.818   0.034  -0.075  0.00  0.00    -0.007 C 
ATOM     25  C   UNL d   1       3.197  -1.476  -0.100  0.00  0.00     0.021 C 
ATOM     26  C   UNL d   1       3.511   0.658  -1.302  0.00  0.00     0.021 C 
ATOM     27  C   UNL d   1       3.415   0.594   1.234  0.00  0.00     0.021 C 
ENDBRANCH   7  24
TORSDOF 6
