REMARK  6 active torsions:
REMARK  status: ('A' for Active; 'I' for Inactive)
REMARK    1  A    between atoms: C_9  and  C_3 
REMARK    2  A    between atoms: C_11  and  C_4 
REMARK    3  A    between atoms: O_16  and  C_5 
REMARK    4  A    between atoms: C_17  and  C_8 
REMARK    5  A    between atoms: C_10  and  C_9 
REMARK    6  A    between atoms: O_18  and  C_17 
ROOT
ATOM      1  N   UNL d   1      -0.115  -1.208   0.192  0.00  0.00    -0.321 N 
ATOM      2  HN  UNL d   1      -0.570  -2.112   0.316  1.00  0.00     0.169 HD
ATOM      3  C   UNL d   1      -0.261   1.210   0.139  0.00  0.00     0.018 A 
ATOM      4  C   UNL d   1       1.195  -1.107  -0.086  0.00  0.00     0.134 A 
ATOM      5  C   UNL d   1      -0.791  -0.057   0.299  0.00  0.00     0.149 A 
ATOM      6  N   UNL d   1       1.833   0.072  -0.214  0.00  0.00    -0.342 N 
ATOM      7  HN  UNL d   1       2.837   0.107  -0.395  1.00  0.00     0.167 HD
ATOM      8  C   UNL d   1       1.109   1.214  -0.096  0.00  0.00     0.045 A 
ENDROOT
BRANCH   4   9
ATOM      9  C   UNL d   1       1.977  -2.367  -0.223  0.00  0.00     0.076 A 
ATOM     10  N   UNL d   1       3.303  -2.261  -0.536  0.00  0.00    -0.363 N 
ATOM     11  C   UNL d   1       4.020  -3.398  -0.676  0.00  0.00     0.088 A 
ATOM     12  HN  UNL d   1       3.740  -1.348  -0.661  1.00  0.00     0.165 HD
ATOM     13  C   UNL d   1       3.491  -4.668  -0.519  0.00  0.00     0.017 A 
ATOM     14  C   UNL d   1       2.150  -4.780  -0.194  0.00  0.00     0.004 A 
ATOM     15  C   UNL d   1       1.385  -3.622  -0.044  0.00  0.00     0.033 A 
ENDBRANCH   4   9
BRANCH   5  16
ATOM     16  O   UNL d   1      -2.094  -0.233   0.665  0.00  0.00    -0.346 OA
ATOM     17  H   UNL d   1      -2.189   0.237   1.509  0.00  0.00     0.219 HD
ENDBRANCH   5  16
BRANCH   8  18
ATOM     18  C   UNL d   1       1.928   2.486  -0.117  0.00  0.00     0.224 C 
BRANCH  18  19
ATOM     19  O   UNL d   1       1.876   3.201   1.127  0.00  0.00    -0.390 OA
ATOM     20  C   UNL d   1       2.475   2.487   2.204  0.00  0.00     0.201 C 
ENDBRANCH  18  19
ENDBRANCH   8  18
BRANCH   3  21
ATOM     21  C   UNL d   1      -1.094   2.458   0.257  0.00  0.00     0.049 C 
BRANCH  21  22
ATOM     22  C   UNL d   1      -1.774   2.949  -0.992  0.00  0.00    -0.010 A 
ATOM     23  C   UNL d   1      -2.786   2.107  -1.732  0.00  0.00     0.005 A 
ATOM     24  C   UNL d   1      -1.490   2.477  -2.398  0.00  0.00     0.005 A 
ENDBRANCH  21  22
ENDBRANCH   3  21
TORSDOF 6
