REMARK  6 active torsions:
REMARK  status: ('A' for Active; 'I' for Inactive)
REMARK    1  A    between atoms: C_6  and  C_1 
REMARK    2  A    between atoms: N_4  and  C_2 
REMARK       I    between atoms: C_3  and  N_4 
REMARK    3  A    between atoms: C_10  and  C_3 
REMARK    4  A    between atoms: O_13  and  C_6 
REMARK    5  A    between atoms: O_14  and  C_8 
REMARK    6  A    between atoms: O_15  and  C_9 
ROOT
ATOM      1  C   UNL d   1       1.134  -0.205   0.956  0.00  0.00     0.067 A 
ATOM      2  C   UNL d   1       0.521  -1.338   0.398  0.00  0.00     0.054 A 
ATOM      3  C   UNL d   1       0.506   1.045   0.915  0.00  0.00     0.060 A 
ATOM      4  C   UNL d   1      -0.777  -1.200  -0.112  0.00  0.00     0.070 A 
ATOM      5  C   UNL d   1      -0.781   1.180   0.396  0.00  0.00     0.102 A 
ATOM      6  C   UNL d   1      -1.444   0.043  -0.089  0.00  0.00     0.103 A 
ENDROOT
BRANCH   2   7
ATOM      7  N   UNL d   1       1.251  -2.554   0.311  0.00  0.00    -0.325 N 
ATOM      8  C   UNL d   1       0.734  -3.829   0.215  0.00  0.00     0.229 C 
ATOM      9  O   UNL d   1      -0.469  -4.079   0.300  0.00  0.00    -0.272 OA
ATOM     10  H   UNL d   1       2.249  -2.465   0.503  0.00  0.00     0.169 HD
BRANCH   8  11
ATOM     11  C   UNL d   1       1.757  -4.953  -0.105  0.00  0.00     0.030 C 
ATOM     12  C   UNL d   1       3.184  -4.695   0.404  0.00  0.00     0.025 C 
ATOM     13  C   UNL d   1       1.257  -6.259   0.542  0.00  0.00     0.025 C 
ATOM     14  C   UNL d   1       1.792  -5.130  -1.632  0.00  0.00     0.025 C 
ENDBRANCH   8  11
ENDBRANCH   2   7
BRANCH   1  15
ATOM     15  C   UNL d   1       2.438  -0.326   1.643  0.00  0.00     0.178 C 
ATOM     16  O   UNL d   1       3.340  -1.034   1.218  0.00  0.00    -0.646 OA
BRANCH  15  17
ATOM     17  O   UNL d   1       2.484   0.327   2.822  0.00  0.00    -0.773 OA
ATOM     18  H   UNL d   1       1.635   0.706   3.124  0.00  0.00     0.167 HD
ENDBRANCH  15  17
ENDBRANCH   1  15
BRANCH   6  19
ATOM     19  O   UNL d   1      -2.696   0.180  -0.629  0.00  0.00    -0.353 OA
ATOM     20  C   UNL d   1      -3.609  -0.861  -0.281  0.00  0.00     0.210 C 
ENDBRANCH   6  19
BRANCH   5  21
ATOM     21  O   UNL d   1      -1.217   2.476   0.437  0.00  0.00    -0.353 OA
ATOM     22  C   UNL d   1      -2.609   2.728   0.316  0.00  0.00     0.210 C 
ENDBRANCH   5  21
TORSDOF 6
