REMARK  0 active torsions:
REMARK  status: ('A' for Active; 'I' for Inactive)
ROOT
ATOM      1  C   UNL d   1      -0.936   0.541  -0.015  0.00  0.00     0.093 A 
ATOM      2  C   UNL d   1       0.506   0.476  -0.022  0.00  0.00     0.020 A 
ATOM      3  N   UNL d   1      -1.717   1.611  -0.154  0.00  0.00    -0.239 N 
ATOM      4  HN  UNL d   1      -1.431   2.581  -0.285  1.00  0.00     0.197 HD
ATOM      5  C   UNL d   1      -1.729  -0.603   0.154  0.00  0.00     0.064 A 
ATOM      6  O   UNL d   1      -3.022   1.099  -0.078  0.00  0.00    -0.156 OA
ATOM      7  N   UNL d   1      -3.020  -0.291   0.123  0.00  0.00    -0.244 N 
ATOM      8  HN  UNL d   1      -3.821  -0.914   0.222  1.00  0.00     0.196 HD
ATOM      9  N   UNL d   1       2.425  -0.951  -0.077  0.00  0.00    -0.304 N 
ATOM     10  HN  UNL d   1       2.835  -1.882  -0.155  1.00  0.00     0.186 HD
ATOM     11  C   UNL d   1       1.087  -0.795  -0.099  0.00  0.00     0.038 A 
ATOM     12  N   UNL d   1       3.230   0.149   0.050  0.00  0.00    -0.305 N 
ATOM     13  HN  UNL d   1       4.243   0.034   0.082  1.00  0.00     0.186 HD
ATOM     14  C   UNL d   1       1.324   1.591   0.094  0.00  0.00     0.042 A 
ATOM     15  C   UNL d   1      -1.153  -1.950   0.372  0.00  0.00     0.067 C 
ATOM     16  C   UNL d   1       0.235  -2.038  -0.298  0.00  0.00     0.065 C 
ATOM     17  C   UNL d   1       2.693   1.389   0.133  0.00  0.00     0.022 A 
ATOM     18  C   UNL d   1       3.634   2.542   0.291  0.00  0.00     0.070 C 
ENDROOT
TORSDOF 0
