REMARK  2 active torsions:
REMARK  status: ('A' for Active; 'I' for Inactive)
REMARK    1  A    between atoms: N_11  and  C_7 
REMARK    2  A    between atoms: C_15  and  N_11 
ROOT
ATOM      1  S   UNL d   1      -1.107  -1.589   0.057  0.00  0.00     0.270 S 
ATOM      2  C   UNL d   1      -2.362  -0.511   0.496  0.00  0.00     0.145 C 
ATOM      3  N   UNL d   1      -1.602  -1.971  -1.516  0.00  0.00    -0.275 N 
ATOM      4  C   UNL d   1      -2.536   0.638  -0.404  0.00  0.00     0.209 C 
ATOM      5  C   UNL d   1      -2.327   0.392  -1.864  0.00  0.00     0.043 A 
ATOM      6  C   UNL d   1      -1.891  -0.850  -2.383  0.00  0.00     0.059 A 
ATOM      7  C   UNL d   1      -3.295  -0.853   1.397  0.00  0.00     0.113 C 
ATOM      8  O   UNL d   1       0.145  -0.864  -0.054  0.00  0.00    -0.200 OA
ATOM      9  O   UNL d   1      -1.162  -2.799   0.852  0.00  0.00    -0.200 OA
ATOM     10  O   UNL d   1      -2.910   1.729   0.011  0.00  0.00    -0.286 OA
ATOM     11  C   UNL d   1      -1.380  -3.331  -2.015  0.00  0.00     0.170 C 
ATOM     12  C   UNL d   1      -2.663   1.443  -2.734  0.00  0.00     0.018 A 
ATOM     13  C   UNL d   1      -1.838  -1.005  -3.777  0.00  0.00     0.031 A 
ATOM     14  C   UNL d   1      -2.595   1.268  -4.113  0.00  0.00     0.001 A 
ATOM     15  C   UNL d   1      -2.184   0.045  -4.633  0.00  0.00     0.002 A 
ENDROOT
BRANCH   7  16
ATOM     16  N   UNL d   1      -4.451  -0.171   1.717  0.00  0.00    -0.394 N 
ATOM     17  H   UNL d   1      -4.468   0.812   1.426  0.00  0.00     0.159 HD
BRANCH  16  18
ATOM     18  C   UNL d   1      -5.469  -0.595   2.667  0.00  0.00     0.072 C 
ATOM     19  C   UNL d   1      -5.120  -0.090   4.061  0.00  0.00     0.031 C 
ATOM     20  C   UNL d   1      -6.824  -0.057   2.216  0.00  0.00     0.031 C 
ENDBRANCH  16  18
ENDBRANCH   7  16
TORSDOF 2
