REMARK  3 active torsions:
REMARK  status: ('A' for Active; 'I' for Inactive)
REMARK    1  A    between atoms: N_2  and  S_1 
REMARK    2  A    between atoms: C_5  and  S_1 
REMARK       I    between atoms: C_4  and  N_3 
REMARK    3  A    between atoms: C_13  and  C_4 
ROOT
ATOM      1  N   UNL d   1       0.297  -0.636   1.015  0.00  0.00    -0.304 N 
ATOM      2  N   UNL d   1       1.909  -2.707   2.287  0.00  0.00    -0.349 N 
ATOM      3  C   UNL d   1       2.602  -3.749   2.913  0.00  0.00     0.224 C 
ATOM      4  C   UNL d   1       1.238  -0.302   2.122  0.00  0.00     0.155 C 
ATOM      5  C   UNL d   1      -0.209  -2.037   1.144  0.00  0.00     0.155 C 
ATOM      6  C   UNL d   1       0.932  -3.059   1.242  0.00  0.00     0.146 C 
ATOM      7  C   UNL d   1       2.393  -1.319   2.212  0.00  0.00     0.146 C 
ATOM      8  O   UNL d   1       2.288  -4.926   2.726  0.00  0.00    -0.273 OA
ENDROOT
BRANCH   1   9
ATOM      9  S   UNL d   1       0.745  -0.120  -0.542  0.00  0.00     0.260 S 
ATOM     10  O   UNL d   1      -0.033  -0.863  -1.515  0.00  0.00    -0.200 OA
ATOM     11  O   UNL d   1       2.190  -0.080  -0.609  0.00  0.00    -0.200 OA
BRANCH   9  12
ATOM     12  C   UNL d   1       0.146   1.558  -0.587  0.00  0.00     0.079 A 
ATOM     13  C   UNL d   1       1.037   2.630  -0.682  0.00  0.00     0.026 A 
ATOM     14  C   UNL d   1       0.542   3.921  -0.896  0.00  0.00     0.008 A 
ATOM     15  C   UNL d   1      -0.837   4.144  -1.024  0.00  0.00    -0.062 A 
ATOM     16  C   UNL d   1      -1.720   3.065  -0.891  0.00  0.00     0.008 A 
ATOM     17  C   UNL d   1      -1.349   5.519  -1.350  0.00  0.00     0.048 C 
ATOM     18  C   UNL d   1      -1.233   1.774  -0.675  0.00  0.00     0.026 A 
ENDBRANCH   9  12
ENDBRANCH   1   9
BRANCH   3  19
ATOM     19  C   UNL d   1       3.731  -3.374   3.892  0.00  0.00     0.078 C 
ATOM     20  C   UNL d   1       4.746  -4.503   4.120  0.00  0.00     0.014 C 
ATOM     21  C   UNL d   1       4.273  -5.607   5.057  0.00  0.00     0.001 C 
ATOM     22  C   UNL d   1       3.693  -5.076   6.361  0.00  0.00     0.000 C 
ATOM     23  C   UNL d   1       2.682  -3.953   6.158  0.00  0.00     0.001 C 
ATOM     24  C   UNL d   1       3.183  -2.851   5.226  0.00  0.00     0.014 C 
ENDBRANCH   3  19
TORSDOF 3
