REMARK  7 active torsions:
REMARK  status: ('A' for Active; 'I' for Inactive)
REMARK    1  A    between atoms: N_2  and  C_1 
REMARK    2  A    between atoms: C_3  and  C_1 
REMARK    3  A    between atoms: C_4  and  C_1 
REMARK    4  A    between atoms: N_5  and  C_1 
REMARK       I    between atoms: C_6  and  N_2 
REMARK    5  A    between atoms: C_9  and  N_5 
REMARK    6  A    between atoms: O_20  and  C_6 
REMARK    7  A    between atoms: C_23  and  O_20 
ROOT
ATOM      1  C   UNL d   1       1.045  -0.104   0.040  0.00  0.00     0.308 C 
ENDROOT
BRANCH   1   2
ATOM      2  N   UNL d   1       0.509  -0.989   1.066  0.00  0.00    -0.295 N 
ATOM      3  C   UNL d   1      -0.798  -1.084   1.365  0.00  0.00     0.362 C 
ATOM      4  O   UNL d   1      -1.672  -0.472   0.777  0.00  0.00    -0.238 OA
ATOM      5  H   UNL d   1       1.157  -1.574   1.571  0.00  0.00     0.168 HD
BRANCH   3   6
ATOM      6  O   UNL d   1      -0.950  -1.905   2.419  0.00  0.00    -0.304 OA
BRANCH   6   7
ATOM      7  C   UNL d   1      -2.243  -1.882   3.037  0.00  0.00     0.176 C 
ATOM      8  C   UNL d   1      -2.300  -0.723   4.018  0.00  0.00     0.034 C 
ENDBRANCH   6   7
ENDBRANCH   3   6
ENDBRANCH   1   2
BRANCH   1   9
ATOM      9  C   UNL d   1       0.562   1.388   0.035  0.00  0.00     0.441 C 
ATOM     10  F   UNL d   1       0.456   1.889   1.292  0.00  0.00    -0.166 F 
ATOM     11  F   UNL d   1       1.459   2.174  -0.616  0.00  0.00    -0.166 F 
ATOM     12  F   UNL d   1      -0.630   1.599  -0.552  0.00  0.00    -0.166 F 
ENDBRANCH   1   9
BRANCH   1  13
ATOM     13  C   UNL d   1       0.758  -0.596  -1.420  0.00  0.00     0.441 C 
ATOM     14  F   UNL d   1       0.715  -1.955  -1.473  0.00  0.00    -0.166 F 
ATOM     15  F   UNL d   1      -0.376  -0.150  -1.985  0.00  0.00    -0.166 F 
ATOM     16  F   UNL d   1       1.784  -0.228  -2.238  0.00  0.00    -0.166 F 
ENDBRANCH   1  13
BRANCH   1  17
ATOM     17  N   UNL d   1       2.544  -0.253   0.309  0.00  0.00    -0.349 N 
ATOM     18  H   UNL d   1       3.059  -0.115  -0.561  0.00  0.00     0.162 HD
BRANCH  17  19
ATOM     19  C   UNL d   1       3.229   0.293   1.392  0.00  0.00     0.033 A 
ATOM     20  C   UNL d   1       2.648   0.693   2.596  0.00  0.00     0.074 A 
ATOM     21  C   UNL d   1       3.432   1.164   3.652  0.00  0.00     0.157 A 
ATOM     22  F   UNL d   1       2.832   1.570   4.779  0.00  0.00    -0.203 F 
ATOM     23  C   UNL d   1       4.813   1.202   3.543  0.00  0.00     0.154 A 
ATOM     24  C   UNL d   1       5.426   0.761   2.383  0.00  0.00     0.047 A 
ATOM     25  F   UNL d   1       5.562   1.641   4.564  0.00  0.00    -0.203 F 
ATOM     26  C   UNL d   1       4.638   0.305   1.321  0.00  0.00     0.032 A 
ENDBRANCH  17  19
ENDBRANCH   1  17
TORSDOF 7
