REMARK  6 active torsions:
REMARK  status: ('A' for Active; 'I' for Inactive)
REMARK    1  A    between atoms: C_5  and  C_1 
REMARK    2  A    between atoms: N_8  and  C_2 
REMARK    3  A    between atoms: C_3  and  C_4 
REMARK    4  A    between atoms: C_4  and  C_6 
REMARK    5  A    between atoms: O_18  and  C_5 
REMARK    6  A    between atoms: C_6  and  C_7 
REMARK       I    between atoms: C_7  and  N_8 
ROOT
ATOM      1  C   UNL d   1       3.324   1.182  -1.759  0.00  0.00     0.229 C 
ATOM      2  N   UNL d   1       2.066   1.600  -1.370  0.00  0.00    -0.325 N 
ATOM      3  O   UNL d   1       3.607   0.084  -2.231  0.00  0.00    -0.273 OA
ATOM      4  H   UNL d   1       1.871   2.593  -1.276  0.00  0.00     0.169 HD
ENDROOT
BRANCH   2   5
ATOM      5  C   UNL d   1       0.980   0.741  -1.192  0.00  0.00     0.058 A 
ATOM      6  C   UNL d   1      -0.339   1.170  -1.068  0.00  0.00     0.106 A 
ATOM      7  S   UNL d   1      -1.418  -0.159  -0.869  0.00  0.00    -0.094 SA
ATOM      8  C   UNL d   1      -0.152  -1.291  -0.883  0.00  0.00     0.053 A 
ATOM      9  C   UNL d   1       1.069  -0.687  -1.072  0.00  0.00     0.038 A 
BRANCH   6  10
ATOM     10  C   UNL d   1      -0.930   2.496  -1.096  0.00  0.00     0.302 C 
ATOM     11  O   UNL d   1      -2.119   2.756  -1.252  0.00  0.00    -0.259 OA
BRANCH  10  12
ATOM     12  O   UNL d   1       0.029   3.454  -0.890  0.00  0.00    -0.322 OA
ATOM     13  C   UNL d   1      -0.510   4.777  -0.781  0.00  0.00     0.213 C 
ENDBRANCH  10  12
ENDBRANCH   6  10
ENDBRANCH   2   5
BRANCH   1  14
ATOM     14  C   UNL d   1       4.396   2.215  -1.552  0.00  0.00     0.191 C 
BRANCH  14  15
ATOM     15  C   UNL d   1       5.781   1.620  -1.467  0.00  0.00     0.241 C 
ATOM     16  O   UNL d   1       6.720   2.179  -2.047  0.00  0.00    -0.288 OA
BRANCH  15  17
ATOM     17  C   UNL d   1       5.966   0.400  -0.569  0.00  0.00     0.451 C 
ATOM     18  F   UNL d   1       4.876   0.135   0.203  0.00  0.00    -0.163 F 
ATOM     19  F   UNL d   1       6.251  -0.734  -1.261  0.00  0.00    -0.163 F 
ATOM     20  F   UNL d   1       6.992   0.578   0.312  0.00  0.00    -0.163 F 
ENDBRANCH  15  17
ENDBRANCH  14  15
ENDBRANCH   1  14
TORSDOF 6
