REMARK  6 active torsions:
REMARK  status: ('A' for Active; 'I' for Inactive)
REMARK    1  A    between atoms: C_2  and  S_1 
REMARK    2  A    between atoms: C_5  and  S_1 
REMARK    3  A    between atoms: N_4  and  C_3 
REMARK       I    between atoms: C_11  and  N_4 
REMARK    4  A    between atoms: C_16  and  C_11 
REMARK    5  A    between atoms: S_12  and  C_16 
REMARK    6  A    between atoms: C_17  and  S_12 
ROOT
ATOM      1  C   UNL d   1       0.341   0.334   1.384  0.00  0.00     0.098 A 
ATOM      2  C   UNL d   1      -0.161  -0.670   2.276  0.00  0.00     0.063 A 
ATOM      3  S   UNL d   1      -0.310   1.568   3.545  0.00  0.00    -0.110 SA
ATOM      4  C   UNL d   1       0.323   1.591   1.958  0.00  0.00     0.075 A 
ATOM      5  C   UNL d   1      -0.579  -0.120   3.471  0.00  0.00     0.080 A 
ENDROOT
BRANCH   2   6
ATOM      6  N   UNL d   1      -0.207  -2.054   2.068  0.00  0.00    -0.325 N 
ATOM      7  C   UNL d   1      -1.412  -2.632   1.673  0.00  0.00     0.231 C 
ATOM      8  O   UNL d   1      -2.454  -1.991   1.501  0.00  0.00    -0.272 OA
ATOM      9  H   UNL d   1       0.596  -2.431   1.567  0.00  0.00     0.169 HD
BRANCH   7  10
ATOM     10  C   UNL d   1      -1.327  -4.129   1.418  0.00  0.00     0.182 C 
BRANCH  10  11
ATOM     11  S   UNL d   1      -2.558  -4.979   2.469  0.00  0.00    -0.121 SA
BRANCH  11  12
ATOM     12  C   UNL d   1      -2.280  -6.673   1.998  0.00  0.00     0.001 A 
ATOM     13  C   UNL d   1      -1.991  -7.612   2.995  0.00  0.00     0.020 A 
ATOM     14  C   UNL d   1      -1.777  -8.953   2.664  0.00  0.00     0.025 A 
ATOM     15  C   UNL d   1      -1.864  -9.359   1.335  0.00  0.00     0.034 A 
ATOM     16  C   UNL d   1      -2.174  -8.438   0.337  0.00  0.00     0.025 A 
ATOM     17 CL   UNL d   1      -1.595 -11.007   0.925  0.00  0.00    -0.084 Cl
ATOM     18  C   UNL d   1      -2.388  -7.097   0.669  0.00  0.00     0.020 A 
ENDBRANCH  11  12
ENDBRANCH  10  11
ENDBRANCH   7  10
ENDBRANCH   2   6
BRANCH   1  19
ATOM     19  S   UNL d   1       0.890   0.069  -0.235  0.00  0.00     0.209 S 
ATOM     20  O   UNL d   1       1.231  -1.349  -0.272  0.00  0.00    -0.217 OA
ATOM     21  O   UNL d   1       1.880   1.102  -0.451  0.00  0.00    -0.217 OA
BRANCH  19  22
ATOM     22  C   UNL d   1      -0.447   0.338  -1.371  0.00  0.00     0.064 A 
ATOM     23  C   UNL d   1      -0.136   0.753  -2.673  0.00  0.00     0.025 A 
ATOM     24  C   UNL d   1      -1.160   0.975  -3.600  0.00  0.00     0.025 A 
ATOM     25  C   UNL d   1      -2.489   0.777  -3.225  0.00  0.00     0.034 A 
ATOM     26  C   UNL d   1      -2.801   0.365  -1.931  0.00  0.00     0.025 A 
ATOM     27 CL   UNL d   1      -3.749   1.053  -4.363  0.00  0.00    -0.084 Cl
ATOM     28  C   UNL d   1      -1.781   0.156  -0.996  0.00  0.00     0.025 A 
ENDBRANCH  19  22
ENDBRANCH   1  19
TORSDOF 6
