REMARK  10 active torsions:
REMARK  status: ('A' for Active; 'I' for Inactive)
REMARK       I    between atoms: N_3  and  C_1 
REMARK    1  A    between atoms: C_15  and  C_1 
REMARK    2  A    between atoms: C_2  and  C_14 
REMARK       I    between atoms: N_4  and  C_2 
REMARK    3  A    between atoms: C_10  and  N_3 
REMARK    4  A    between atoms: C_11  and  N_4 
REMARK    5  A    between atoms: C_7  and  S_9 
REMARK    6  A    between atoms: S_8  and  C_7 
REMARK    7  A    between atoms: C_14  and  S_8 
REMARK    8  A    between atoms: S_9  and  C_15 
REMARK    9  A    between atoms: C_12  and  C_10 
REMARK   10  A    between atoms: C_13  and  C_11 
ROOT
ATOM      1  C   UNL d   1       4.953   1.315  -0.427  0.00  0.00     0.148 C 
ENDROOT
BRANCH   1   2
ATOM      2  S   UNL d   1       3.163   1.351  -0.723  0.00  0.00    -0.150 SA
BRANCH   2   3
ATOM      3  C   UNL d   1       2.775  -0.401  -0.445  0.00  0.00     0.177 C 
BRANCH   3   4
ATOM      4  C   UNL d   1       3.034  -0.906   0.966  0.00  0.00     0.227 C 
ATOM      5  N   UNL d   1       2.950   0.016   1.984  0.00  0.00    -0.356 N 
ATOM      6  H   UNL d   1       2.672   0.961   1.746  0.00  0.00     0.162 HD
ATOM      7  O   UNL d   1       3.239  -2.101   1.175  0.00  0.00    -0.273 OA
BRANCH   5   8
ATOM      8  C   UNL d   1       2.970  -0.420   3.365  0.00  0.00     0.161 C 
BRANCH   8   9
ATOM      9  C   UNL d   1       3.067   0.661   4.416  0.00  0.00    -0.041 A 
ATOM     10  C   UNL d   1       2.777   2.008   4.183  0.00  0.00     0.009 A 
ATOM     11  C   UNL d   1       2.915   2.965   5.194  0.00  0.00     0.001 A 
ATOM     12  C   UNL d   1       3.291   2.579   6.476  0.00  0.00     0.000 A 
ATOM     13  C   UNL d   1       3.526   1.234   6.746  0.00  0.00     0.001 A 
ATOM     14  C   UNL d   1       3.418   0.286   5.725  0.00  0.00     0.009 A 
ENDBRANCH   8   9
ENDBRANCH   5   8
ENDBRANCH   3   4
ENDBRANCH   2   3
ENDBRANCH   1   2
BRANCH   1  15
ATOM     15  S   UNL d   1       5.782   2.808  -1.064  0.00  0.00    -0.150 SA
BRANCH  15  16
ATOM     16  C   UNL d   1       4.920   4.124  -0.145  0.00  0.00     0.177 C 
BRANCH  16  17
ATOM     17  C   UNL d   1       4.944   3.921   1.355  0.00  0.00     0.227 C 
ATOM     18  N   UNL d   1       6.119   3.952   2.047  0.00  0.00    -0.356 N 
ATOM     19  H   UNL d   1       5.988   3.812   3.044  0.00  0.00     0.162 HD
ATOM     20  O   UNL d   1       3.898   3.737   1.976  0.00  0.00    -0.273 OA
BRANCH  18  21
ATOM     21  C   UNL d   1       7.377   4.528   1.620  0.00  0.00     0.161 C 
BRANCH  21  22
ATOM     22  C   UNL d   1       8.565   3.627   1.833  0.00  0.00    -0.041 A 
ATOM     23  C   UNL d   1       9.564   3.563   0.847  0.00  0.00     0.009 A 
ATOM     24  C   UNL d   1      10.720   2.807   1.046  0.00  0.00     0.001 A 
ATOM     25  C   UNL d   1      10.897   2.103   2.234  0.00  0.00     0.000 A 
ATOM     26  C   UNL d   1       9.916   2.154   3.221  0.00  0.00     0.001 A 
ATOM     27  C   UNL d   1       8.759   2.915   3.027  0.00  0.00     0.009 A 
ENDBRANCH  21  22
ENDBRANCH  18  21
ENDBRANCH  16  17
ENDBRANCH  15  16
ENDBRANCH   1  15
TORSDOF 10
