REMARK  1 active torsions:
REMARK  status: ('A' for Active; 'I' for Inactive)
REMARK    1  A    between atoms: C_8  and  C_3 
ROOT
ATOM      1  N   UNL d   1       2.077  -0.077  -0.232  0.00  0.00    -0.335 N 
ATOM      2  C   UNL d   1       1.125   0.897  -0.344  0.00  0.00     0.255 C 
ATOM      3  C   UNL d   1       1.854  -1.489  -0.387  0.00  0.00     0.188 C 
ATOM      4  N   UNL d   1       0.478  -1.819  -0.078  0.00  0.00    -0.367 N 
ATOM      5  C   UNL d   1      -0.273   0.478  -0.228  0.00  0.00     0.058 A 
ATOM      6  C   UNL d   1      -0.538  -0.887  -0.105  0.00  0.00     0.045 A 
ATOM      7  O   UNL d   1       1.447   2.067  -0.507  0.00  0.00    -0.268 OA
ATOM      8  C   UNL d   1      -1.293   1.437  -0.203  0.00  0.00     0.019 A 
ATOM      9  C   UNL d   1      -1.874  -1.280   0.025  0.00  0.00     0.030 A 
ATOM     10  C   UNL d   1      -2.618   1.025  -0.061  0.00  0.00     0.001 A 
ATOM     11  C   UNL d   1      -2.906  -0.334   0.045  0.00  0.00     0.002 A 
ATOM     12  H   UNL d   1       2.995   0.282  -0.450  0.00  0.00     0.164 HD
ATOM     13  H   UNL d   1       0.237  -2.792   0.045  0.00  0.00     0.161 HD
ENDROOT
BRANCH   3  14
ATOM     14  C   UNL d   1       2.782  -2.324   0.549  0.00  0.00     0.028 C 
ATOM     15  C   UNL d   1       4.195  -1.741   0.740  0.00  0.00     0.008 C 
ATOM     16  C   UNL d   1       5.023  -1.808  -0.538  0.00  0.00     0.001 C 
ATOM     17  C   UNL d   1       5.149  -3.243  -1.036  0.00  0.00     0.000 C 
ATOM     18  C   UNL d   1       3.799  -3.945  -1.164  0.00  0.00     0.001 C 
ATOM     19  C   UNL d   1       2.924  -3.789   0.082  0.00  0.00     0.008 C 
ENDBRANCH   3  14
TORSDOF 1
