REMARK  4 active torsions:
REMARK  status: ('A' for Active; 'I' for Inactive)
REMARK    1  A    between atoms: N_2  and  S_1 
REMARK    2  A    between atoms: C_8  and  S_1 
REMARK    3  A    between atoms: N_5  and  C_4 
REMARK    4  A    between atoms: S_9  and  C_4 
ROOT
ATOM      1  N   UNL d   1       0.344  -0.887  -1.683  0.00  0.00    -0.260 N 
ATOM      2  HN  UNL d   1       0.623  -0.313  -0.888  1.00  0.00     0.181 HD
ATOM      3  C   UNL d   1       0.684  -0.495  -2.877  0.00  0.00     0.151 C 
ENDROOT
BRANCH   1   4
ATOM      4  S   UNL d   1      -0.497  -2.235  -1.395  0.00  0.00     0.264 S 
ATOM      5  O   UNL d   1       0.213  -3.401  -1.888  0.00  0.00    -0.200 OA
ATOM      6  O   UNL d   1      -1.889  -2.012  -1.743  0.00  0.00    -0.200 OA
BRANCH   4   7
ATOM      7  C   UNL d   1      -0.454  -2.411   0.385  0.00  0.00     0.079 A 
ATOM      8  C   UNL d   1      -1.642  -2.414   1.121  0.00  0.00     0.025 A 
ATOM      9  C   UNL d   1      -1.600  -2.679   2.492  0.00  0.00     0.002 A 
ATOM     10  C   UNL d   1      -0.378  -2.940   3.116  0.00  0.00     0.000 A 
ATOM     11  C   UNL d   1       0.806  -2.932   2.377  0.00  0.00     0.002 A 
ATOM     12  C   UNL d   1       0.773  -2.668   1.006  0.00  0.00     0.025 A 
ENDBRANCH   4   7
ENDBRANCH   1   4
BRANCH   3  13
ATOM     13  N   UNL d   1       1.416   0.685  -3.065  0.00  0.00    -0.361 N 
ATOM     14  C   UNL d   1       2.251   0.965  -4.246  0.00  0.00     0.125 C 
ATOM     15  C   UNL d   1       2.101   2.431  -4.652  0.00  0.00     0.020 C 
ATOM     16  C   UNL d   1       2.420   3.374  -3.497  0.00  0.00     0.003 C 
ATOM     17  C   UNL d   1       1.643   2.987  -2.241  0.00  0.00     0.020 C 
ATOM     18  C   UNL d   1       1.808   1.504  -1.905  0.00  0.00     0.125 C 
ENDBRANCH   3  13
BRANCH   3  19
ATOM     19  S   UNL d   1       0.255  -1.393  -4.345  0.00  0.00    -0.098 SA
ATOM     20  C   UNL d   1      -1.319  -0.604  -4.736  0.00  0.00     0.099 C 
ENDBRANCH   3  19
TORSDOF 4
