REMARK  4 active torsions:
REMARK  status: ('A' for Active; 'I' for Inactive)
REMARK    1  A    between atoms: C_6  and  N_1 
REMARK    2  A    between atoms: C_11  and  C_7 
REMARK    3  A    between atoms: C_15  and  N_8 
REMARK    4  A    between atoms: O_26  and  C_11 
ROOT
ATOM      1  N   UNL d   1       0.401  -1.090   0.212  0.00  0.00    -0.257 N 
ATOM      2  C   UNL d   1      -0.947  -0.861   0.480  0.00  0.00     0.160 C 
ATOM      3  C   UNL d   1       0.165   1.180  -0.432  0.00  0.00     0.082 C 
ATOM      4  C   UNL d   1       1.078   0.011  -0.322  0.00  0.00     0.271 C 
ATOM      5  S   UNL d   1      -1.263   0.864   0.442  0.00  0.00    -0.048 SA
ATOM      6  C   UNL d   1       0.491   2.269  -1.142  0.00  0.00     0.106 C 
ATOM      7  N   UNL d   1      -1.830  -1.791   0.678  0.00  0.00    -0.336 N 
ATOM      8  HN  UNL d   1      -1.512  -2.760   0.680  1.00  0.00     0.168 HD
ATOM      9  O   UNL d   1       2.248   0.108  -0.672  0.00  0.00    -0.266 OA
ENDROOT
BRANCH   1  10
ATOM     10  C   UNL d   1       1.065  -2.349   0.464  0.00  0.00     0.046 A 
ATOM     11  C   UNL d   1       2.292  -2.679  -0.133  0.00  0.00     0.054 A 
ATOM     12  C   UNL d   1       2.969  -3.871   0.173  0.00  0.00     0.042 A 
ATOM     13 CL   UNL d   1       4.492  -4.154  -0.596  0.00  0.00    -0.084 Cl
ATOM     14  C   UNL d   1       2.432  -4.791   1.077  0.00  0.00    -0.040 A 
ATOM     15  C   UNL d   1       1.207  -4.481   1.674  0.00  0.00     0.011 A 
ATOM     16  C   UNL d   1       3.133  -6.071   1.431  0.00  0.00     0.050 C 
ATOM     17  C   UNL d   1       0.544  -3.282   1.377  0.00  0.00     0.031 A 
ENDBRANCH   1  10
BRANCH   7  18
ATOM     18  C   UNL d   1      -3.201  -1.546   0.889  0.00  0.00     0.035 A 
ATOM     19  C   UNL d   1      -3.857  -2.238   1.911  0.00  0.00     0.053 A 
ATOM     20  C   UNL d   1      -5.224  -2.043   2.151  0.00  0.00     0.042 A 
ATOM     21 CL   UNL d   1      -5.968  -2.973   3.404  0.00  0.00    -0.084 Cl
ATOM     22  C   UNL d   1      -5.965  -1.130   1.387  0.00  0.00    -0.040 A 
ATOM     23  C   UNL d   1      -5.319  -0.473   0.336  0.00  0.00     0.011 A 
ATOM     24  C   UNL d   1      -7.422  -0.860   1.631  0.00  0.00     0.050 C 
ATOM     25  C   UNL d   1      -3.970  -0.716   0.066  0.00  0.00     0.030 A 
ENDBRANCH   7  18
BRANCH   6  26
ATOM     26  C   UNL d   1      -0.434   3.391  -1.379  0.00  0.00     0.283 C 
ATOM     27  O   UNL d   1      -1.649   3.322  -1.369  0.00  0.00    -0.260 OA
BRANCH  26  28
ATOM     28  O   UNL d   1       0.297   4.504  -1.640  0.00  0.00    -0.323 OA
ATOM     29  C   UNL d   1      -0.507   5.661  -1.874  0.00  0.00     0.213 C 
ENDBRANCH  26  28
ENDBRANCH   6  26
TORSDOF 4
