REMARK  4 active torsions:
REMARK  status: ('A' for Active; 'I' for Inactive)
REMARK    1  A    between atoms: C_3  and  C_1 
REMARK    2  A    between atoms: C_4  and  C_2 
REMARK    3  A    between atoms: O_10  and  C_3 
REMARK    4  A    between atoms: O_11  and  C_4 
ROOT
ATOM      1  C   UNL d   1       0.795   1.234   0.045  0.00  0.00     0.070 A 
ATOM      2  C   UNL d   1       1.497   0.033  -0.084  0.00  0.00     0.057 A 
ATOM      3  N   UNL d   1      -1.280  -0.036   0.056  0.00  0.00    -0.374 N 
ATOM      4  HN  UNL d   1      -2.298  -0.054   0.118  1.00  0.00     0.164 HD
ATOM      5  C   UNL d   1      -0.590   1.132   0.125  0.00  0.00     0.106 A 
ATOM      6  C   UNL d   1       0.809  -1.187  -0.174  0.00  0.00     0.036 A 
ATOM      7  C   UNL d   1      -0.570  -1.167  -0.099  0.00  0.00     0.088 A 
ENDROOT
BRANCH   1   8
ATOM      8  C   UNL d   1       1.345   2.600   0.199  0.00  0.00     0.178 C 
ATOM      9  O   UNL d   1       0.747   3.429   0.868  0.00  0.00    -0.646 OA
BRANCH   8  10
ATOM     10  O   UNL d   1       2.461   2.914  -0.478  0.00  0.00    -0.773 OA
ATOM     11  H   UNL d   1       2.950   2.198  -0.954  0.00  0.00     0.167 HD
ENDBRANCH   8  10
ENDBRANCH   1   8
BRANCH   2  12
ATOM     12  C   UNL d   1       2.959  -0.004  -0.193  0.00  0.00     0.177 C 
ATOM     13  O   UNL d   1       3.556   0.741  -0.953  0.00  0.00    -0.646 OA
BRANCH  12  14
ATOM     14  O   UNL d   1       3.552  -0.915   0.598  0.00  0.00    -0.773 OA
ATOM     15  H   UNL d   1       2.979  -1.369   1.247  0.00  0.00     0.167 HD
ENDBRANCH  12  14
ENDBRANCH   2  12
TORSDOF 4
