REMARK  6 active torsions:
REMARK  status: ('A' for Active; 'I' for Inactive)
REMARK    1  A    between atoms: N_6  and  C_1 
REMARK    2  A    between atoms: N_9  and  C_1 
REMARK    3  A    between atoms: N_2  and  N_6 
REMARK    4  A    between atoms: C_8  and  N_2 
REMARK    5  A    between atoms: C_4  and  C_8 
REMARK    6  A    between atoms: O_10  and  C_7 
ROOT
ATOM      1  N   UNL d   1      -1.209  -1.523   0.318  0.00  0.00    -0.309 N 
ATOM      2  HN  UNL d   1      -1.686  -1.465  -0.582  1.00  0.00     0.186 HD
ENDROOT
BRANCH   1   3
ATOM      3  N   UNL d   1       0.147  -1.440   0.433  0.00  0.00    -0.277 N 
ATOM      4  H   UNL d   1       0.594  -1.490   1.345  0.00  0.00     0.189 HD
BRANCH   3   5
ATOM      5  C   UNL d   1       0.953  -1.275  -0.659  0.00  0.00     0.184 C 
ATOM      6  S   UNL d   1       2.603  -1.161  -0.526  0.00  0.00    -0.040 SA
BRANCH   5   7
ATOM      7  N   UNL d   1       0.331  -1.216  -1.859  0.00  0.00    -0.375 N 
ATOM      8  H   UNL d   1       0.854  -1.065  -2.710  0.00  0.00     0.158 HD
ATOM      9  H   UNL d   1      -0.677  -1.226  -1.885  0.00  0.00     0.158 HD
ENDBRANCH   5   7
ENDBRANCH   3   5
ENDBRANCH   1   3
BRANCH   1  10
ATOM     10  C   UNL d   1      -1.848  -1.681   1.437  0.00  0.00     0.121 C 
BRANCH  10  11
ATOM     11  C   UNL d   1      -3.324  -1.776   1.460  0.00  0.00     0.014 A 
ATOM     12  C   UNL d   1      -4.088  -1.708   0.286  0.00  0.00     0.077 A 
ATOM     13  C   UNL d   1      -5.475  -1.790   0.340  0.00  0.00     0.037 A 
ATOM     14  C   UNL d   1      -6.112  -1.943   1.572  0.00  0.00     0.003 A 
ATOM     15  C   UNL d   1      -5.359  -2.016   2.745  0.00  0.00     0.001 A 
ATOM     16  C   UNL d   1      -3.965  -1.933   2.693  0.00  0.00     0.015 A 
BRANCH  12  17
ATOM     17  O   UNL d   1      -3.531  -1.560  -0.955  0.00  0.00    -0.360 OA
ATOM     18  H   UNL d   1      -2.561  -1.527  -0.821  0.00  0.00     0.217 HD
ENDBRANCH  12  17
ENDBRANCH  10  11
ENDBRANCH   1  10
TORSDOF 6
