REMARK  4 active torsions:
REMARK  status: ('A' for Active; 'I' for Inactive)
REMARK    1  A    between atoms: N_2  and  C_1 
REMARK    2  A    between atoms: C_3  and  C_6 
REMARK    3  A    between atoms: O_7  and  C_4 
REMARK    4  A    between atoms: C_8  and  O_7 
ROOT
ATOM      1  C   UNL d   1       1.374  -0.094  -0.073  0.00  0.00     0.137 A 
ATOM      2  C   UNL d   1       0.535  -1.220  -0.112  0.00  0.00     0.109 A 
ATOM      3  C   UNL d   1       0.817   1.199   0.036  0.00  0.00     0.055 A 
ATOM      4  C   UNL d   1      -0.574   1.378   0.091  0.00  0.00     0.050 A 
ATOM      5  C   UNL d   1      -0.854  -1.020  -0.168  0.00  0.00     0.040 A 
ATOM      6  C   UNL d   1      -1.402   0.257  -0.036  0.00  0.00     0.019 A 
ENDROOT
BRANCH   2   7
ATOM      7  O   UNL d   1       1.062  -2.493  -0.130  0.00  0.00    -0.305 OA
BRANCH   7   8
ATOM      8  C   UNL d   1       0.408  -3.507   0.540  0.00  0.00     0.114 A 
ATOM      9  C   UNL d   1      -0.250  -3.362   1.769  0.00  0.00     0.153 A 
ATOM     10  C   UNL d   1      -0.930  -4.429   2.347  0.00  0.00     0.087 A 
ATOM     11  F   UNL d   1      -0.261  -2.185   2.411  0.00  0.00    -0.203 F 
ATOM     12  C   UNL d   1      -0.903  -5.665   1.717  0.00  0.00     0.119 A 
ATOM     13  C   UNL d   1      -0.206  -5.849   0.526  0.00  0.00     0.045 A 
ATOM     14  F   UNL d   1      -1.555  -6.697   2.266  0.00  0.00    -0.206 F 
ATOM     15  C   UNL d   1       0.454  -4.768  -0.064  0.00  0.00     0.043 A 
ENDBRANCH   7   8
ENDBRANCH   2   7
BRANCH   1  16
ATOM     16  N   UNL d   1       2.841  -0.203  -0.156  0.00  0.00    -0.113 N 
ATOM     17  O   UNL d   1       3.350  -1.307  -0.393  0.00  0.00    -0.532 OA
ATOM     18  O   UNL d   1       3.496   0.839  -0.011  0.00  0.00    -0.532 OA
ENDBRANCH   1  16
BRANCH   4  19
ATOM     19  C   UNL d   1      -1.190   2.743   0.292  0.00  0.00     0.417 C 
ATOM     20  F   UNL d   1      -0.275   3.747   0.359  0.00  0.00    -0.166 F 
ATOM     21  F   UNL d   1      -2.045   3.077  -0.711  0.00  0.00    -0.166 F 
ATOM     22  F   UNL d   1      -1.912   2.815   1.443  0.00  0.00    -0.166 F 
ENDBRANCH   4  19
TORSDOF 4
