REMARK  4 active torsions:
REMARK  status: ('A' for Active; 'I' for Inactive)
REMARK    1  A    between atoms: N_20  and  C_8 
REMARK    2  A    between atoms: C_13  and  C_22 
REMARK    3  A    between atoms: O_24  and  C_15 
REMARK    4  A    between atoms: N_17  and  N_20 
ROOT
ATOM      1  C   UNL d   1       1.280  -0.801  -0.047  0.00  0.00     0.150 A 
ATOM      2  C   UNL d   1       0.834   0.506  -0.008  0.00  0.00     0.105 A 
ATOM      3  N   UNL d   1       2.562  -1.203  -0.097  0.00  0.00    -0.172 N 
ATOM      4  HN  UNL d   1       2.859  -2.179  -0.130  1.00  0.00     0.186 HD
ATOM      5  N   UNL d   1       0.181  -1.613  -0.031  0.00  0.00    -0.339 N 
ATOM      6  N   UNL d   1       1.727   1.521  -0.004  0.00  0.00    -0.282 N 
ATOM      7  HN  UNL d   1       1.437   2.498   0.030  1.00  0.00     0.187 HD
ATOM      8  C   UNL d   1       3.409  -0.146  -0.098  0.00  0.00     0.713 A 
ATOM      9  C   UNL d   1      -0.584   0.490   0.006  0.00  0.00     0.022 A 
ATOM     10  C   UNL d   1      -0.973  -0.855  -0.007  0.00  0.00     0.046 A 
ATOM     11  N   UNL d   1       3.018   1.163  -0.047  0.00  0.00    -0.130 N 
ATOM     12  HN  UNL d   1       3.733   1.890  -0.042  1.00  0.00     0.205 HD
ATOM     13  C   UNL d   1      -1.582   1.485   0.023  0.00  0.00     0.016 A 
ATOM     14  C   UNL d   1      -2.317  -1.249  -0.000  0.00  0.00     0.030 A 
ATOM     15  C   UNL d   1      -2.928   1.105   0.022  0.00  0.00     0.001 A 
ATOM     16  C   UNL d   1      -3.287  -0.241   0.013  0.00  0.00     0.002 A 
ATOM     17  H   UNL d   1       0.221  -2.620  -0.046  0.00  0.00     0.167 HD
ENDROOT
BRANCH   8  18
ATOM     18  N   UNL d   1       4.781  -0.470  -0.171  0.00  0.00    -0.131 N 
ATOM     19  H   UNL d   1       4.878  -1.466  -0.000  0.00  0.00     0.205 HD
BRANCH  18  20
ATOM     20  N   UNL d   1       5.665   0.403   0.387  0.00  0.00    -0.297 N 
ATOM     21  C   UNL d   1       6.909   0.046   0.325  0.00  0.00     0.122 C 
ATOM     22  HN  UNL d   1       5.369   1.276   0.823  1.00  0.00     0.186 HD
BRANCH  21  23
ATOM     23  C   UNL d   1       7.968   0.898   0.908  0.00  0.00     0.017 A 
ATOM     24  C   UNL d   1       9.313   0.525   0.819  0.00  0.00     0.094 A 
ATOM     25  C   UNL d   1      10.297   1.346   1.382  0.00  0.00     0.046 A 
ATOM     26 BR   UNL d   1      12.131   0.872   1.278  0.00  0.00    -0.048 Br
ATOM     27  C   UNL d   1       9.948   2.529   2.034  0.00  0.00     0.041 A 
ATOM     28  C   UNL d   1       8.605   2.892   2.119  0.00  0.00     0.013 A 
ATOM     29  C   UNL d   1       7.615   2.087   1.560  0.00  0.00     0.034 A 
ATOM     30 BR   UNL d   1       8.123   4.491   3.005  0.00  0.00    -0.051 Br
BRANCH  24  31
ATOM     31  O   UNL d   1       9.651  -0.641   0.182  0.00  0.00    -0.358 OA
ATOM     32  H   UNL d   1      10.623  -0.722   0.202  0.00  0.00     0.217 HD
ENDBRANCH  24  31
ENDBRANCH  21  23
ENDBRANCH  18  20
ENDBRANCH   8  18
TORSDOF 4
