REMARK  6 active torsions:
REMARK  status: ('A' for Active; 'I' for Inactive)
REMARK    1  A    between atoms: C_8  and  C_3 
REMARK    2  A    between atoms: C_6  and  C_4 
REMARK    3  A    between atoms: C_7  and  C_6 
REMARK       I    between atoms: N_10  and  C_7 
REMARK    4  A    between atoms: O_14  and  C_8 
REMARK    5  A    between atoms: C_15  and  N_10 
REMARK    6  A    between atoms: C_16  and  O_14 
ROOT
ATOM      1  N   UNL d   1       0.137   1.046   1.102  0.00  0.00    -0.345 N 
ATOM      2  C   UNL d   1       0.968  -0.042   1.198  0.00  0.00     0.232 C 
ATOM      3  C   UNL d   1      -1.301   1.023   0.761  0.00  0.00     0.193 C 
ATOM      4  C   UNL d   1       0.667  -1.236   0.300  0.00  0.00     0.148 C 
ATOM      5  S   UNL d   1      -1.061  -1.751   0.517  0.00  0.00    -0.152 SA
ATOM      6  C   UNL d   1      -1.785  -0.185  -0.054  0.00  0.00     0.110 C 
ATOM      7  O   UNL d   1       1.965   0.013   1.919  0.00  0.00    -0.272 OA
ATOM      8  H   UNL d   1       0.439   1.826   1.675  0.00  0.00     0.163 HD
ENDROOT
BRANCH   4   9
ATOM      9  C   UNL d   1       1.703  -2.351   0.383  0.00  0.00     0.128 C 
BRANCH   9  10
ATOM     10  C   UNL d   1       1.663  -3.258   1.596  0.00  0.00     0.223 C 
ATOM     11  N   UNL d   1       2.183  -2.690   2.743  0.00  0.00    -0.327 N 
ATOM     12  H   UNL d   1       2.351  -1.684   2.729  0.00  0.00     0.169 HD
ATOM     13  O   UNL d   1       1.247  -4.408   1.481  0.00  0.00    -0.273 OA
BRANCH  11  14
ATOM     14  C   UNL d   1       2.480  -3.358   3.953  0.00  0.00     0.034 A 
ATOM     15  C   UNL d   1       2.452  -4.748   4.101  0.00  0.00     0.029 A 
ATOM     16  C   UNL d   1       2.771  -5.344   5.325  0.00  0.00     0.002 A 
ATOM     17  C   UNL d   1       3.122  -4.555   6.417  0.00  0.00     0.000 A 
ATOM     18  C   UNL d   1       3.166  -3.170   6.280  0.00  0.00     0.002 A 
ATOM     19  C   UNL d   1       2.855  -2.575   5.052  0.00  0.00     0.029 A 
ENDBRANCH  11  14
ENDBRANCH   9  10
ENDBRANCH   4   9
BRANCH   3  20
ATOM     20  C   UNL d   1      -1.758   2.271  -0.014  0.00  0.00     0.282 C 
ATOM     21  O   UNL d   1      -2.908   2.441  -0.397  0.00  0.00    -0.263 OA
BRANCH  20  22
ATOM     22  O   UNL d   1      -0.721   3.118  -0.278  0.00  0.00    -0.320 OA
BRANCH  22  23
ATOM     23  C   UNL d   1      -0.993   4.177  -1.210  0.00  0.00     0.174 C 
ATOM     24  C   UNL d   1      -0.595   3.717  -2.601  0.00  0.00     0.034 C 
ENDBRANCH  22  23
ENDBRANCH  20  22
ENDBRANCH   3  20
TORSDOF 6
