REMARK  1 active torsions:
REMARK  status: ('A' for Active; 'I' for Inactive)
REMARK    1  A    between atoms: C_4  and  N_1 
ROOT
ATOM      1  N   UNL d   1      -2.770   0.197   0.566  0.00  0.00    -0.249 N 
ATOM      2  C   UNL d   1      -2.497  -0.804  -0.361  0.00  0.00     0.232 C 
ATOM      3  C   UNL d   1      -1.788   1.067   1.035  0.00  0.00     0.232 C 
ATOM      4  C   UNL d   1      -1.099  -1.386  -0.339  0.00  0.00     0.113 C 
ATOM      5  C   UNL d   1      -0.440   0.418   1.238  0.00  0.00     0.113 C 
ATOM      6  C   UNL d   1       0.027  -0.415   0.042  0.00  0.00    -0.024 C 
ATOM      7  O   UNL d   1      -1.959   2.236   1.378  0.00  0.00    -0.273 OA
ATOM      8  O   UNL d   1      -3.325  -1.251  -1.161  0.00  0.00    -0.273 OA
ATOM      9  C   UNL d   1       1.261  -1.264   0.451  0.00  0.00     0.010 C 
ATOM     10  C   UNL d   1       0.419   0.479  -1.160  0.00  0.00     0.010 C 
ATOM     11  C   UNL d   1       2.503  -0.426   0.738  0.00  0.00     0.001 C 
ATOM     12  C   UNL d   1       1.679   1.314  -0.909  0.00  0.00     0.001 C 
ATOM     13  C   UNL d   1       2.859   0.463  -0.447  0.00  0.00     0.000 C 
ENDROOT
BRANCH   1  14
ATOM     14  C   UNL d   1      -4.137   0.407   0.931  0.00  0.00     0.084 A 
ATOM     15  C   UNL d   1      -4.880  -0.701   1.379  0.00  0.00     0.144 A 
ATOM     16  C   UNL d   1      -6.165  -0.564   1.895  0.00  0.00     0.062 A 
ATOM     17  F   UNL d   1      -4.308  -1.914   1.436  0.00  0.00    -0.204 F 
ATOM     18  C   UNL d   1      -6.739   0.701   1.954  0.00  0.00     0.009 A 
ATOM     19  C   UNL d   1      -6.035   1.816   1.494  0.00  0.00     0.020 A 
ATOM     20  I   UNL d   1      -8.632   0.934   2.774  0.00  0.00    -0.044 I 
ATOM     21  C   UNL d   1      -4.734   1.671   0.996  0.00  0.00     0.034 A 
ENDBRANCH   1  14
TORSDOF 1
