REMARK  4 active torsions:
REMARK  status: ('A' for Active; 'I' for Inactive)
REMARK    1  A    between atoms: C_4  and  C_1 
REMARK       I    between atoms: C_2  and  N_3 
REMARK    2  A    between atoms: C_7  and  C_2 
REMARK    3  A    between atoms: C_10  and  C_4 
REMARK    4  A    between atoms: O_25  and  C_20 
ROOT
ATOM      1  C   UNL d   1       3.008  -6.420  -2.046  0.00  0.00     0.253 C 
ATOM      2  N   UNL d   1       2.965  -5.156  -1.430  0.00  0.00    -0.348 N 
ATOM      3  C   UNL d   1       2.584  -2.699   0.059  0.00  0.00     0.064 C 
ATOM      4  C   UNL d   1       1.818  -4.284  -1.646  0.00  0.00     0.127 C 
ATOM      5  C   UNL d   1       3.637  -4.982  -0.125  0.00  0.00     0.127 C 
ATOM      6  O   UNL d   1       3.554  -7.396  -1.539  0.00  0.00    -0.267 OA
ATOM      7  C   UNL d   1       2.224  -2.846  -1.421  0.00  0.00     0.032 C 
ATOM      8  C   UNL d   1       3.888  -3.493   0.247  0.00  0.00     0.032 C 
ENDROOT
BRANCH   3   9
ATOM      9  C   UNL d   1       2.532  -1.214   0.395  0.00  0.00     0.164 C 
ATOM     10  O   UNL d   1       3.491  -0.498   0.086  0.00  0.00    -0.292 OA
BRANCH   9  11
ATOM     11  C   UNL d   1       1.258  -0.619   1.018  0.00  0.00     0.022 A 
ATOM     12  C   UNL d   1       1.381   0.519   1.869  0.00  0.00    -0.047 A 
ATOM     13  C   UNL d   1       0.223   1.112   2.437  0.00  0.00     0.014 A 
ATOM     14  C   UNL d   1       2.679   1.135   2.336  0.00  0.00     0.049 C 
ATOM     15  C   UNL d   1      -1.056   0.642   2.168  0.00  0.00    -0.061 A 
ATOM     16  C   UNL d   1      -1.179  -0.461   1.343  0.00  0.00     0.014 A 
ATOM     17  C   UNL d   1      -2.280   1.253   2.776  0.00  0.00     0.048 C 
ATOM     18  C   UNL d   1      -0.064  -1.116   0.777  0.00  0.00    -0.047 A 
ATOM     19  C   UNL d   1      -0.503  -2.263  -0.093  0.00  0.00     0.049 C 
ENDBRANCH   9  11
ENDBRANCH   3   9
BRANCH   1  20
ATOM     20  C   UNL d   1       2.333  -6.579  -3.373  0.00  0.00     0.032 A 
ATOM     21  C   UNL d   1       2.407  -5.573  -4.348  0.00  0.00     0.020 A 
ATOM     22  C   UNL d   1       1.625  -5.644  -5.505  0.00  0.00     0.038 A 
ATOM     23  C   UNL d   1       0.827  -6.763  -5.736  0.00  0.00     0.068 A 
ATOM     24  C   UNL d   1       0.847  -7.822  -4.822  0.00  0.00     0.038 A 
ATOM     25  C   UNL d   1       1.584  -7.729  -3.635  0.00  0.00     0.020 A 
BRANCH  23  26
ATOM     26  O   UNL d   1       0.041  -6.945  -6.840  0.00  0.00    -0.356 OA
ATOM     27  C   UNL d   1      -0.536  -5.763  -7.389  0.00  0.00     0.210 C 
ENDBRANCH  23  26
ENDBRANCH   1  20
TORSDOF 4
