REMARK  3 active torsions:
REMARK  status: ('A' for Active; 'I' for Inactive)
REMARK    1  A    between atoms: N_2  and  C_1 
REMARK    2  A    between atoms: N_6  and  C_3 
REMARK    3  A    between atoms: C_4  and  C_7 
ROOT
ATOM      1  C   UNL d   1       1.416  -0.250   0.076  0.00  0.00     0.130 A 
ATOM      2  C   UNL d   1       0.578  -1.376  -0.013  0.00  0.00     0.063 A 
ATOM      3  C   UNL d   1       0.921   1.069   0.178  0.00  0.00     0.054 A 
ATOM      4  C   UNL d   1      -0.458   1.306   0.194  0.00  0.00     0.050 A 
ATOM      5  C   UNL d   1      -0.805  -1.093   0.007  0.00  0.00     0.032 A 
ATOM      6  C   UNL d   1      -1.317   0.208   0.102  0.00  0.00     0.018 A 
ENDROOT
BRANCH   2   7
ATOM      7  N   UNL d   1       0.936  -2.720  -0.068  0.00  0.00    -0.377 N 
ATOM      8  C   UNL d   1       2.160  -3.256   0.555  0.00  0.00     0.133 C 
ATOM      9  C   UNL d   1       1.907  -4.658   1.130  0.00  0.00     0.093 C 
ATOM     10  S   UNL d   1       1.362  -5.865  -0.130  0.00  0.00    -0.166 SA
ATOM     11  C   UNL d   1       0.013  -4.876  -0.859  0.00  0.00     0.093 C 
ATOM     12  C   UNL d   1       0.480  -3.473  -1.259  0.00  0.00     0.133 C 
ENDBRANCH   2   7
BRANCH   1  13
ATOM     13  N   UNL d   1       2.861  -0.364   0.001  0.00  0.00    -0.113 N 
ATOM     14  O   UNL d   1       3.348  -0.792  -1.055  0.00  0.00    -0.532 OA
ATOM     15  O   UNL d   1       3.504   0.018   0.987  0.00  0.00    -0.532 OA
ENDBRANCH   1  13
BRANCH   4  16
ATOM     16  C   UNL d   1      -1.025   2.700   0.310  0.00  0.00     0.417 C 
ATOM     17  F   UNL d   1      -0.072   3.666   0.408  0.00  0.00    -0.166 F 
ATOM     18  F   UNL d   1      -1.793   3.036  -0.762  0.00  0.00    -0.166 F 
ATOM     19  F   UNL d   1      -1.822   2.844   1.404  0.00  0.00    -0.166 F 
ENDBRANCH   4  16
TORSDOF 3
