REMARK  5 active torsions:
REMARK  status: ('A' for Active; 'I' for Inactive)
REMARK    1  A    between atoms: C_9  and  N_6 
REMARK    2  A    between atoms: C_10  and  C_9 
REMARK       I    between atoms: N_13  and  C_10 
REMARK       I    between atoms: C_11  and  N_12 
REMARK       I    between atoms: N_16  and  C_11 
REMARK    3  A    between atoms: N_12  and  N_13 
REMARK    4  A    between atoms: C_22  and  N_16 
REMARK    5  A    between atoms: C_23  and  C_22 
ROOT
ATOM      1  C   UNL d   1       1.788   1.075   0.108  0.00  0.00     0.272 C 
ENDROOT
BRANCH   1   2
ATOM      2  N   UNL d   1       0.606   0.265   0.331  0.00  0.00    -0.194 N 
ATOM      3  N   UNL d   1       0.471  -1.025  -0.048  0.00  0.00    -0.115 N 
ATOM      4  C   UNL d   1      -0.846  -1.201   0.130  0.00  0.00     0.709 A 
ATOM      5  HN  UNL d   1       1.177  -1.683  -0.377  1.00  0.00     0.207 HD
ATOM      6  N   UNL d   1      -1.474  -0.056   0.561  0.00  0.00    -0.113 N 
ATOM      7  N   UNL d   1      -1.571  -2.337  -0.084  0.00  0.00    -0.211 N 
ATOM      8  N   UNL d   1      -0.545   0.878   0.673  0.00  0.00     0.011 NA
ATOM      9  HN  UNL d   1      -2.469   0.052   0.758  1.00  0.00     0.203 HD
ATOM     10  C   UNL d   1      -2.998  -2.164  -0.430  0.00  0.00     0.167 C 
ATOM     11  C   UNL d   1      -0.901  -3.429  -0.799  0.00  0.00     0.167 C 
ATOM     12  C   UNL d   1      -3.752  -3.503  -0.528  0.00  0.00     0.188 C 
ATOM     13  O   UNL d   1      -3.049  -4.494  -1.285  0.00  0.00    -0.388 OA
ATOM     14  C   UNL d   1      -1.742  -4.712  -0.732  0.00  0.00     0.188 C 
ENDBRANCH   1   2
BRANCH   1  15
ATOM     15  C   UNL d   1       3.150   0.424   0.136  0.00  0.00     0.257 C 
ATOM     16  N   UNL d   1       3.295  -0.876  -0.272  0.00  0.00    -0.265 N 
ATOM     17  H   UNL d   1       2.513  -1.503  -0.492  0.00  0.00     0.190 HD
ATOM     18  O   UNL d   1       4.148   1.107   0.415  0.00  0.00    -0.270 OA
BRANCH  16  19
ATOM     19  N   UNL d   1       4.614  -1.417  -0.329  0.00  0.00    -0.249 N 
ATOM     20  C   UNL d   1       4.881  -2.398  -1.271  0.00  0.00     0.334 C 
ATOM     21  O   UNL d   1       4.018  -2.937  -1.953  0.00  0.00    -0.246 OA
ATOM     22  N   UNL d   1       6.224  -2.688  -1.341  0.00  0.00    -0.342 N 
ATOM     23  H   UNL d   1       6.836  -2.123  -0.771  0.00  0.00     0.164 HD
ATOM     24  H   UNL d   1       5.327  -0.707  -0.183  0.00  0.00     0.192 HD
BRANCH  22  25
ATOM     25  C   UNL d   1       6.848  -3.401  -2.448  0.00  0.00     0.124 C 
BRANCH  25  26
ATOM     26  C   UNL d   1       6.904  -4.928  -2.342  0.00  0.00     0.015 C 
ATOM     27  C   UNL d   1       5.684  -5.653  -2.890  0.00  0.00     0.006 C 
ENDBRANCH  25  26
ENDBRANCH  22  25
ENDBRANCH  16  19
ENDBRANCH   1  15
TORSDOF 5
