REMARK  3 active torsions:
REMARK  status: ('A' for Active; 'I' for Inactive)
REMARK    1  A    between atoms: N_3  and  C_1 
REMARK       I    between atoms: C_2  and  N_3 
REMARK       I    between atoms: N_7  and  C_2 
REMARK    2  A    between atoms: C_9  and  N_3 
REMARK    3  A    between atoms: C_11  and  N_7 
ROOT
ATOM      1  C   UNL d   1       3.502   0.997  -0.352  0.00  0.00     0.333 C 
ATOM      2  N   UNL d   1       2.127   1.423  -0.250  0.00  0.00    -0.244 N 
ATOM      3  N   UNL d   1       3.656  -0.352  -0.637  0.00  0.00    -0.308 N 
ATOM      4  O   UNL d   1       4.465   1.749  -0.203  0.00  0.00    -0.246 OA
ATOM      5  H   UNL d   1       2.825  -0.915  -0.518  0.00  0.00     0.170 HD
ENDROOT
BRANCH   2   6
ATOM      6  C   UNL d   1       1.009   0.586  -0.026  0.00  0.00     0.151 C 
ATOM      7  N   UNL d   1      -0.210   0.894  -0.331  0.00  0.00    -0.369 N 
ATOM      8  C   UNL d   1      -1.141  -0.208  -0.031  0.00  0.00     0.137 C 
ATOM      9  HN  UNL d   1      -0.492   1.789  -0.729  1.00  0.00     0.161 HD
ATOM     10  C   UNL d   1      -0.555  -1.120   1.038  0.00  0.00     0.069 C 
ATOM     11  S   UNL d   1       1.213  -0.992   0.720  0.00  0.00    -0.087 SA
ATOM     12  C   UNL d   1      -0.850  -0.654   2.457  0.00  0.00     0.023 C 
ENDBRANCH   2   6
BRANCH   2  13
ATOM     13  C   UNL d   1       1.870   2.866  -0.338  0.00  0.00     0.046 A 
ATOM     14  C   UNL d   1       2.691   3.726  -1.089  0.00  0.00     0.030 A 
ATOM     15  C   UNL d   1       2.430   5.103  -1.171  0.00  0.00     0.002 A 
ATOM     16  C   UNL d   1       1.336   5.653  -0.513  0.00  0.00     0.000 A 
ATOM     17  C   UNL d   1       0.511   4.828   0.241  0.00  0.00     0.002 A 
ATOM     18  C   UNL d   1       0.782   3.458   0.334  0.00  0.00     0.030 A 
ENDBRANCH   2  13
BRANCH   3  19
ATOM     19  C   UNL d   1       4.821  -1.090  -0.916  0.00  0.00     0.036 A 
ATOM     20  C   UNL d   1       6.078  -0.531  -1.139  0.00  0.00     0.031 A 
ATOM     21  C   UNL d   1       7.153  -1.346  -1.514  0.00  0.00     0.026 A 
ATOM     22  C   UNL d   1       6.977  -2.721  -1.660  0.00  0.00     0.034 A 
ATOM     23  C   UNL d   1       5.738  -3.299  -1.397  0.00  0.00     0.026 A 
ATOM     24 CL   UNL d   1       8.284  -3.711  -2.179  0.00  0.00    -0.084 Cl
ATOM     25  C   UNL d   1       4.667  -2.482  -1.025  0.00  0.00     0.031 A 
ENDBRANCH   3  19
TORSDOF 3
