REMARK  11 active torsions:
REMARK  status: ('A' for Active; 'I' for Inactive)
REMARK    1  A    between atoms: C_4  and  C_1 
REMARK    2  A    between atoms: C_2  and  N_5 
REMARK    3  A    between atoms: N_6  and  C_2 
REMARK    4  A    between atoms: C_3  and  N_7 
REMARK    5  A    between atoms: N_15  and  C_3 
REMARK    6  A    between atoms: N_5  and  C_11 
REMARK    7  A    between atoms: N_7  and  N_6 
REMARK    8  A    between atoms: C_20  and  N_15 
REMARK    9  A    between atoms: C_16  and  C_20 
REMARK   10  A    between atoms: C_22  and  C_16 
REMARK   11  A    between atoms: O_19  and  C_22 
ROOT
ATOM      1  C   UNL d   1       1.716  -5.131  -1.710  0.00  0.00     0.191 C 
ATOM      2  S   UNL d   1       3.118  -5.055  -2.632  0.00  0.00    -0.039 SA
ENDROOT
BRANCH   1   3
ATOM      3  N   UNL d   1       1.097  -6.350  -1.644  0.00  0.00    -0.332 N 
ATOM      4  H   UNL d   1       1.629  -7.054  -2.145  0.00  0.00     0.168 HD
BRANCH   3   5
ATOM      5  C   UNL d   1      -0.029  -6.822  -0.940  0.00  0.00     0.035 C 
ATOM      6  C   UNL d   1      -0.991  -6.012  -0.337  0.00  0.00     0.045 C 
ATOM      7  C   UNL d   1      -1.925  -6.559   0.557  0.00  0.00     0.050 C 
ATOM      8  C   UNL d   1      -1.987  -7.943   0.726  0.00  0.00     0.016 C 
ATOM      9  C   UNL d   1      -1.116  -8.773   0.020  0.00  0.00     0.003 C 
ATOM     10  C   UNL d   1      -0.138  -8.209  -0.801  0.00  0.00     0.029 C 
BRANCH   7  11
ATOM     11  C   UNL d   1      -2.805  -5.654   1.390  0.00  0.00     0.417 C 
ATOM     12  F   UNL d   1      -2.617  -4.328   1.134  0.00  0.00    -0.166 F 
ATOM     13  F   UNL d   1      -2.563  -5.803   2.724  0.00  0.00    -0.166 F 
ATOM     14  F   UNL d   1      -4.129  -5.891   1.218  0.00  0.00    -0.166 F 
ENDBRANCH   7  11
ENDBRANCH   3   5
ENDBRANCH   1   3
BRANCH   1  15
ATOM     15  N   UNL d   1       1.174  -4.088  -1.003  0.00  0.00    -0.274 N 
ATOM     16  H   UNL d   1       0.715  -4.296  -0.127  0.00  0.00     0.189 HD
BRANCH  15  17
ATOM     17  N   UNL d   1       1.656  -2.780  -1.110  0.00  0.00    -0.274 N 
ATOM     18  H   UNL d   1       2.370  -2.507  -0.445  0.00  0.00     0.189 HD
BRANCH  17  19
ATOM     19  C   UNL d   1       1.335  -1.954  -2.185  0.00  0.00     0.186 C 
ATOM     20  S   UNL d   1       0.244  -2.337  -3.398  0.00  0.00    -0.040 SA
BRANCH  19  21
ATOM     21  N   UNL d   1       2.026  -0.760  -2.090  0.00  0.00    -0.366 N 
ATOM     22  H   UNL d   1       2.627  -0.629  -1.290  0.00  0.00     0.161 HD
BRANCH  21  23
ATOM     23  C   UNL d   1       1.909   0.403  -2.961  0.00  0.00     0.124 C 
BRANCH  23  24
ATOM     24  C   UNL d   1       0.618   1.191  -2.739  0.00  0.00     0.046 C 
BRANCH  24  25
ATOM     25  C   UNL d   1       0.378   1.552  -1.279  0.00  0.00     0.168 C 
BRANCH  25  26
ATOM     26  O   UNL d   1       1.456   2.359  -0.806  0.00  0.00    -0.396 OA
ATOM     27  C   UNL d   1       1.283   2.708   0.560  0.00  0.00     0.201 C 
ENDBRANCH  25  26
ENDBRANCH  24  25
ENDBRANCH  23  24
ENDBRANCH  21  23
ENDBRANCH  19  21
ENDBRANCH  17  19
ENDBRANCH  15  17
ENDBRANCH   1  15
TORSDOF 11
