REMARK  7 active torsions:
REMARK  status: ('A' for Active; 'I' for Inactive)
REMARK    1  A    between atoms: C_7  and  S_1 
REMARK    2  A    between atoms: C_10  and  S_1 
REMARK    3  A    between atoms: C_5  and  C_2 
REMARK    4  A    between atoms: N_6  and  C_11 
REMARK    5  A    between atoms: C_14  and  C_7 
REMARK    6  A    between atoms: C_11  and  C_14 
REMARK    7  A    between atoms: O_23  and  C_14 
ROOT
ATOM      1  C   UNL d   1       0.920   2.327   0.933  0.00  0.00     0.152 C 
ENDROOT
BRANCH   1   2
ATOM      2  C   UNL d   1       2.438   2.288   1.200  0.00  0.00     0.180 C 
BRANCH   2   3
ATOM      3  N   UNL d   1       3.305   2.917   0.217  0.00  0.00    -0.300 N 
ATOM      4  N   UNL d   1       2.920   4.075  -0.360  0.00  0.00    -0.295 N 
ATOM      5  C   UNL d   1       4.082   4.684  -0.683  0.00  0.00     0.133 C 
ATOM      6  HN  UNL d   1       1.970   4.412  -0.517  1.00  0.00     0.187 HD
ATOM      7  C   UNL d   1       5.181   3.803  -0.492  0.00  0.00     0.054 C 
ATOM      8  C   UNL d   1       4.644   2.674   0.080  0.00  0.00     0.112 C 
BRANCH   5   9
ATOM      9  C   UNL d   1       4.175   6.137  -1.071  0.00  0.00     0.433 C 
ATOM     10  F   UNL d   1       2.966   6.754  -1.141  0.00  0.00    -0.165 F 
ATOM     11  F   UNL d   1       4.912   6.834  -0.160  0.00  0.00    -0.165 F 
ATOM     12  F   UNL d   1       4.783   6.316  -2.273  0.00  0.00    -0.165 F 
ENDBRANCH   5   9
ENDBRANCH   2   3
ENDBRANCH   1   2
BRANCH   1  13
ATOM     13  C   UNL d   1       0.397   1.566  -0.281  0.00  0.00     0.179 C 
BRANCH  13  14
ATOM     14  S   UNL d   1       0.806  -0.162  -0.211  0.00  0.00     0.178 S 
ATOM     15  O   UNL d   1       0.159  -0.726   0.953  0.00  0.00    -0.223 OA
ATOM     16  O   UNL d   1       2.242  -0.293  -0.398  0.00  0.00    -0.223 OA
BRANCH  14  17
ATOM     17  C   UNL d   1       0.060  -0.876  -1.656  0.00  0.00     0.059 A 
ATOM     18  C   UNL d   1       0.515  -0.469  -2.915  0.00  0.00     0.025 A 
ATOM     19  C   UNL d   1      -0.084  -0.990  -4.063  0.00  0.00     0.025 A 
ATOM     20  C   UNL d   1      -1.109  -1.929  -3.946  0.00  0.00     0.034 A 
ATOM     21  C   UNL d   1      -1.515  -2.384  -2.690  0.00  0.00     0.025 A 
ATOM     22 CL   UNL d   1      -1.888  -2.516  -5.362  0.00  0.00    -0.084 Cl
ATOM     23  C   UNL d   1      -0.929  -1.857  -1.535  0.00  0.00     0.025 A 
ENDBRANCH  14  17
ENDBRANCH  13  14
ENDBRANCH   1  13
BRANCH   1  24
ATOM     24  O   UNL d   1       0.441   3.681   0.849  0.00  0.00    -0.393 OA
ATOM     25  H   UNL d   1       1.018   4.153   0.206  0.00  0.00     0.210 HD
ENDBRANCH   1  24
TORSDOF 7
