REMARK  3 active torsions:
REMARK  status: ('A' for Active; 'I' for Inactive)
REMARK    1  A    between atoms: N_6  and  C_1 
REMARK    2  A    between atoms: C_17  and  N_5 
REMARK    3  A    between atoms: C_16  and  C_17 
ROOT
ATOM      1  C   UNL d   1       0.926  -0.813   0.039  0.00  0.00     0.150 A 
ATOM      2  C   UNL d   1      -0.410  -1.162  -0.051  0.00  0.00     0.107 A 
ATOM      3  N   UNL d   1      -0.294   1.103   0.098  0.00  0.00    -0.306 N 
ATOM      4  HN  UNL d   1      -0.549   2.089   0.153  1.00  0.00     0.186 HD
ATOM      5  N   UNL d   1       0.947   0.566   0.113  0.00  0.00    -0.274 N 
ATOM      6  C   UNL d   1      -1.109   0.054  -0.007  0.00  0.00     0.134 A 
ATOM      7  C   UNL d   1      -1.010  -2.454  -0.098  0.00  0.00     0.105 C 
ATOM      8  N   UNL d   1      -1.507  -3.502  -0.136  0.00  0.00    -0.191 NA
ENDROOT
BRANCH   1   9
ATOM      9  N   UNL d   1       2.046  -1.652   0.028  0.00  0.00    -0.317 N 
ATOM     10  C   UNL d   1       2.124  -2.899  -0.564  0.00  0.00     0.098 A 
ATOM     11  C   UNL d   1       3.405  -3.391  -0.440  0.00  0.00     0.019 A 
ATOM     12  C   UNL d   1       4.136  -2.453   0.309  0.00  0.00     0.019 A 
ATOM     13  C   UNL d   1       3.280  -1.415   0.603  0.00  0.00     0.098 A 
ENDBRANCH   1   9
BRANCH   5  14
ATOM     14  C   UNL d   1       2.086   1.472   0.026  0.00  0.00     0.165 C 
BRANCH  14  15
ATOM     15  C   UNL d   1       1.722   2.947  -0.151  0.00  0.00     0.146 C 
ATOM     16  C   UNL d   1       2.942   3.760  -0.226  0.00  0.00     0.060 C 
ATOM     17  N   UNL d   1       3.916   4.385  -0.279  0.00  0.00    -0.197 NA
ENDBRANCH  14  15
ENDBRANCH   5  14
TORSDOF 3
