REMARK  9 active torsions:
REMARK  status: ('A' for Active; 'I' for Inactive)
REMARK    1  A    between atoms: C_3  and  C_1 
REMARK    2  A    between atoms: O_13  and  C_1 
REMARK       I    between atoms: C_2  and  N_4 
REMARK    3  A    between atoms: C_17  and  C_2 
REMARK    4  A    between atoms: N_4  and  C_12 
REMARK    5  A    between atoms: C_5  and  C_18 
REMARK    6  A    between atoms: O_14  and  C_5 
REMARK    7  A    between atoms: S_11  and  C_17 
REMARK    8  A    between atoms: C_18  and  S_11 
REMARK    9  A    between atoms: C_19  and  O_13 
ROOT
ATOM      1  C   UNL d   1       0.194   0.342   1.076  0.00  0.00     0.039 A 
ATOM      2  C   UNL d   1       0.500   1.530   1.753  0.00  0.00     0.020 A 
ATOM      3  C   UNL d   1      -0.900  -0.415   1.503  0.00  0.00     0.020 A 
ATOM      4  C   UNL d   1      -1.319   1.144   3.324  0.00  0.00     0.034 A 
ATOM      5  C   UNL d   1      -0.259   1.933   2.863  0.00  0.00     0.030 A 
ATOM      6  C   UNL d   1      -1.647  -0.015   2.616  0.00  0.00     0.030 A 
ENDROOT
BRANCH   4   7
ATOM      7  N   UNL d   1      -2.006   1.561   4.486  0.00  0.00    -0.327 N 
ATOM      8  C   UNL d   1      -2.879   0.793   5.236  0.00  0.00     0.231 C 
ATOM      9  O   UNL d   1      -3.177  -0.386   5.028  0.00  0.00    -0.272 OA
ATOM     10  H   UNL d   1      -1.775   2.484   4.837  0.00  0.00     0.169 HD
BRANCH   8  11
ATOM     11  C   UNL d   1      -3.542   1.526   6.390  0.00  0.00     0.177 C 
BRANCH  11  12
ATOM     12  S   UNL d   1      -5.161   2.185   5.873  0.00  0.00    -0.149 SA
BRANCH  12  13
ATOM     13  C   UNL d   1      -5.987   0.680   5.242  0.00  0.00     0.184 C 
BRANCH  13  14
ATOM     14  C   UNL d   1      -6.176  -0.379   6.306  0.00  0.00     0.149 C 
ATOM     15  O   UNL d   1      -7.122  -0.401   7.082  0.00  0.00    -0.649 OA
BRANCH  14  16
ATOM     16  O   UNL d   1      -5.198  -1.313   6.351  0.00  0.00    -0.776 OA
ATOM     17  H   UNL d   1      -4.460  -1.179   5.706  0.00  0.00     0.167 HD
ENDBRANCH  14  16
ENDBRANCH  13  14
ENDBRANCH  12  13
ENDBRANCH  11  12
ENDBRANCH   8  11
ENDBRANCH   4   7
BRANCH   1  18
ATOM     18  C   UNL d   1       1.045  -0.070  -0.076  0.00  0.00     0.293 C 
ATOM     19  O   UNL d   1       1.939   0.621  -0.531  0.00  0.00    -0.259 OA
BRANCH  18  20
ATOM     20  O   UNL d   1       0.688  -1.307  -0.509  0.00  0.00    -0.318 OA
BRANCH  20  21
ATOM     21  C   UNL d   1       1.417  -1.820  -1.636  0.00  0.00     0.174 C 
ATOM     22  C   UNL d   1       2.693  -2.504  -1.183  0.00  0.00     0.034 C 
ENDBRANCH  20  21
ENDBRANCH  18  20
ENDBRANCH   1  18
TORSDOF 9
