REMARK  10 active torsions:
REMARK  status: ('A' for Active; 'I' for Inactive)
REMARK    1  A    between atoms: C_7  and  C_1 
REMARK    2  A    between atoms: C_6  and  O_9 
REMARK       I    between atoms: N_8  and  C_6 
REMARK    3  A    between atoms: O_9  and  C_7 
REMARK    4  A    between atoms: CA_13  and  N_8 
REMARK    5  A    between atoms: O_11  and  C_14 
REMARK    6  A    between atoms: C_12  and  O_11 
REMARK    7  A    between atoms: C_15  and  CA_13 
REMARK    8  A    between atoms: C_26  and  CA_13 
REMARK    9  A    between atoms: C_16  and  C_15 
REMARK   10  A    between atoms: O_25  and  C_26 
ROOT
ATOM      1  C   UNL d   1      -1.426   4.477   2.262  0.00  0.00     0.360 C 
ATOM      2  N   UNL d   1      -0.393   4.837   3.080  0.00  0.00    -0.330 N 
ATOM      3  O   UNL d   1      -2.530   4.984   2.371  0.00  0.00    -0.239 OA
ATOM      4  H   UNL d   1      -0.660   5.496   3.800  0.00  0.00     0.165 HD
ENDROOT
BRANCH   2   5
ATOM      5  CA  UNL d   1       0.940   4.236   3.158  0.00  0.00     0.114 C 
BRANCH   5   6
ATOM      6  C   UNL d   1       1.862   4.613   1.981  0.00  0.00     0.065 C 
BRANCH   6   7
ATOM      7  C   UNL d   1       2.204   6.067   1.731  0.00  0.00    -0.056 C 
ATOM      8  C   UNL d   1       3.542   6.464   1.597  0.00  0.00     0.010 C 
ATOM      9  C   UNL d   1       3.863   7.707   1.035  0.00  0.00     0.037 C 
ATOM     10  C   UNL d   1       2.852   8.565   0.601  0.00  0.00     0.069 C 
ATOM     11  C   UNL d   1       1.536   8.253   0.906  0.00  0.00     0.037 C 
ATOM     12  C   UNL d   1       1.208   7.003   1.435  0.00  0.00     0.010 C 
BRANCH  10  13
ATOM     13  O   UNL d   1       3.246   9.670  -0.096  0.00  0.00    -0.341 OA
BRANCH  13  14
ATOM     14  C   UNL d   1       2.532  10.046  -1.302  0.00  0.00     0.057 C 
ATOM     15  C   UNL d   1       1.314  10.918  -0.968  0.00  0.00     0.045 C 
ATOM     16  C   UNL d   1       3.524  10.924  -2.094  0.00  0.00     0.045 C 
ATOM     17  C   UNL d   1       2.156   8.865  -2.217  0.00  0.00     0.045 C 
ENDBRANCH  13  14
ENDBRANCH  10  13
ENDBRANCH   6   7
ENDBRANCH   5   6
BRANCH   5  18
ATOM     18  C   UNL d   1       1.617   4.542   4.509  0.00  0.00     0.189 C 
BRANCH  18  19
ATOM     19  O   UNL d   1       0.886   3.922   5.568  0.00  0.00    -0.399 OA
ATOM     20  H   UNL d   1       1.375   4.086   6.393  0.00  0.00     0.209 HD
ENDBRANCH  18  19
ENDBRANCH   5  18
ENDBRANCH   2   5
BRANCH   1  21
ATOM     21  O   UNL d   1      -1.100   3.523   1.353  0.00  0.00    -0.303 OA
BRANCH  21  22
ATOM     22  C   UNL d   1      -2.210   2.897   0.674  0.00  0.00     0.194 C 
BRANCH  22  23
ATOM     23  C   UNL d   1      -2.865   3.734  -0.439  0.00  0.00     0.078 A 
ATOM     24  C   UNL d   1      -1.977   4.011  -1.651  0.00  0.00    -0.036 A 
ATOM     25  C   UNL d   1      -2.567   3.488  -2.824  0.00  0.00    -0.018 A 
ATOM     26  C   UNL d   1      -0.801   4.742  -1.710  0.00  0.00     0.009 A 
ATOM     27  C   UNL d   1      -1.982   3.693  -4.067  0.00  0.00     0.013 A 
ATOM     28  C   UNL d   1      -3.803   2.831  -2.480  0.00  0.00    -0.018 A 
ATOM     29  C   UNL d   1      -0.801   4.437  -4.129  0.00  0.00     0.001 A 
ATOM     30  C   UNL d   1      -0.216   4.954  -2.963  0.00  0.00     0.001 A 
ATOM     31  C   UNL d   1      -4.025   2.970  -1.090  0.00  0.00    -0.036 A 
ATOM     32  C   UNL d   1      -4.715   2.152  -3.277  0.00  0.00     0.013 A 
ATOM     33  C   UNL d   1      -5.173   2.467  -0.502  0.00  0.00     0.009 A 
ATOM     34  C   UNL d   1      -6.093   1.788  -1.306  0.00  0.00     0.001 A 
ATOM     35  C   UNL d   1      -5.863   1.629  -2.683  0.00  0.00     0.001 A 
ENDBRANCH  22  23
ENDBRANCH  21  22
ENDBRANCH   1  21
TORSDOF 10
