REMARK  6 active torsions:
REMARK  status: ('A' for Active; 'I' for Inactive)
REMARK    1  A    between atoms: C_7  and  N_1 
REMARK    2  A    between atoms: C_10  and  C_6 
REMARK    3  A    between atoms: C_13  and  N_8 
REMARK    4  A    between atoms: O_20  and  C_10 
REMARK    5  A    between atoms: S_18  and  C_16 
REMARK    6  A    between atoms: S_19  and  C_17 
ROOT
ATOM      1  N   UNL d   1       0.420  -1.065   0.213  0.00  0.00    -0.257 N 
ATOM      2  C   UNL d   1      -0.924  -0.861   0.469  0.00  0.00     0.160 C 
ATOM      3  C   UNL d   1       0.212   1.183  -0.477  0.00  0.00     0.082 C 
ATOM      4  C   UNL d   1       1.121   0.012  -0.333  0.00  0.00     0.271 C 
ATOM      5  S   UNL d   1      -1.243   0.862   0.362  0.00  0.00    -0.048 SA
ATOM      6  C   UNL d   1       0.522   2.276  -1.189  0.00  0.00     0.106 C 
ATOM      7  N   UNL d   1      -1.767  -1.798   0.768  0.00  0.00    -0.336 N 
ATOM      8  HN  UNL d   1      -1.411  -2.748   0.877  1.00  0.00     0.168 HD
ATOM      9  O   UNL d   1       2.279   0.031  -0.731  0.00  0.00    -0.266 OA
ENDROOT
BRANCH   1  10
ATOM     10  C   UNL d   1       1.070  -2.303   0.460  0.00  0.00     0.046 A 
ATOM     11  C   UNL d   1       0.587  -3.506  -0.080  0.00  0.00     0.048 A 
ATOM     12  C   UNL d   1       1.267  -4.710   0.142  0.00  0.00     0.002 A 
ATOM     13  C   UNL d   1       2.413  -4.703   0.949  0.00  0.00     0.018 A 
ATOM     14  C   UNL d   1       2.878  -3.519   1.519  0.00  0.00     0.004 A 
ATOM     15  C   UNL d   1       2.220  -2.320   1.258  0.00  0.00     0.030 A 
BRANCH  12  16
ATOM     16  S   UNL d   1       0.836  -6.265  -0.634  0.00  0.00    -0.134 SA
ATOM     17  C   UNL d   1      -0.962  -6.141  -0.819  0.00  0.00     0.095 C 
ENDBRANCH  12  16
ENDBRANCH   1  10
BRANCH   7  18
ATOM     18  C   UNL d   1      -3.149  -1.583   0.951  0.00  0.00     0.035 C 
ATOM     19  C   UNL d   1      -3.904  -0.730   0.132  0.00  0.00     0.048 C 
ATOM     20  C   UNL d   1      -5.266  -0.506   0.334  0.00  0.00     0.002 C 
ATOM     21  C   UNL d   1      -5.929  -1.280   1.287  0.00  0.00     0.018 C 
ATOM     22  C   UNL d   1      -5.221  -2.209   2.055  0.00  0.00     0.004 C 
ATOM     23  C   UNL d   1      -3.836  -2.343   1.898  0.00  0.00     0.029 C 
BRANCH  20  24
ATOM     24  S   UNL d   1      -6.191   0.674  -0.643  0.00  0.00    -0.134 SA
ATOM     25  C   UNL d   1      -4.969   2.002  -0.930  0.00  0.00     0.095 C 
ENDBRANCH  20  24
ENDBRANCH   7  18
BRANCH   6  26
ATOM     26  C   UNL d   1      -0.436   3.377  -1.432  0.00  0.00     0.283 C 
ATOM     27  O   UNL d   1      -1.645   3.279  -1.414  0.00  0.00    -0.260 OA
BRANCH  26  28
ATOM     28  O   UNL d   1       0.263   4.515  -1.693  0.00  0.00    -0.323 OA
ATOM     29  C   UNL d   1      -0.572   5.655  -1.900  0.00  0.00     0.213 C 
ENDBRANCH  26  28
ENDBRANCH   6  26
TORSDOF 6
