REMARK  3 active torsions:
REMARK  status: ('A' for Active; 'I' for Inactive)
REMARK    1  A    between atoms: C_10  and  C_7 
REMARK    2  A    between atoms: C_12  and  C_10 
REMARK    3  A    between atoms: O_19  and  C_14 
ROOT
ATOM      1  N   UNL d   1       1.328  -1.346  -0.051  0.00  0.00    -0.368 N 
ATOM      2  HN  UNL d   1       1.352  -2.365  -0.082  1.00  0.00     0.165 HD
ATOM      3  C   UNL d   1       0.081   0.724  -0.018  0.00  0.00    -0.035 A 
ATOM      4  C   UNL d   1       0.153  -0.670  -0.036  0.00  0.00     0.015 A 
ATOM      5  C   UNL d   1      -1.237   1.454   0.030  0.00  0.00     0.045 C 
ATOM      6  C   UNL d   1       1.282   1.442   0.025  0.00  0.00     0.017 A 
ATOM      7  C   UNL d   1      -2.444   0.586  -0.377  0.00  0.00    -0.006 C 
ATOM      8  C   UNL d   1      -1.090  -1.516  -0.102  0.00  0.00     0.058 C 
ATOM      9  C   UNL d   1       2.465  -0.619  -0.023  0.00  0.00     0.095 A 
ATOM     10  C   UNL d   1       2.504   0.767   0.019  0.00  0.00    -0.046 A 
ATOM     11  C   UNL d   1      -2.350  -0.773   0.337  0.00  0.00     0.011 C 
ATOM     12  C   UNL d   1       3.811   1.490   0.055  0.00  0.00     0.049 C 
ENDROOT
BRANCH   7  13
ATOM     13  C   UNL d   1      -3.758   1.333  -0.064  0.00  0.00     0.043 C 
BRANCH  13  14
ATOM     14  C   UNL d   1      -5.005   0.567  -0.438  0.00  0.00    -0.058 A 
ATOM     15  C   UNL d   1      -5.926   0.196   0.551  0.00  0.00     0.010 A 
ATOM     16  C   UNL d   1      -7.047  -0.577   0.232  0.00  0.00     0.037 A 
ATOM     17  C   UNL d   1      -7.270  -0.984  -1.081  0.00  0.00     0.068 A 
ATOM     18  C   UNL d   1      -6.378  -0.584  -2.077  0.00  0.00     0.037 A 
ATOM     19  C   UNL d   1      -5.256   0.189  -1.762  0.00  0.00     0.010 A 
BRANCH  17  20
ATOM     20  O   UNL d   1      -8.309  -1.760  -1.515  0.00  0.00    -0.356 OA
ATOM     21  C   UNL d   1      -9.204  -2.244  -0.520  0.00  0.00     0.210 C 
ENDBRANCH  17  20
ENDBRANCH  13  14
ENDBRANCH   7  13
TORSDOF 3
