REMARK  5 active torsions:
REMARK  status: ('A' for Active; 'I' for Inactive)
REMARK    1  A    between atoms: C_5  and  C_1 
REMARK    2  A    between atoms: C_2  and  N_4 
REMARK    3  A    between atoms: N_9  and  C_2 
REMARK    4  A    between atoms: N_4  and  C_3 
REMARK    5  A    between atoms: N_15  and  N_9 
ROOT
ATOM      1  C   UNL d   1      -0.477   0.371  -3.691  0.00  0.00     0.057 A 
ATOM      2  C   UNL d   1       0.468   0.462  -1.441  0.00  0.00     0.050 A 
ATOM      3  C   UNL d   1      -0.093  -0.264  -2.505  0.00  0.00     0.047 A 
ATOM      4  C   UNL d   1      -0.271   1.755  -3.816  0.00  0.00     0.060 A 
ATOM      5  C   UNL d   1       0.636   1.848  -1.577  0.00  0.00     0.018 A 
ATOM      6  C   UNL d   1       0.268   2.492  -2.760  0.00  0.00     0.027 A 
ATOM      7 CL   UNL d   1      -0.690   2.593  -5.271  0.00  0.00    -0.082 Cl
ENDROOT
BRANCH   1   8
ATOM      8  N   UNL d   1      -0.953  -0.363  -4.800  0.00  0.00    -0.331 N 
ATOM      9  H   UNL d   1      -0.984   0.142  -5.679  0.00  0.00     0.168 HD
BRANCH   8  10
ATOM     10  C   UNL d   1      -1.650  -1.552  -4.831  0.00  0.00     0.186 C 
ATOM     11  S   UNL d   1      -2.663  -2.175  -3.660  0.00  0.00    -0.040 SA
BRANCH  10  12
ATOM     12  N   UNL d   1      -1.491  -2.256  -6.015  0.00  0.00    -0.300 N 
ATOM     13  H   UNL d   1      -1.939  -3.174  -6.038  0.00  0.00     0.183 HD
BRANCH  12  14
ATOM     14  N   UNL d   1      -0.373  -2.047  -6.851  0.00  0.00    -0.248 NA
ATOM     15  H   UNL d   1       0.390  -1.655  -6.290  0.00  0.00     0.143 HD
ATOM     16  H   UNL d   1      -0.615  -1.348  -7.557  0.00  0.00     0.143 HD
ENDBRANCH  12  14
ENDBRANCH  10  12
ENDBRANCH   8  10
ENDBRANCH   1   8
BRANCH   2  17
ATOM     17  C   UNL d   1       0.917  -0.237  -0.179  0.00  0.00     0.417 C 
ATOM     18  F   UNL d   1       0.690  -1.579  -0.185  0.00  0.00    -0.166 F 
ATOM     19  F   UNL d   1       0.297   0.246   0.932  0.00  0.00    -0.166 F 
ATOM     20  F   UNL d   1       2.252  -0.086   0.042  0.00  0.00    -0.166 F 
ENDBRANCH   2  17
TORSDOF 5
