REMARK  4 active torsions:
REMARK  status: ('A' for Active; 'I' for Inactive)
REMARK    1  A    between atoms: C_8  and  C_1 
REMARK    2  A    between atoms: O_11  and  C_9 
REMARK    3  A    between atoms: C_16  and  N_10 
REMARK    4  A    between atoms: C_20  and  O_11 
ROOT
ATOM      1  C   UNL d   1      -0.061   1.199  -0.297  0.00  0.00     0.106 A 
ATOM      2  S   UNL d   1       1.249   0.155  -0.707  0.00  0.00    -0.033 SA
ATOM      3  C   UNL d   1       0.141  -1.166  -0.672  0.00  0.00     0.166 A 
ATOM      4  N   UNL d   1      -1.197   0.566  -0.122  0.00  0.00    -0.291 N 
ATOM      5  HN  UNL d   1      -2.065   1.022   0.159  1.00  0.00     0.187 HD
ATOM      6  N   UNL d   1      -1.085  -0.793  -0.363  0.00  0.00    -0.279 N 
ATOM      7  HN  UNL d   1      -1.871  -1.440  -0.308  1.00  0.00     0.189 HD
ATOM      8  N   UNL d   1       0.592  -2.422  -0.914  0.00  0.00    -0.336 N 
ATOM      9  H   UNL d   1       1.588  -2.588  -0.854  0.00  0.00     0.168 HD
ENDROOT
BRANCH   1  10
ATOM     10  C   UNL d   1       0.145   2.644  -0.202  0.00  0.00     0.051 A 
ATOM     11  C   UNL d   1      -0.311   3.409   0.874  0.00  0.00     0.161 A 
ATOM     12  N   UNL d   1      -0.149   4.760   0.955  0.00  0.00    -0.346 N 
ATOM     13  C   UNL d   1       0.540   5.374  -0.023  0.00  0.00     0.090 A 
ATOM     14  HN  UNL d   1      -0.539   5.290   1.735  1.00  0.00     0.167 HD
ATOM     15  C   UNL d   1       1.058   4.709  -1.113  0.00  0.00     0.018 A 
ATOM     16  C   UNL d   1       0.839   3.335  -1.214  0.00  0.00     0.020 A 
BRANCH  11  17
ATOM     17  O   UNL d   1      -0.919   2.767   1.952  0.00  0.00    -0.293 OA
BRANCH  17  18
ATOM     18  C   UNL d   1      -0.781   3.370   3.187  0.00  0.00     0.077 A 
ATOM     19  C   UNL d   1      -1.914   3.468   3.996  0.00  0.00     0.037 A 
ATOM     20  C   UNL d   1      -1.827   4.097   5.242  0.00  0.00     0.003 A 
ATOM     21  C   UNL d   1      -0.608   4.619   5.680  0.00  0.00     0.000 A 
ATOM     22  C   UNL d   1       0.531   4.486   4.892  0.00  0.00     0.003 A 
ATOM     23  C   UNL d   1       0.451   3.843   3.655  0.00  0.00     0.037 A 
ENDBRANCH  17  18
ENDBRANCH  11  17
ENDBRANCH   1  10
BRANCH   8  24
ATOM     24  C   UNL d   1      -0.192  -3.571  -1.110  0.00  0.00     0.034 A 
ATOM     25  C   UNL d   1      -1.449  -3.531  -1.729  0.00  0.00     0.037 A 
ATOM     26  C   UNL d   1      -2.248  -4.681  -1.869  0.00  0.00    -0.043 A 
ATOM     27  C   UNL d   1      -3.571  -4.568  -2.572  0.00  0.00     0.049 C 
ATOM     28  C   UNL d   1      -1.781  -5.887  -1.329  0.00  0.00     0.017 A 
ATOM     29  C   UNL d   1      -0.535  -5.944  -0.701  0.00  0.00     0.022 A 
ATOM     30 BR   UNL d   1      -2.804  -7.485  -1.400  0.00  0.00    -0.051 Br
ATOM     31  C   UNL d   1       0.255  -4.796  -0.601  0.00  0.00     0.031 A 
ENDBRANCH   8  24
TORSDOF 4
