REMARK  2 active torsions:
REMARK  status: ('A' for Active; 'I' for Inactive)
REMARK    1  A    between atoms: C_5  and  C_1 
REMARK    2  A    between atoms: N_2  and  C_6 
ROOT
ATOM      1  C   UNL d   1       0.738   0.773   1.112  0.00  0.00    -0.011 C 
ATOM      2  C   UNL d   1      -1.527   0.277   0.075  0.00  0.00     0.020 C 
ATOM      3  C   UNL d   1      -0.793   1.043   1.192  0.00  0.00     0.035 C 
ATOM      4  C   UNL d   1       0.972  -0.764   1.221  0.00  0.00     0.019 C 
ATOM      5  C   UNL d   1       1.218   1.217  -0.304  0.00  0.00     0.019 C 
ATOM      6  C   UNL d   1       0.229  -1.521   0.111  0.00  0.00    -0.012 C 
ATOM      7  C   UNL d   1       0.477   0.462  -1.416  0.00  0.00    -0.012 C 
ATOM      8  C   UNL d   1      -1.027   0.746  -1.298  0.00  0.00     0.025 C 
ATOM      9  C   UNL d   1      -1.277  -1.232   0.227  0.00  0.00     0.025 C 
ATOM     10  C   UNL d   1       0.738  -1.043  -1.255  0.00  0.00     0.009 C 
ATOM     11 BR   UNL d   1      -3.445   0.624   0.208  0.00  0.00    -0.085 Br
ENDROOT
BRANCH   1  12
ATOM     12  C   UNL d   1       1.500   1.459   2.256  0.00  0.00    -0.049 A 
ATOM     13  C   UNL d   1       1.200   1.140   3.596  0.00  0.00     0.010 A 
ATOM     14  C   UNL d   1       1.962   1.643   4.654  0.00  0.00     0.036 A 
ATOM     15  C   UNL d   1       3.042   2.486   4.383  0.00  0.00     0.102 A 
ATOM     16  C   UNL d   1       3.345   2.843   3.067  0.00  0.00     0.036 A 
ATOM     17  C   UNL d   1       2.567   2.344   2.019  0.00  0.00     0.010 A 
BRANCH  15  18
ATOM     18  N   UNL d   1       3.868   2.994   5.483  0.00  0.00    -0.116 N 
ATOM     19  O   UNL d   1       4.819   3.735   5.193  0.00  0.00    -0.532 OA
ATOM     20  O   UNL d   1       3.570   2.651   6.633  0.00  0.00    -0.532 OA
ENDBRANCH  15  18
ENDBRANCH   1  12
TORSDOF 2
