REMARK  4 active torsions:
REMARK  status: ('A' for Active; 'I' for Inactive)
REMARK    1  A    between atoms: C_2  and  C_1 
REMARK       I    between atoms: N_6  and  C_2 
REMARK    2  A    between atoms: C_12  and  N_6 
REMARK    3  A    between atoms: C_14  and  N_7 
REMARK    4  A    between atoms: C_22  and  C_14 
ROOT
ATOM      1  C   UNL d   1       4.306  -3.027   1.458  0.00  0.00     0.250 C 
ATOM      2  N   UNL d   1       3.667  -3.034   0.233  0.00  0.00    -0.352 N 
ATOM      3  O   UNL d   1       3.907  -3.681   2.427  0.00  0.00    -0.268 OA
ATOM      4  H   UNL d   1       3.901  -2.296  -0.409  0.00  0.00     0.163 HD
ENDROOT
BRANCH   2   5
ATOM      5  C   UNL d   1       2.379  -3.699  -0.007  0.00  0.00     0.088 C 
ATOM      6  C   UNL d   1       2.431  -5.237   0.002  0.00  0.00     0.055 C 
ATOM      7  C   UNL d   1       2.729  -5.908  -1.349  0.00  0.00     0.275 C 
ATOM      8  N   UNL d   1       1.971  -5.322  -2.467  0.00  0.00     0.092 N 
ATOM      9  C   UNL d   1       2.257  -3.888  -2.550  0.00  0.00     0.275 C 
ATOM     10  C   UNL d   1       1.729  -3.187  -1.299  0.00  0.00     0.055 C 
BRANCH   8  11
ATOM     11  C   UNL d   1       2.266  -5.990  -3.758  0.00  0.00     0.311 C 
BRANCH  11  12
ATOM     12  C   UNL d   1       1.910  -7.465  -3.760  0.00  0.00    -0.030 A 
ATOM     13  C   UNL d   1       0.596  -7.882  -3.502  0.00  0.00     0.009 A 
ATOM     14  C   UNL d   1       0.308  -9.235  -3.312  0.00  0.00     0.001 A 
ATOM     15  C   UNL d   1       1.321 -10.186  -3.417  0.00  0.00     0.000 A 
ATOM     16  C   UNL d   1       2.614  -9.790  -3.756  0.00  0.00     0.001 A 
ATOM     17  C   UNL d   1       2.908  -8.437  -3.932  0.00  0.00     0.009 A 
ENDBRANCH  11  12
ENDBRANCH   8  11
ENDBRANCH   2   5
BRANCH   1  18
ATOM     18  C   UNL d   1       5.566  -2.214   1.569  0.00  0.00     0.034 C 
ATOM     19  C   UNL d   1       6.026  -1.422   0.587  0.00  0.00     0.029 C 
ATOM     20  C   UNL d   1       7.389  -0.925   0.699  0.00  0.00    -0.000 A 
ATOM     21  C   UNL d   1       8.037  -0.417  -0.431  0.00  0.00     0.038 A 
ATOM     22  C   UNL d   1       8.072  -1.005   1.911  0.00  0.00     0.079 A 
ATOM     23  C   UNL d   1       9.351   0.038  -0.336  0.00  0.00     0.035 A 
ATOM     24 CL   UNL d   1      10.150   0.612  -1.746  0.00  0.00    -0.084 Cl
ATOM     25  C   UNL d   1      10.020   0.010   0.885  0.00  0.00     0.026 A 
ATOM     26  C   UNL d   1       9.380  -0.512   2.014  0.00  0.00     0.039 A 
ATOM     27  O   UNL d   1       7.512  -1.545   3.034  0.00  0.00    -0.346 OA
ATOM     28  C   UNL d   1       6.359  -2.401   2.845  0.00  0.00     0.220 C 
ENDBRANCH   1  18
TORSDOF 4
