REMARK  2 active torsions:
REMARK  status: ('A' for Active; 'I' for Inactive)
REMARK    1  A    between atoms: C_2  and  C_1 
REMARK    2  A    between atoms: O_9  and  C_2 
ROOT
ATOM      1  C   UNL d   1      -0.002  -2.203   0.007  0.00  0.00     0.042 A 
ATOM      2  C   UNL d   1      -1.220  -1.514   0.023  0.00  0.00     0.041 A 
ATOM      3  C   UNL d   1       1.205  -1.490  -0.019  0.00  0.00     0.041 A 
ATOM      4  C   UNL d   1      -1.221  -0.120   0.020  0.00  0.00     0.036 A 
ATOM      5  C   UNL d   1       1.184  -0.097  -0.012  0.00  0.00     0.036 A 
ATOM      6  C   UNL d   1      -0.025   0.595   0.006  0.00  0.00     0.047 A 
ATOM      7 CL   UNL d   1      -2.718   0.729   0.028  0.00  0.00    -0.084 Cl
ATOM      8 CL   UNL d   1       2.666   0.776  -0.023  0.00  0.00    -0.084 Cl
ENDROOT
BRANCH   1   9
ATOM      9  C   UNL d   1       0.067  -3.685   0.001  0.00  0.00     0.293 C 
ATOM     10  O   UNL d   1       1.038  -4.310  -0.392  0.00  0.00    -0.259 OA
BRANCH   9  11
ATOM     11  O   UNL d   1      -1.064  -4.208   0.534  0.00  0.00    -0.323 OA
ATOM     12  C   UNL d   1      -1.049  -5.633   0.631  0.00  0.00     0.213 C 
ENDBRANCH   9  11
ENDBRANCH   1   9
TORSDOF 2
