REMARK  6 active torsions:
REMARK  status: ('A' for Active; 'I' for Inactive)
REMARK    1  A    between atoms: C_10  and  N_2 
REMARK    2  A    between atoms: C_5  and  N_3 
REMARK    3  A    between atoms: C_23  and  C_10 
REMARK    4  A    between atoms: O_26  and  C_14 
REMARK    5  A    between atoms: O_27  and  C_16 
REMARK    6  A    between atoms: C_22  and  C_23 
ROOT
ATOM      1  C   UNL d   1       0.700  -0.426  -1.102  0.00  0.00     0.150 A 
ATOM      2  N   UNL d   1       1.056  -0.935   0.131  0.00  0.00    -0.297 N 
ATOM      3  N   UNL d   1       1.175  -0.476  -2.299  0.00  0.00    -0.334 N 
ATOM      4  HN  UNL d   1       0.716   0.110  -2.997  1.00  0.00     0.168 HD
ATOM      5  C   UNL d   1       0.250  -0.548   1.196  0.00  0.00     0.235 A 
ATOM      6  S   UNL d   1      -0.804   0.485  -0.977  0.00  0.00    -0.084 SA
ATOM      7  C   UNL d   1      -0.919   0.287   0.795  0.00  0.00     0.185 A 
ATOM      8  O   UNL d   1       0.474  -0.814   2.381  0.00  0.00    -0.272 OA
ENDROOT
BRANCH   2   9
ATOM      9  C   UNL d   1       2.280  -1.669   0.479  0.00  0.00     0.138 C 
BRANCH   9  10
ATOM     10  C   UNL d   1       2.215  -3.188   0.305  0.00  0.00     0.059 C 
BRANCH  10  11
ATOM     11  C   UNL d   1       1.478  -3.859   1.435  0.00  0.00    -0.054 A 
ATOM     12  C   UNL d   1       0.129  -4.195   1.280  0.00  0.00     0.046 A 
ATOM     13  C   UNL d   1      -0.620  -4.730   2.340  0.00  0.00     0.102 A 
ATOM     14  C   UNL d   1       0.015  -4.958   3.575  0.00  0.00     0.101 A 
ATOM     15  C   UNL d   1       1.370  -4.634   3.718  0.00  0.00     0.040 A 
ATOM     16  C   UNL d   1       2.100  -4.090   2.663  0.00  0.00     0.010 A 
BRANCH  13  17
ATOM     17  O   UNL d   1      -1.950  -5.035   2.214  0.00  0.00    -0.353 OA
ATOM     18  C   UNL d   1      -2.599  -4.686   0.993  0.00  0.00     0.210 C 
ENDBRANCH  13  17
BRANCH  14  19
ATOM     19  O   UNL d   1      -0.514  -5.465   4.733  0.00  0.00    -0.353 OA
ATOM     20  C   UNL d   1      -1.864  -5.905   4.731  0.00  0.00     0.210 C 
ENDBRANCH  14  19
ENDBRANCH  10  11
ENDBRANCH   9  10
ENDBRANCH   2   9
BRANCH   3  21
ATOM     21  C   UNL d   1       2.254  -1.250  -2.740  0.00  0.00     0.069 C 
ATOM     22  C   UNL d   1       2.006  -2.320  -3.630  0.00  0.00     0.042 C 
ATOM     23  C   UNL d   1       3.022  -3.196  -4.010  0.00  0.00     0.063 C 
ATOM     24 BR   UNL d   1       0.292  -2.570  -4.418  0.00  0.00    -0.049 Br
ATOM     25  C   UNL d   1       4.294  -3.008  -3.495  0.00  0.00     0.119 C 
ATOM     26  C   UNL d   1       4.599  -1.889  -2.734  0.00  0.00     0.063 C 
ATOM     27  F   UNL d   1       5.253  -3.899  -3.776  0.00  0.00    -0.206 F 
ATOM     28  C   UNL d   1       3.594  -0.969  -2.437  0.00  0.00     0.042 C 
ATOM     29 BR   UNL d   1       4.113   0.694  -1.655  0.00  0.00    -0.049 Br
ENDBRANCH   3  21
TORSDOF 6
