REMARK  7 active torsions:
REMARK  status: ('A' for Active; 'I' for Inactive)
REMARK    1  A    between atoms: N_2  and  C_1 
REMARK    2  A    between atoms: C_3  and  C_1 
REMARK    3  A    between atoms: C_6  and  C_1 
REMARK    4  A    between atoms: O_11  and  C_1 
REMARK       I    between atoms: C_4  and  N_2 
REMARK    5  A    between atoms: C_8  and  C_4 
REMARK    6  A    between atoms: C_5  and  C_7 
REMARK    7  A    between atoms: O_19  and  C_6 
ROOT
ATOM      1  N   UNL d   1       0.634  -1.254  -0.076  0.00  0.00    -0.309 N 
ATOM      2  C   UNL d   1       0.887  -2.173  -1.060  0.00  0.00     0.254 C 
ATOM      3  O   UNL d   1       0.444  -3.313  -1.007  0.00  0.00    -0.268 OA
ATOM      4  H   UNL d   1       1.088  -0.347  -0.071  0.00  0.00     0.166 HD
ENDROOT
BRANCH   1   5
ATOM      5  C   UNL d   1      -0.260  -1.548   1.050  0.00  0.00     0.325 C 
BRANCH   5   6
ATOM      6  C   UNL d   1      -1.760  -1.776   0.683  0.00  0.00     0.448 C 
ATOM      7  F   UNL d   1      -1.968  -1.772  -0.658  0.00  0.00    -0.166 F 
ATOM      8  F   UNL d   1      -2.209  -2.970   1.145  0.00  0.00    -0.166 F 
ATOM      9  F   UNL d   1      -2.587  -0.828   1.190  0.00  0.00    -0.166 F 
ENDBRANCH   5   6
BRANCH   5  10
ATOM     10  C   UNL d   1      -0.252  -0.287   1.935  0.00  0.00     0.324 C 
ATOM     11  O   UNL d   1       0.056   0.828   1.518  0.00  0.00    -0.259 OA
BRANCH  10  12
ATOM     12  O   UNL d   1      -0.618  -0.559   3.219  0.00  0.00    -0.322 OA
ATOM     13  C   UNL d   1      -0.641   0.578   4.083  0.00  0.00     0.213 C 
ENDBRANCH  10  12
ENDBRANCH   5  10
BRANCH   5  14
ATOM     14  O   UNL d   1       0.348  -2.651   1.726  0.00  0.00    -0.356 OA
ATOM     15  H   UNL d   1       0.316  -3.383   1.076  0.00  0.00     0.213 HD
ENDBRANCH   5  14
ENDBRANCH   1   5
BRANCH   2  16
ATOM     16  C   UNL d   1       1.809  -1.736  -2.142  0.00  0.00     0.032 A 
ATOM     17  C   UNL d   1       2.671  -2.683  -2.709  0.00  0.00     0.033 A 
ATOM     18  C   UNL d   1       3.619  -2.294  -3.670  0.00  0.00     0.048 A 
ATOM     19  C   UNL d   1       3.661  -0.951  -4.078  0.00  0.00     0.016 A 
ATOM     20  C   UNL d   1       2.776  -0.015  -3.542  0.00  0.00     0.002 A 
ATOM     21  C   UNL d   1       1.851  -0.405  -2.574  0.00  0.00     0.017 A 
BRANCH  18  22
ATOM     22  C   UNL d   1       4.610  -3.282  -4.237  0.00  0.00     0.417 C 
ATOM     23  F   UNL d   1       4.440  -4.552  -3.781  0.00  0.00    -0.166 F 
ATOM     24  F   UNL d   1       4.553  -3.358  -5.595  0.00  0.00    -0.166 F 
ATOM     25  F   UNL d   1       5.896  -2.946  -3.937  0.00  0.00    -0.166 F 
ENDBRANCH  18  22
ENDBRANCH   2  16
TORSDOF 7
