REMARK  4 active torsions:
REMARK  status: ('A' for Active; 'I' for Inactive)
REMARK    1  A    between atoms: N_4  and  C_1 
REMARK    2  A    between atoms: N_5  and  C_1 
REMARK    3  A    between atoms: C_2  and  N_5 
REMARK    4  A    between atoms: C_3  and  N_4 
ROOT
ATOM      1  C   UNL d   1       1.031   0.035   0.048  0.00  0.00     0.176 C 
ATOM      2  S   UNL d   1       2.667  -0.264  -0.156  0.00  0.00    -0.041 SA
ENDROOT
BRANCH   1   3
ATOM      3  N   UNL d   1       0.488   1.058   0.780  0.00  0.00    -0.333 N 
ATOM      4  H   UNL d   1      -0.246   0.759   1.414  0.00  0.00     0.168 HD
BRANCH   3   5
ATOM      5  C   UNL d   1       0.982   2.368   0.954  0.00  0.00     0.037 A 
ATOM      6  C   UNL d   1       1.734   3.015  -0.033  0.00  0.00     0.053 A 
ATOM      7  C   UNL d   1       2.147   4.333   0.157  0.00  0.00     0.037 A 
ATOM      8 CL   UNL d   1       3.044   5.129  -1.078  0.00  0.00    -0.084 Cl
ATOM      9  C   UNL d   1       1.825   5.019   1.323  0.00  0.00     0.048 A 
ATOM     10  C   UNL d   1       1.060   4.378   2.294  0.00  0.00     0.037 A 
ATOM     11  C   UNL d   1       0.622   3.066   2.109  0.00  0.00     0.053 A 
ATOM     12 CL   UNL d   1       0.650   5.216   3.741  0.00  0.00    -0.084 Cl
ENDBRANCH   3   5
ENDBRANCH   1   3
BRANCH   1  13
ATOM     13  N   UNL d   1       0.163  -0.896  -0.453  0.00  0.00    -0.333 N 
ATOM     14  H   UNL d   1       0.640  -1.737  -0.764  0.00  0.00     0.168 HD
BRANCH  13  15
ATOM     15  C   UNL d   1      -1.205  -0.805  -0.789  0.00  0.00     0.037 A 
ATOM     16  C   UNL d   1      -1.942   0.381  -0.783  0.00  0.00     0.053 A 
ATOM     17  C   UNL d   1      -3.283   0.379  -1.181  0.00  0.00     0.037 A 
ATOM     18 CL   UNL d   1      -4.172   1.854  -1.164  0.00  0.00    -0.084 Cl
ATOM     19  C   UNL d   1      -3.903  -0.791  -1.599  0.00  0.00     0.048 A 
ATOM     20  C   UNL d   1      -3.165  -1.969  -1.627  0.00  0.00     0.037 A 
ATOM     21  C   UNL d   1      -1.828  -1.982  -1.227  0.00  0.00     0.053 A 
ATOM     22 CL   UNL d   1      -3.905  -3.425  -2.170  0.00  0.00    -0.084 Cl
ENDBRANCH  13  15
ENDBRANCH   1  13
TORSDOF 4
