REMARK  2 active torsions:
REMARK  status: ('A' for Active; 'I' for Inactive)
REMARK    1  A    between atoms: C_4  and  C_1 
REMARK    2  A    between atoms: O_11  and  C_4 
ROOT
ATOM      1  C   UNL d   1       0.688   1.231  -0.397  0.00  0.00     0.163 C 
ATOM      2  C   UNL d   1       1.438  -0.012   0.045  0.00  0.00     0.148 C 
ATOM      3  C   UNL d   1      -0.744   1.217   0.205  0.00  0.00    -0.022 C 
ATOM      4  C   UNL d   1       0.765  -1.347  -0.153  0.00  0.00     0.157 C 
ATOM      5  C   UNL d   1      -0.702  -1.316   0.176  0.00  0.00     0.134 C 
ATOM      6  C   UNL d   1      -1.486  -0.074  -0.198  0.00  0.00     0.088 C 
ATOM      7  O   UNL d   1       2.589   0.065   0.477  0.00  0.00    -0.297 OA
ATOM      8  O   UNL d   1      -1.275  -2.306   0.633  0.00  0.00    -0.298 OA
ATOM      9  C   UNL d   1      -0.671   1.310   1.749  0.00  0.00     0.016 C 
ATOM     10  C   UNL d   1      -1.561   2.434  -0.276  0.00  0.00     0.016 C 
ENDROOT
BRANCH   1  11
ATOM     11  C   UNL d   1       0.710   1.312  -1.909  0.00  0.00     0.270 C 
ATOM     12  O   UNL d   1       0.581   0.344  -2.645  0.00  0.00    -0.264 OA
BRANCH  11  13
ATOM     13  O   UNL d   1       0.845   2.597  -2.337  0.00  0.00    -0.326 OA
ATOM     14  C   UNL d   1       0.889   2.724  -3.761  0.00  0.00     0.213 C 
ENDBRANCH  11  13
ENDBRANCH   1  11
TORSDOF 2
