REMARK  1 active torsions:
REMARK  status: ('A' for Active; 'I' for Inactive)
REMARK    1  A    between atoms: C_6  and  N_1 
ROOT
ATOM      1  N   UNL d   1       2.463  -0.561  -0.046  0.00  0.00    -0.254 N 
ATOM      2  C   UNL d   1       2.397   0.842   0.005  0.00  0.00     0.186 A 
ATOM      3  C   UNL d   1       1.319  -1.385  -0.081  0.00  0.00     0.267 A 
ATOM      4  C   UNL d   1       0.004  -0.714  -0.035  0.00  0.00     0.059 A 
ATOM      5  N   UNL d   1       1.145   1.399   0.062  0.00  0.00    -0.332 N 
ATOM      6  C   UNL d   1      -0.038   0.670   0.028  0.00  0.00     0.050 A 
ATOM      7  S   UNL d   1       3.661   1.952  -0.072  0.00  0.00    -0.040 SA
ATOM      8  O   UNL d   1       1.333  -2.615  -0.128  0.00  0.00    -0.267 OA
ATOM      9  C   UNL d   1      -1.187  -1.449  -0.061  0.00  0.00     0.019 A 
ATOM     10  C   UNL d   1      -1.263   1.341   0.045  0.00  0.00     0.030 A 
ATOM     11  C   UNL d   1      -2.414  -0.784  -0.039  0.00  0.00     0.001 A 
ATOM     12  C   UNL d   1      -2.451   0.611   0.008  0.00  0.00     0.002 A 
ATOM     13  H   UNL d   1       1.109   2.412   0.081  0.00  0.00     0.168 HD
ENDROOT
BRANCH   1  14
ATOM     14  C   UNL d   1       3.731  -1.232  -0.127  0.00  0.00     0.046 A 
ATOM     15  C   UNL d   1       4.707  -1.058   0.864  0.00  0.00     0.055 A 
ATOM     16  C   UNL d   1       5.959  -1.674   0.746  0.00  0.00     0.053 A 
ATOM     17 CL   UNL d   1       7.103  -1.400   2.012  0.00  0.00    -0.083 Cl
ATOM     18  C   UNL d   1       6.242  -2.472  -0.368  0.00  0.00     0.032 A 
ATOM     19  C   UNL d   1       5.262  -2.675  -1.343  0.00  0.00     0.023 A 
ATOM     20 BR   UNL d   1       7.927  -3.307  -0.633  0.00  0.00    -0.049 Br
ATOM     21  C   UNL d   1       4.010  -2.069  -1.216  0.00  0.00     0.031 A 
ENDBRANCH   1  14
TORSDOF 1
