REMARK  5 active torsions:
REMARK  status: ('A' for Active; 'I' for Inactive)
REMARK    1  A    between atoms: C_21  and  N_9 
REMARK    2  A    between atoms: C_15  and  O_22 
REMARK    3  A    between atoms: O_24  and  C_16 
REMARK    4  A    between atoms: C_23  and  C_21 
REMARK    5  A    between atoms: O_22  and  C_23 
ROOT
ATOM      1  C   UNL d   1       0.049  -0.727   0.077  0.00  0.00     0.101 A 
ATOM      2  C   UNL d   1       0.010   0.617   0.080  0.00  0.00     0.077 A 
ATOM      3  N   UNL d   1       1.261  -1.381  -0.040  0.00  0.00    -0.293 N 
ATOM      4  N   UNL d   1       2.433   0.666  -0.009  0.00  0.00    -0.270 N 
ATOM      5  C   UNL d   1       2.486  -0.716  -0.085  0.00  0.00     0.332 A 
ATOM      6  C   UNL d   1       1.263   1.392   0.052  0.00  0.00     0.262 A 
ATOM      7  N   UNL d   1      -1.149  -1.420   0.190  0.00  0.00    -0.252 NA
ATOM      8  C   UNL d   1      -1.282   1.400   0.090  0.00  0.00     0.321 C 
ATOM      9  N   UNL d   1      -2.458   0.600  -0.320  0.00  0.00     0.107 N 
ATOM     10  C   UNL d   1      -2.385  -0.681   0.367  0.00  0.00     0.368 C 
ATOM     11  O   UNL d   1       3.551  -1.331  -0.181  0.00  0.00    -0.246 OA
ATOM     12  O   UNL d   1       1.226   2.622   0.102  0.00  0.00    -0.267 OA
ATOM     13  C   UNL d   1       1.337  -2.836  -0.069  0.00  0.00     0.162 C 
ATOM     14  C   UNL d   1       3.676   1.414   0.009  0.00  0.00     0.164 C 
ATOM     15  H   UNL d   1      -1.230  -2.114  -0.547  0.00  0.00     0.130 HD
ENDROOT
BRANCH   9  16
ATOM     16  C   UNL d   1      -3.717   1.325  -0.076  0.00  0.00     0.301 C 
BRANCH  16  17
ATOM     17  C   UNL d   1      -4.949   0.547  -0.567  0.00  0.00     0.206 C 
BRANCH  17  18
ATOM     18  O   UNL d   1      -6.145   1.302  -0.370  0.00  0.00    -0.349 OA
BRANCH  18  19
ATOM     19  C   UNL d   1      -7.305   0.644  -0.699  0.00  0.00     0.069 A 
ATOM     20  C   UNL d   1      -7.383  -0.625  -1.279  0.00  0.00     0.039 A 
ATOM     21  C   UNL d   1      -8.623  -1.202  -1.576  0.00  0.00     0.039 A 
ATOM     22  C   UNL d   1      -9.801  -0.514  -1.299  0.00  0.00     0.068 A 
ATOM     23  C   UNL d   1      -9.726   0.754  -0.719  0.00  0.00     0.039 A 
ATOM     24  C   UNL d   1      -8.486   1.330  -0.420  0.00  0.00     0.039 A 
BRANCH  22  25
ATOM     25  O   UNL d   1     -11.067  -0.969  -1.546  0.00  0.00    -0.356 OA
ATOM     26  C   UNL d   1     -11.177  -2.256  -2.145  0.00  0.00     0.210 C 
ENDBRANCH  22  25
ENDBRANCH  18  19
ENDBRANCH  17  18
ENDBRANCH  16  17
ENDBRANCH   9  16
TORSDOF 5
