REMARK  2 active torsions:
REMARK  status: ('A' for Active; 'I' for Inactive)
REMARK    1  A    between atoms: C_5  and  C_1 
REMARK    2  A    between atoms: O_9  and  C_8 
ROOT
ATOM      1  C   UNL d   1      -2.286  -0.017  -0.048  0.00  0.00     0.119 A 
ATOM      2  N   UNL d   1      -1.557   1.086   0.023  0.00  0.00    -0.340 N 
ATOM      3  HN  UNL d   1      -1.898   2.045   0.084  1.00  0.00     0.167 HD
ATOM      4  N   UNL d   1      -1.471  -1.125  -0.056  0.00  0.00    -0.340 N 
ATOM      5  C   UNL d   1      -0.245   0.672  -0.002  0.00  0.00     0.060 A 
ATOM      6  C   UNL d   1      -0.165  -0.714  -0.034  0.00  0.00     0.060 A 
ATOM      7  C   UNL d   1       0.939   1.423   0.007  0.00  0.00     0.032 A 
ATOM      8  C   UNL d   1       1.040  -1.418  -0.035  0.00  0.00     0.032 A 
ATOM      9  C   UNL d   1       2.211  -0.652  -0.019  0.00  0.00     0.002 A 
ATOM     10  C   UNL d   1       2.165   0.744  -0.004  0.00  0.00     0.002 A 
ATOM     11  H   UNL d   1      -1.786  -2.083  -0.052  0.00  0.00     0.167 HD
ENDROOT
BRANCH   1  12
ATOM     12  C   UNL d   1      -3.750  -0.076  -0.043  0.00  0.00     0.041 A 
ATOM     13  C   UNL d   1      -4.506   0.953   0.541  0.00  0.00     0.079 A 
ATOM     14  C   UNL d   1      -5.897   0.887   0.595  0.00  0.00     0.037 A 
ATOM     15  C   UNL d   1      -6.561  -0.202   0.034  0.00  0.00     0.003 A 
ATOM     16  C   UNL d   1      -5.832  -1.220  -0.579  0.00  0.00     0.001 A 
ATOM     17  C   UNL d   1      -4.436  -1.158  -0.616  0.00  0.00     0.018 A 
BRANCH  13  18
ATOM     18  O   UNL d   1      -3.924   2.068   1.090  0.00  0.00    -0.360 OA
ATOM     19  H   UNL d   1      -2.971   2.043   0.848  0.00  0.00     0.217 HD
ENDBRANCH  13  18
ENDBRANCH   1  12
TORSDOF 2
