REMARK  4 active torsions:
REMARK  status: ('A' for Active; 'I' for Inactive)
REMARK       I    between atoms: N_2  and  C_1 
REMARK    1  A    between atoms: C_9  and  C_1 
REMARK    2  A    between atoms: C_3  and  N_2 
REMARK    3  A    between atoms: C_4  and  C_5 
REMARK    4  A    between atoms: O_15  and  C_4 
ROOT
ATOM      1  C   UNL d   1       0.940   2.446  -0.196  0.00  0.00     0.042 A 
ATOM      2  C   UNL d   1       2.604   3.977  -1.149  0.00  0.00     0.041 A 
ATOM      3  C   UNL d   1       1.969   2.730  -1.109  0.00  0.00     0.047 A 
ATOM      4  C   UNL d   1       0.478   3.485   0.639  0.00  0.00    -0.035 A 
ATOM      5  C   UNL d   1       2.173   4.987  -0.293  0.00  0.00     0.018 A 
ATOM      6  C   UNL d   1       1.112   4.745   0.580  0.00  0.00     0.010 A 
ATOM      7  C   UNL d   1      -0.621   3.352   1.660  0.00  0.00     0.050 C 
ENDROOT
BRANCH   1   8
ATOM      8  N   UNL d   1       0.393   1.136  -0.097  0.00  0.00    -0.322 N 
ATOM      9  C   UNL d   1       0.947  -0.020  -0.637  0.00  0.00     0.256 C 
ATOM     10  O   UNL d   1       1.973  -0.085  -1.308  0.00  0.00    -0.267 OA
ATOM     11  H   UNL d   1      -0.435   1.034   0.466  0.00  0.00     0.169 HD
BRANCH   9  12
ATOM     12  C   UNL d   1       0.259  -1.312  -0.364  0.00  0.00     0.035 A 
ATOM     13  C   UNL d   1       0.530  -2.371  -1.239  0.00  0.00     0.034 A 
ATOM     14  C   UNL d   1      -0.030  -3.605  -0.978  0.00  0.00     0.088 A 
ATOM     15  N   UNL d   1      -0.833  -3.845   0.078  0.00  0.00    -0.375 N 
ATOM     16  C   UNL d   1      -1.075  -2.813   0.913  0.00  0.00     0.088 A 
ATOM     17  HN  UNL d   1      -1.240  -4.766   0.239  1.00  0.00     0.164 HD
ATOM     18  C   UNL d   1      -0.559  -1.536   0.742  0.00  0.00     0.034 A 
ENDBRANCH   9  12
ENDBRANCH   1   8
BRANCH   2  19
ATOM     19  C   UNL d   1       3.761   4.242  -2.049  0.00  0.00     0.293 C 
ATOM     20  O   UNL d   1       4.331   5.320  -2.114  0.00  0.00    -0.259 OA
BRANCH  19  21
ATOM     21  O   UNL d   1       4.102   3.122  -2.728  0.00  0.00    -0.323 OA
ATOM     22  C   UNL d   1       5.281   3.236  -3.523  0.00  0.00     0.213 C 
ENDBRANCH  19  21
ENDBRANCH   2  19
TORSDOF 4
