REMARK  2 active torsions:
REMARK  status: ('A' for Active; 'I' for Inactive)
REMARK       I    between atoms: N_2  and  C_1 
REMARK       I    between atoms: N_4  and  C_1 
REMARK    1  A    between atoms: C_5  and  N_2 
REMARK    2  A    between atoms: C_7  and  C_5 
ROOT
ATOM      1  C   UNL d   1       1.041   2.084   1.517  0.00  0.00     0.162 C 
ENDROOT
BRANCH   1   2
ATOM      2  N   UNL d   1       0.554   1.723   0.206  0.00  0.00    -0.339 N 
ATOM      3  C   UNL d   1       1.321   0.932  -0.594  0.00  0.00     0.314 C 
ATOM      4  O   UNL d   1       2.353   0.371  -0.260  0.00  0.00    -0.248 OA
ATOM      5  N   UNL d   1       0.834   0.841  -1.856  0.00  0.00    -0.352 N 
ATOM      6  H   UNL d   1      -0.168   0.864  -1.972  0.00  0.00     0.160 HD
ATOM      7  H   UNL d   1       1.322   0.164  -2.429  0.00  0.00     0.160 HD
ATOM      8  H   UNL d   1      -0.033   2.392  -0.269  0.00  0.00     0.164 HD
ENDBRANCH   1   2
BRANCH   1   9
ATOM      9  C   UNL d   1       0.101   3.036   2.210  0.00  0.00    -0.040 A 
ATOM     10  C   UNL d   1      -1.008   2.549   2.921  0.00  0.00     0.012 A 
ATOM     11  C   UNL d   1      -1.877   3.433   3.564  0.00  0.00     0.043 A 
ATOM     12  C   UNL d   1      -1.644   4.801   3.490  0.00  0.00     0.116 A 
ATOM     13  C   UNL d   1      -0.564   5.304   2.776  0.00  0.00     0.043 A 
ATOM     14  F   UNL d   1      -2.475   5.646   4.114  0.00  0.00    -0.206 F 
ATOM     15  C   UNL d   1       0.307   4.423   2.132  0.00  0.00     0.012 A 
ENDBRANCH   1   9
TORSDOF 2
