REMARK  7 active torsions:
REMARK  status: ('A' for Active; 'I' for Inactive)
REMARK    1  A    between atoms: O_9  and  C_1 
REMARK    2  A    between atoms: O_10  and  C_2 
REMARK    3  A    between atoms: C_3  and  C_6 
REMARK    4  A    between atoms: C_5  and  C_4 
REMARK       I    between atoms: N_8  and  C_5 
REMARK       I    between atoms: C_6  and  N_7 
REMARK    5  A    between atoms: N_7  and  N_8 
REMARK    6  A    between atoms: C_17  and  O_9 
REMARK    7  A    between atoms: C_18  and  O_10 
ROOT
ATOM      1  C   UNL d   1      -0.988   5.043  -0.930  0.00  0.00     0.274 C 
ATOM      2  N   UNL d   1      -0.383   3.954  -0.321  0.00  0.00    -0.263 N 
ATOM      3  O   UNL d   1      -0.345   5.894  -1.534  0.00  0.00    -0.266 OA
ATOM      4  H   UNL d   1      -0.895   3.182   0.088  0.00  0.00     0.190 HD
ENDROOT
BRANCH   2   5
ATOM      5  N   UNL d   1       0.996   3.761  -0.446  0.00  0.00    -0.263 N 
ATOM      6  C   UNL d   1       1.433   2.522  -0.878  0.00  0.00     0.274 C 
ATOM      7  O   UNL d   1       0.728   1.698  -1.449  0.00  0.00    -0.266 OA
ATOM      8  H   UNL d   1       1.599   4.451  -0.009  0.00  0.00     0.190 HD
BRANCH   6   9
ATOM      9  C   UNL d   1       2.793   2.161  -0.444  0.00  0.00     0.085 A 
ATOM     10  C   UNL d   1       3.779   1.692  -1.304  0.00  0.00     0.164 A 
ATOM     11  N   UNL d   1       4.996   1.284  -0.849  0.00  0.00    -0.346 N 
ATOM     12  C   UNL d   1       5.207   1.266   0.483  0.00  0.00     0.090 A 
ATOM     13  HN  UNL d   1       5.729   1.000  -1.499  1.00  0.00     0.167 HD
ATOM     14  C   UNL d   1       4.264   1.677   1.407  0.00  0.00     0.018 A 
ATOM     15  C   UNL d   1       3.044   2.140   0.934  0.00  0.00     0.023 A 
BRANCH  10  16
ATOM     16  O   UNL d   1       3.544   1.678  -2.671  0.00  0.00    -0.293 OA
BRANCH  16  17
ATOM     17  C   UNL d   1       4.343   0.835  -3.415  0.00  0.00     0.077 A 
ATOM     18  C   UNL d   1       4.377  -0.542  -3.171  0.00  0.00     0.037 A 
ATOM     19  C   UNL d   1       5.217  -1.363  -3.924  0.00  0.00     0.003 A 
ATOM     20  C   UNL d   1       5.997  -0.814  -4.941  0.00  0.00     0.000 A 
ATOM     21  C   UNL d   1       5.932   0.553  -5.214  0.00  0.00     0.003 A 
ATOM     22  C   UNL d   1       5.097   1.379  -4.455  0.00  0.00     0.037 A 
ENDBRANCH  16  17
ENDBRANCH  10  16
ENDBRANCH   6   9
ENDBRANCH   2   5
BRANCH   1  23
ATOM     23  C   UNL d   1      -2.470   5.144  -0.748  0.00  0.00     0.085 A 
ATOM     24  C   UNL d   1      -3.139   6.366  -0.851  0.00  0.00     0.164 A 
ATOM     25  N   UNL d   1      -4.477   6.514  -0.644  0.00  0.00    -0.346 N 
ATOM     26  C   UNL d   1      -5.185   5.412  -0.327  0.00  0.00     0.090 A 
ATOM     27  HN  UNL d   1      -4.927   7.426  -0.725  1.00  0.00     0.167 HD
ATOM     28  C   UNL d   1      -4.623   4.152  -0.220  0.00  0.00     0.018 A 
ATOM     29  C   UNL d   1      -3.253   4.019  -0.436  0.00  0.00     0.023 A 
BRANCH  24  30
ATOM     30  O   UNL d   1      -2.522   7.490  -1.339  0.00  0.00    -0.293 OA
BRANCH  30  31
ATOM     31  C   UNL d   1      -1.925   8.363  -0.459  0.00  0.00     0.077 A 
ATOM     32  C   UNL d   1      -1.325   9.469  -1.070  0.00  0.00     0.037 A 
ATOM     33  C   UNL d   1      -0.628  10.409  -0.311  0.00  0.00     0.003 A 
ATOM     34  C   UNL d   1      -0.528  10.246   1.067  0.00  0.00     0.000 A 
ATOM     35  C   UNL d   1      -1.138   9.154   1.686  0.00  0.00     0.003 A 
ATOM     36  C   UNL d   1      -1.844   8.214   0.927  0.00  0.00     0.037 A 
ENDBRANCH  30  31
ENDBRANCH  24  30
ENDBRANCH   1  23
TORSDOF 7
