REMARK  6 active torsions:
REMARK  status: ('A' for Active; 'I' for Inactive)
REMARK    1  A    between atoms: C_5  and  S_1 
REMARK    2  A    between atoms: N_8  and  S_1 
REMARK    3  A    between atoms: C_9  and  C_2 
REMARK    4  A    between atoms: C_3  and  N_8 
REMARK    5  A    between atoms: C_15  and  C_7 
REMARK    6  A    between atoms: O_20  and  C_9 
ROOT
ATOM      1  C   UNL d   1       2.098  -2.371   1.913  0.00  0.00     0.108 C 
ATOM      2  C   UNL d   1       0.788  -1.923   1.827  0.00  0.00     0.067 C 
ATOM      3  S   UNL d   1       2.155  -3.986   2.502  0.00  0.00    -0.081 SA
ATOM      4  C   UNL d   1      -0.133  -2.894   2.333  0.00  0.00     0.051 C 
ATOM      5  C   UNL d   1       0.456  -4.107   2.633  0.00  0.00     0.018 C 
ENDROOT
BRANCH   2   6
ATOM      6  N   UNL d   1       0.340  -0.670   1.369  0.00  0.00    -0.279 N 
ATOM      7  H   UNL d   1      -0.301  -0.141   1.964  0.00  0.00     0.179 HD
BRANCH   6   8
ATOM      8  S   UNL d   1      -0.092  -0.435  -0.261  0.00  0.00     0.265 S 
ATOM      9  O   UNL d   1      -0.759   0.843  -0.355  0.00  0.00    -0.200 OA
ATOM     10  O   UNL d   1       1.067  -0.723  -1.083  0.00  0.00    -0.200 OA
BRANCH   8  11
ATOM     11  C   UNL d   1      -1.302  -1.705  -0.597  0.00  0.00     0.101 A 
ATOM     12  C   UNL d   1      -2.581  -1.677  -0.029  0.00  0.00     0.059 A 
ATOM     13  C   UNL d   1      -3.506  -2.679  -0.357  0.00  0.00     0.049 A 
ATOM     14 CL   UNL d   1      -3.095  -0.508   1.133  0.00  0.00    -0.083 Cl
ATOM     15  C   UNL d   1      -3.152  -3.698  -1.241  0.00  0.00     0.035 A 
ATOM     16  C   UNL d   1      -1.884  -3.725  -1.813  0.00  0.00     0.025 A 
ATOM     17 CL   UNL d   1      -4.284  -4.938  -1.613  0.00  0.00    -0.084 Cl
ATOM     18  C   UNL d   1      -0.960  -2.725  -1.496  0.00  0.00     0.029 A 
ENDBRANCH   8  11
ENDBRANCH   6   8
ENDBRANCH   2   6
BRANCH   1  19
ATOM     19  C   UNL d   1       3.373  -1.735   1.615  0.00  0.00     0.302 C 
ATOM     20  O   UNL d   1       4.481  -2.214   1.836  0.00  0.00    -0.259 OA
BRANCH  19  21
ATOM     21  O   UNL d   1       3.181  -0.510   1.052  0.00  0.00    -0.322 OA
ATOM     22  C   UNL d   1       4.364   0.151   0.603  0.00  0.00     0.213 C 
ENDBRANCH  19  21
ENDBRANCH   1  19
BRANCH   5  23
ATOM     23  C   UNL d   1      -0.191  -5.387   2.966  0.00  0.00    -0.019 A 
ATOM     24  C   UNL d   1      -1.415  -5.719   2.361  0.00  0.00     0.013 A 
ATOM     25  C   UNL d   1      -2.031  -6.949   2.605  0.00  0.00     0.001 A 
ATOM     26  C   UNL d   1      -1.433  -7.867   3.462  0.00  0.00     0.000 A 
ATOM     27  C   UNL d   1      -0.227  -7.552   4.083  0.00  0.00     0.001 A 
ATOM     28  C   UNL d   1       0.388  -6.320   3.841  0.00  0.00     0.013 A 
ENDBRANCH   5  23
TORSDOF 6
