REMARK  2 active torsions:
REMARK  status: ('A' for Active; 'I' for Inactive)
REMARK    1  A    between atoms: C_2  and  C_1 
REMARK    2  A    between atoms: C_5  and  C_1 
ROOT
ATOM      1  C   UNL d   1       1.002  -0.130  -0.021  0.00  0.00     0.192 C 
ATOM      2  O   UNL d   1       0.397   0.930  -0.147  0.00  0.00    -0.287 OA
ENDROOT
BRANCH   1   3
ATOM      3  C   UNL d   1       0.226  -1.398   0.013  0.00  0.00     0.016 A 
ATOM      4  C   UNL d   1       0.636  -2.498   0.774  0.00  0.00     0.039 A 
ATOM      5  C   UNL d   1      -0.106  -3.677   0.735  0.00  0.00     0.035 A 
ATOM      6 CL   UNL d   1       0.434  -5.049   1.621  0.00  0.00    -0.084 Cl
ATOM      7  C   UNL d   1      -1.271  -3.760  -0.026  0.00  0.00     0.024 A 
ATOM      8  C   UNL d   1      -1.710  -2.649  -0.746  0.00  0.00     0.003 A 
ATOM      9  C   UNL d   1      -0.965  -1.468  -0.725  0.00  0.00     0.015 A 
ENDBRANCH   1   3
BRANCH   1  10
ATOM     10  C   UNL d   1       2.487  -0.115   0.089  0.00  0.00     0.015 A 
ATOM     11  C   UNL d   1       3.099   1.019   0.637  0.00  0.00     0.015 A 
ATOM     12  C   UNL d   1       4.488   1.073   0.768  0.00  0.00     0.001 A 
ATOM     13  C   UNL d   1       5.271  -0.002   0.349  0.00  0.00     0.000 A 
ATOM     14  C   UNL d   1       4.670  -1.123  -0.221  0.00  0.00     0.001 A 
ATOM     15  C   UNL d   1       3.282  -1.175  -0.367  0.00  0.00     0.015 A 
ENDBRANCH   1  10
TORSDOF 2
