REMARK  5 active torsions:
REMARK  status: ('A' for Active; 'I' for Inactive)
REMARK    1  A    between atoms: C_6  and  N_1 
REMARK    2  A    between atoms: C_2  and  C_3 
REMARK    3  A    between atoms: N_8  and  O_15 
REMARK    4  A    between atoms: O_15  and  C_24 
REMARK    5  A    between atoms: C_24  and  C_20 
ROOT
ATOM      1  C   UNL d   1      -1.110  -8.056   1.485  0.00  0.00     0.147 C 
ATOM      2  N   UNL d   1      -2.396 -10.284   1.954  0.00  0.00    -0.190 NA
ATOM      3  C   UNL d   1      -1.835  -9.287   1.739  0.00  0.00     0.120 C 
ATOM      4  N   UNL d   1      -1.609  -7.234   0.609  0.00  0.00    -0.255 N 
ATOM      5  HN  UNL d   1      -1.176  -6.346   0.355  1.00  0.00     0.195 HD
ENDROOT
BRANCH   1   6
ATOM      6  C   UNL d   1       0.120  -7.768   2.264  0.00  0.00     0.047 A 
ATOM      7  C   UNL d   1       0.342  -6.478   2.784  0.00  0.00     0.049 A 
ATOM      8 CL   UNL d   1      -0.762  -5.158   2.594  0.00  0.00    -0.083 Cl
ATOM      9  C   UNL d   1       1.487  -6.200   3.548  0.00  0.00     0.025 A 
ATOM     10  C   UNL d   1       2.413  -7.199   3.824  0.00  0.00     0.003 A 
ATOM     11  C   UNL d   1       2.212  -8.475   3.313  0.00  0.00     0.025 A 
ATOM     12  C   UNL d   1       1.089  -8.758   2.522  0.00  0.00     0.049 A 
ATOM     13 CL   UNL d   1       1.045 -10.349   1.843  0.00  0.00    -0.083 Cl
ENDBRANCH   1   6
BRANCH   4  14
ATOM     14  O   UNL d   1      -2.813  -7.704   0.048  0.00  0.00    -0.275 OA
BRANCH  14  15
ATOM     15  C   UNL d   1      -3.449  -6.653  -0.683  0.00  0.00     0.239 C 
BRANCH  15  16
ATOM     16  C   UNL d   1      -4.704  -7.212  -1.310  0.00  0.00    -0.032 A 
ATOM     17  C   UNL d   1      -5.749  -7.694  -0.502  0.00  0.00     0.012 A 
ATOM     18  C   UNL d   1      -6.907  -8.230  -1.076  0.00  0.00     0.037 A 
ATOM     19  C   UNL d   1      -7.024  -8.284  -2.473  0.00  0.00     0.102 A 
ATOM     20  C   UNL d   1      -5.992  -7.805  -3.288  0.00  0.00     0.037 A 
ATOM     21  C   UNL d   1      -4.839  -7.270  -2.705  0.00  0.00     0.012 A 
BRANCH  19  22
ATOM     22  N   UNL d   1      -8.229  -8.851  -3.081  0.00  0.00    -0.116 N 
ATOM     23  O   UNL d   1      -8.292  -8.882  -4.320  0.00  0.00    -0.532 OA
ATOM     24  O   UNL d   1      -9.122  -9.261  -2.325  0.00  0.00    -0.532 OA
ENDBRANCH  19  22
ENDBRANCH  15  16
ENDBRANCH  14  15
ENDBRANCH   4  14
TORSDOF 5
