REMARK  7 active torsions:
REMARK  status: ('A' for Active; 'I' for Inactive)
REMARK    1  A    between atoms: C_6  and  C_1 
REMARK       I    between atoms: N_15  and  C_1 
REMARK    2  A    between atoms: C_8  and  N_2 
REMARK    3  A    between atoms: C_17  and  C_8 
REMARK    4  A    between atoms: C_9  and  O_16 
REMARK    5  A    between atoms: O_16  and  C_20 
REMARK    6  A    between atoms: C_20  and  C_17 
REMARK    7  A    between atoms: O_22  and  C_17 
ROOT
ATOM      1  C   UNL d   1      -3.356  -1.957  -2.464  0.00  0.00     0.170 C 
ENDROOT
BRANCH   1   2
ATOM      2  C   UNL d   1      -1.915  -2.475  -2.276  0.00  0.00     0.306 C 
BRANCH   2   3
ATOM      3  N   UNL d   1      -1.329  -2.479  -0.913  0.00  0.00     0.091 N 
ATOM      4  C   UNL d   1       0.056  -2.993  -1.031  0.00  0.00     0.273 C 
ATOM      5  C   UNL d   1       0.759  -3.180   0.315  0.00  0.00     0.044 C 
ATOM      6  C   UNL d   1      -0.060  -4.043   1.275  0.00  0.00     0.081 C 
ATOM      7  C   UNL d   1      -1.470  -3.462   1.379  0.00  0.00     0.044 C 
ATOM      8  C   UNL d   1      -2.127  -3.311   0.003  0.00  0.00     0.273 C 
BRANCH   6   9
ATOM      9  C   UNL d   1      -0.066  -5.513   0.857  0.00  0.00     0.219 C 
ATOM     10  O   UNL d   1       0.509  -5.961  -0.127  0.00  0.00    -0.273 OA
ATOM     11  N   UNL d   1      -0.749  -6.354   1.687  0.00  0.00    -0.370 N 
ATOM     12  H   UNL d   1      -1.028  -6.085   2.619  0.00  0.00     0.159 HD
ATOM     13  H   UNL d   1      -0.701  -7.341   1.471  0.00  0.00     0.159 HD
ENDBRANCH   6   9
ENDBRANCH   2   3
ENDBRANCH   1   2
BRANCH   1  14
ATOM     14  C   UNL d   1      -3.538  -0.497  -2.021  0.00  0.00     0.209 C 
BRANCH  14  15
ATOM     15  O   UNL d   1      -4.887  -0.109  -2.319  0.00  0.00    -0.349 OA
BRANCH  15  16
ATOM     16  C   UNL d   1      -5.347   1.076  -1.824  0.00  0.00     0.070 A 
ATOM     17  C   UNL d   1      -6.674   1.369  -2.156  0.00  0.00     0.062 A 
ATOM     18  C   UNL d   1      -7.291   2.530  -1.681  0.00  0.00     0.058 A 
ATOM     19 CL   UNL d   1      -8.936   2.812  -2.127  0.00  0.00    -0.082 Cl
ATOM     20  C   UNL d   1      -6.574   3.410  -0.866  0.00  0.00     0.056 A 
ATOM     21  C   UNL d   1      -5.242   3.131  -0.551  0.00  0.00     0.028 A 
ATOM     22 CL   UNL d   1      -7.272   4.848  -0.210  0.00  0.00    -0.083 Cl
ATOM     23  C   UNL d   1      -4.627   1.969  -1.034  0.00  0.00     0.038 A 
ENDBRANCH  15  16
ENDBRANCH  14  15
ENDBRANCH   1  14
BRANCH   1  24
ATOM     24  O   UNL d   1      -3.690  -2.109  -3.857  0.00  0.00    -0.392 OA
ATOM     25  H   UNL d   1      -3.282  -1.375  -4.347  0.00  0.00     0.210 HD
ENDBRANCH   1  24
TORSDOF 7
