REMARK  2 active torsions:
REMARK  status: ('A' for Active; 'I' for Inactive)
REMARK    1  A    between atoms: C_8  and  N_1 
REMARK    2  A    between atoms: C_6  and  C_8 
ROOT
ATOM      1  C   UNL d   1       3.192   0.025  -0.319  0.00  0.00     0.145 C 
ENDROOT
BRANCH   1   2
ATOM      2  C   UNL d   1       4.079   1.253   0.004  0.00  0.00    -0.021 C 
ATOM      3  C   UNL d   1       3.634   1.956   1.312  0.00  0.00     0.032 C 
ATOM      4  C   UNL d   1       4.605   3.098   1.658  0.00  0.00     0.019 C 
ATOM      5 BR   UNL d   1       4.027   3.959   3.313  0.00  0.00    -0.085 Br
ATOM      6  C   UNL d   1       6.020   2.531   1.851  0.00  0.00     0.025 C 
ATOM      7  C   UNL d   1       4.611   4.136   0.525  0.00  0.00     0.025 C 
ATOM      8  C   UNL d   1       6.493   1.875   0.544  0.00  0.00    -0.012 C 
ATOM      9  C   UNL d   1       5.534   0.733   0.186  0.00  0.00     0.016 C 
ATOM     10  C   UNL d   1       6.483   2.911  -0.591  0.00  0.00     0.009 C 
ATOM     11  C   UNL d   1       5.062   3.465  -0.783  0.00  0.00    -0.012 C 
ATOM     12  C   UNL d   1       4.097   2.311  -1.129  0.00  0.00     0.016 C 
ENDBRANCH   1   2
BRANCH   1  13
ATOM     13  N   UNL d   1       1.779   0.291  -0.501  0.00  0.00    -0.279 N 
ATOM     14  C   UNL d   1       0.829   0.067   0.462  0.00  0.00     0.261 A 
ATOM     15  C   UNL d   1      -0.469   0.289  -0.176  0.00  0.00     0.048 A 
ATOM     16  O   UNL d   1       0.970  -0.281   1.617  0.00  0.00    -0.267 OA
ATOM     17  C   UNL d   1      -1.751   0.181   0.331  0.00  0.00     0.018 A 
ATOM     18  C   UNL d   1      -0.233   0.630  -1.495  0.00  0.00     0.048 A 
ATOM     19  C   UNL d   1      -2.808   0.449  -0.544  0.00  0.00     0.001 A 
ATOM     20  C   UNL d   1      -2.565   0.809  -1.886  0.00  0.00     0.001 A 
ATOM     21  C   UNL d   1      -1.260   0.895  -2.379  0.00  0.00     0.018 A 
ATOM     22  C   UNL d   1       1.211   0.596  -1.709  0.00  0.00     0.261 A 
ATOM     23  O   UNL d   1       1.743   0.772  -2.788  0.00  0.00    -0.267 OA
ENDBRANCH   1  13
TORSDOF 2
