REMARK  5 active torsions:
REMARK  status: ('A' for Active; 'I' for Inactive)
REMARK       I    between atoms: C_2  and  N_1 
REMARK       I    between atoms: C_3  and  N_1 
REMARK       I    between atoms: N_6  and  C_2 
REMARK    1  A    between atoms: C_4  and  C_3 
REMARK    2  A    between atoms: C_5  and  C_4 
REMARK    3  A    between atoms: O_11  and  C_5 
REMARK    4  A    between atoms: C_10  and  N_6 
REMARK    5  A    between atoms: C_12  and  C_10 
ROOT
ATOM      1  N   UNL d   1      -0.739  -0.007  -0.766  0.00  0.00    -0.279 N 
ATOM      2  C   UNL d   1       0.604   0.110  -1.007  0.00  0.00     0.323 C 
ATOM      3  C   UNL d   1      -1.803   0.234  -1.607  0.00  0.00     0.235 C 
ATOM      4  N   UNL d   1       0.993   0.185  -2.307  0.00  0.00    -0.339 N 
ATOM      5  O   UNL d   1       1.384   0.152  -0.058  0.00  0.00    -0.247 OA
ATOM      6  O   UNL d   1      -1.673   0.416  -2.821  0.00  0.00    -0.273 OA
ATOM      7  H   UNL d   1      -0.922  -0.055   0.237  0.00  0.00     0.173 HD
ATOM      8  H   UNL d   1       0.267   0.252  -3.016  0.00  0.00     0.164 HD
ENDROOT
BRANCH   4   9
ATOM      9  C   UNL d   1       2.369   0.419  -2.684  0.00  0.00     0.162 C 
BRANCH   9  10
ATOM     10  C   UNL d   1       2.979  -0.671  -3.533  0.00  0.00    -0.040 A 
ATOM     11  C   UNL d   1       4.064  -0.354  -4.367  0.00  0.00     0.009 A 
ATOM     12  C   UNL d   1       4.721  -1.346  -5.098  0.00  0.00     0.001 A 
ATOM     13  C   UNL d   1       4.305  -2.671  -5.002  0.00  0.00     0.000 A 
ATOM     14  C   UNL d   1       3.235  -3.004  -4.174  0.00  0.00     0.001 A 
ATOM     15  C   UNL d   1       2.581  -2.012  -3.438  0.00  0.00     0.009 A 
ENDBRANCH   9  10
ENDBRANCH   4   9
BRANCH   3  16
ATOM     16  C   UNL d   1      -3.193   0.206  -1.002  0.00  0.00     0.212 C 
BRANCH  16  17
ATOM     17  C   UNL d   1      -3.312   0.058   0.486  0.00  0.00     0.148 C 
ATOM     18  O   UNL d   1      -2.365  -0.020   1.255  0.00  0.00    -0.650 OA
BRANCH  17  19
ATOM     19  O   UNL d   1      -4.591   0.015   0.922  0.00  0.00    -0.776 OA
ATOM     20  H   UNL d   1      -5.273   0.087   0.226  0.00  0.00     0.167 HD
ENDBRANCH  17  19
ENDBRANCH  16  17
ENDBRANCH   3  16
TORSDOF 5
