REMARK  4 active torsions:
REMARK  status: ('A' for Active; 'I' for Inactive)
REMARK    1  A    between atoms: N_4  and  C_1 
REMARK    2  A    between atoms: O_10  and  C_1 
REMARK       I    between atoms: C_7  and  N_4 
REMARK    3  A    between atoms: C_12  and  C_7 
REMARK    4  A    between atoms: C_13  and  C_12 
ROOT
ATOM      1  C   UNL d   1      -1.886  -0.078  -0.198  0.00  0.00     0.269 A 
ATOM      2  C   UNL d   1      -2.487   0.202   1.196  0.00  0.00     0.224 A 
ATOM      3  C   UNL d   1      -1.051  -1.361   0.024  0.00  0.00     0.224 A 
ATOM      4  C   UNL d   1      -1.937  -0.791   2.123  0.00  0.00     0.029 A 
ATOM      5  C   UNL d   1      -1.110  -1.686   1.451  0.00  0.00     0.029 A 
ATOM      6  O   UNL d   1      -0.391  -1.990  -0.786  0.00  0.00    -0.286 OA
ATOM      7  O   UNL d   1      -3.230   1.108   1.534  0.00  0.00    -0.286 OA
ATOM      8  C   UNL d   1      -0.430  -2.688   2.123  0.00  0.00     0.016 A 
ATOM      9  C   UNL d   1      -2.123  -0.863   3.492  0.00  0.00     0.016 A 
ATOM     10  C   UNL d   1      -0.600  -2.769   3.508  0.00  0.00     0.001 A 
ATOM     11  C   UNL d   1      -1.440  -1.866   4.186  0.00  0.00     0.001 A 
ENDROOT
BRANCH   1  12
ATOM     12  N   UNL d   1      -2.851  -0.163  -1.254  0.00  0.00    -0.316 N 
ATOM     13  C   UNL d   1      -3.846  -1.106  -1.234  0.00  0.00     0.224 C 
ATOM     14  O   UNL d   1      -3.943  -1.932  -0.327  0.00  0.00    -0.273 OA
ATOM     15  H   UNL d   1      -2.948   0.664  -1.823  0.00  0.00     0.166 HD
BRANCH  13  16
ATOM     16  C   UNL d   1      -4.781  -1.073  -2.424  0.00  0.00     0.141 C 
BRANCH  16  17
ATOM     17  C   UNL d   1      -6.030  -0.255  -2.211  0.00  0.00    -0.050 A 
ATOM     18  C   UNL d   1      -6.321   0.830  -3.052  0.00  0.00     0.007 A 
ATOM     19  C   UNL d   1      -7.522   1.530  -2.917  0.00  0.00     0.001 A 
ATOM     20  C   UNL d   1      -8.443   1.155  -1.941  0.00  0.00     0.000 A 
ATOM     21  C   UNL d   1      -8.157   0.091  -1.088  0.00  0.00     0.001 A 
ATOM     22  C   UNL d   1      -6.957  -0.609  -1.220  0.00  0.00     0.007 A 
ENDBRANCH  16  17
ENDBRANCH  13  16
ENDBRANCH   1  12
BRANCH   1  23
ATOM     23  O   UNL d   1      -1.056   0.998  -0.600  0.00  0.00    -0.358 OA
ATOM     24  H   UNL d   1      -0.358   1.102   0.068  0.00  0.00     0.213 HD
ENDBRANCH   1  23
TORSDOF 4
