REMARK  5 active torsions:
REMARK  status: ('A' for Active; 'I' for Inactive)
REMARK    1  A    between atoms: C_8  and  N_1 
REMARK    2  A    between atoms: C_9  and  C_2 
REMARK    3  A    between atoms: S_15  and  C_5 
REMARK    4  A    between atoms: C_10  and  C_8 
REMARK    5  A    between atoms: C_12  and  C_13 
ROOT
ATOM      1  N   UNL d   1      -0.170  -0.938  -0.645  0.00  0.00    -0.305 N 
ATOM      2  C   UNL d   1       1.030  -0.476  -0.127  0.00  0.00     0.135 A 
ATOM      3  N   UNL d   1       0.777   0.645   0.530  0.00  0.00    -0.283 N 
ATOM      4  HN  UNL d   1       1.466   1.199   1.041  1.00  0.00     0.188 HD
ATOM      5  C   UNL d   1      -1.111  -0.004  -0.295  0.00  0.00     0.163 A 
ATOM      6  N   UNL d   1      -0.554   0.945   0.416  0.00  0.00    -0.278 N 
ATOM      7  HN  UNL d   1      -1.026   1.758   0.812  1.00  0.00     0.189 HD
ENDROOT
BRANCH   2   8
ATOM      8  C   UNL d   1       2.356  -1.106  -0.190  0.00  0.00     0.009 A 
ATOM      9  C   UNL d   1       2.823  -1.828  -1.289  0.00  0.00     0.016 A 
ATOM     10  C   UNL d   1       4.085  -2.440  -1.270  0.00  0.00     0.009 A 
ATOM     11  C   UNL d   1       4.941  -2.332  -0.161  0.00  0.00    -0.051 A 
ATOM     12  C   UNL d   1       4.494  -1.550   0.911  0.00  0.00     0.009 A 
ATOM     13  C   UNL d   1       3.226  -0.950   0.896  0.00  0.00     0.016 A 
BRANCH  11  14
ATOM     14  C   UNL d   1       6.288  -3.076  -0.147  0.00  0.00    -0.024 C 
ATOM     15  C   UNL d   1       7.111  -2.844   1.141  0.00  0.00     0.019 C 
ATOM     16  C   UNL d   1       6.025  -4.594  -0.254  0.00  0.00     0.019 C 
ATOM     17  C   UNL d   1       7.164  -2.630  -1.336  0.00  0.00     0.019 C 
ENDBRANCH  11  14
ENDBRANCH   2   8
BRANCH   1  18
ATOM     18  C   UNL d   1      -0.426  -2.207  -1.298  0.00  0.00     0.198 C 
BRANCH  18  19
ATOM     19  C   UNL d   1      -0.369  -2.109  -2.780  0.00  0.00     0.070 A 
ATOM     20  O   UNL d   1      -0.583  -3.279  -3.449  0.00  0.00    -0.325 OA
ATOM     21  C   UNL d   1      -0.464  -3.015  -4.774  0.00  0.00     0.142 A 
ATOM     22  C   UNL d   1      -0.166  -1.688  -4.974  0.00  0.00     0.027 A 
ATOM     23  C   UNL d   1      -0.112  -1.097  -3.688  0.00  0.00     0.036 A 
ENDBRANCH  18  19
ENDBRANCH   1  18
BRANCH   5  24
ATOM     24  S   UNL d   1      -2.778  -0.084  -0.753  0.00  0.00    -0.097 SA
ATOM     25  C   UNL d   1      -3.439   1.354   0.120  0.00  0.00     0.099 C 
ENDBRANCH   5  24
TORSDOF 5
