REMARK  3 active torsions:
REMARK  status: ('A' for Active; 'I' for Inactive)
REMARK    1  A    between atoms: C_8  and  C_1 
REMARK       I    between atoms: C_4  and  N_6 
REMARK    2  A    between atoms: C_10  and  C_4 
REMARK    3  A    between atoms: N_6  and  C_8 
ROOT
ATOM      1  C   UNL d   1      -0.462  -5.162   0.063  0.00  0.00     0.222 C 
ATOM      2  N   UNL d   1      -0.254  -3.820   0.290  0.00  0.00    -0.356 N 
ATOM      3  O   UNL d   1       0.463  -5.967  -0.011  0.00  0.00    -0.273 OA
ATOM      4  H   UNL d   1      -1.041  -3.196   0.398  0.00  0.00     0.162 HD
ENDROOT
BRANCH   2   5
ATOM      5  C   UNL d   1       1.069  -3.251   0.392  0.00  0.00     0.162 C 
BRANCH   5   6
ATOM      6  C   UNL d   1       1.238  -2.224  -0.686  0.00  0.00    -0.022 A 
ATOM      7  C   UNL d   1       1.691  -2.526  -1.956  0.00  0.00     0.060 A 
ATOM      8  S   UNL d   1       1.868  -1.154  -2.946  0.00  0.00    -0.101 SA
ATOM      9  C   UNL d   1       1.330  -0.097  -1.701  0.00  0.00     0.015 A 
ATOM     10  C   UNL d   1       0.993  -0.801  -0.539  0.00  0.00    -0.011 A 
ATOM     11  C   UNL d   1       1.222   1.307  -1.779  0.00  0.00     0.019 A 
ATOM     12  C   UNL d   1       0.506  -0.049   0.562  0.00  0.00     0.013 A 
ATOM     13  C   UNL d   1       0.386   1.343   0.484  0.00  0.00     0.001 A 
ATOM     14  C   UNL d   1       0.749   2.014  -0.673  0.00  0.00     0.001 A 
ENDBRANCH   5   6
ENDBRANCH   2   5
BRANCH   1  15
ATOM     15  C   UNL d   1      -1.939  -5.574  -0.023  0.00  0.00     0.078 C 
ATOM     16  C   UNL d   1      -2.105  -7.073  -0.330  0.00  0.00     0.014 C 
ATOM     17  C   UNL d   1      -1.755  -7.436  -1.776  0.00  0.00     0.001 C 
ATOM     18  C   UNL d   1      -2.449  -6.538  -2.797  0.00  0.00     0.000 C 
ATOM     19  C   UNL d   1      -2.286  -5.056  -2.476  0.00  0.00     0.001 C 
ATOM     20  C   UNL d   1      -2.728  -4.749  -1.049  0.00  0.00     0.014 C 
ENDBRANCH   1  15
TORSDOF 3
