REMARK  5 active torsions:
REMARK  status: ('A' for Active; 'I' for Inactive)
REMARK    1  A    between atoms: C_4  and  C_1 
REMARK    2  A    between atoms: O_11  and  C_2 
REMARK    3  A    between atoms: O_10  and  C_3 
REMARK    4  A    between atoms: C_8  and  O_11 
REMARK    5  A    between atoms: C_9  and  O_10 
ROOT
ATOM      1  C   UNL d   1       1.371  -0.196   0.055  0.00  0.00     0.015 A 
ATOM      2  C   UNL d   1      -0.658   1.115   0.115  0.00  0.00     0.082 A 
ATOM      3  C   UNL d   1      -0.784  -1.277  -0.072  0.00  0.00     0.082 A 
ATOM      4  C   UNL d   1      -1.428  -0.042   0.024  0.00  0.00     0.074 A 
ATOM      5  C   UNL d   1       0.609  -1.361  -0.088  0.00  0.00     0.052 A 
ATOM      6  C   UNL d   1       0.738   1.048   0.145  0.00  0.00     0.052 A 
ENDROOT
BRANCH   2   7
ATOM      7  O   UNL d   1      -1.204   2.409   0.266  0.00  0.00    -0.279 OA
BRANCH   7   8
ATOM      8  C   UNL d   1      -2.415   2.784  -0.316  0.00  0.00     0.260 C 
ATOM      9  O   UNL d   1      -3.126   2.094  -1.033  0.00  0.00    -0.265 OA
ATOM     10  C   UNL d   1      -2.718   4.210   0.041  0.00  0.00     0.126 C 
ENDBRANCH   7   8
ENDBRANCH   2   7
BRANCH   1  11
ATOM     11  C   UNL d   1       2.854  -0.329   0.097  0.00  0.00     0.155 C 
ATOM     12  O   UNL d   1       3.390  -1.268  -0.485  0.00  0.00    -0.293 OA
ATOM     13  C   UNL d   1       3.672   0.671   0.874  0.00  0.00     0.097 C 
ENDBRANCH   1  11
BRANCH   3  14
ATOM     14  O   UNL d   1      -1.619  -2.402  -0.212  0.00  0.00    -0.279 OA
BRANCH  14  15
ATOM     15  C   UNL d   1      -1.324  -3.585   0.464  0.00  0.00     0.260 C 
ATOM     16  O   UNL d   1      -0.355  -3.799   1.179  0.00  0.00    -0.265 OA
ATOM     17  C   UNL d   1      -2.394  -4.599   0.181  0.00  0.00     0.126 C 
ENDBRANCH  14  15
ENDBRANCH   3  14
TORSDOF 5
