REMARK  3 active torsions:
REMARK  status: ('A' for Active; 'I' for Inactive)
REMARK    1  A    between atoms: C_6  and  N_1 
REMARK    2  A    between atoms: C_2  and  C_9 
REMARK    3  A    between atoms: C_11  and  C_3 
ROOT
ATOM      1  C   UNL d   1      -1.938  -4.740   0.658  0.00  0.00     0.055 C 
ATOM      2  C   UNL d   1      -3.001  -4.966  -0.144  0.00  0.00     0.035 C 
ATOM      3  C   UNL d   1      -1.192  -3.517   0.537  0.00  0.00     0.100 C 
ATOM      4  N   UNL d   1      -0.600  -2.523   0.455  0.00  0.00    -0.191 NA
ENDROOT
BRANCH   1   5
ATOM      5  C   UNL d   1      -1.542  -5.740   1.694  0.00  0.00    -0.015 A 
ATOM      6  C   UNL d   1      -1.725  -7.125   1.500  0.00  0.00     0.015 A 
ATOM      7  C   UNL d   1      -1.329  -8.059   2.468  0.00  0.00     0.037 A 
ATOM      8  C   UNL d   1      -0.725  -7.618   3.648  0.00  0.00     0.102 A 
ATOM      9  C   UNL d   1      -0.521  -6.251   3.863  0.00  0.00     0.037 A 
ATOM     10  C   UNL d   1      -0.929  -5.325   2.892  0.00  0.00     0.015 A 
BRANCH   8  11
ATOM     11  N   UNL d   1      -0.297  -8.591   4.662  0.00  0.00    -0.116 N 
ATOM     12  O   UNL d   1       0.240  -8.154   5.689  0.00  0.00    -0.532 OA
ATOM     13  O   UNL d   1      -0.499  -9.791   4.429  0.00  0.00    -0.532 OA
ENDBRANCH   8  11
ENDBRANCH   1   5
BRANCH   2  14
ATOM     14  C   UNL d   1      -3.453  -4.067  -1.214  0.00  0.00    -0.033 A 
ATOM     15  C   UNL d   1      -4.425  -3.093  -0.960  0.00  0.00     0.037 A 
ATOM     16  C   UNL d   1      -4.850  -2.238  -1.985  0.00  0.00     0.056 A 
ATOM     17 CL   UNL d   1      -6.060  -1.065  -1.600  0.00  0.00    -0.083 Cl
ATOM     18  C   UNL d   1      -4.301  -2.354  -3.267  0.00  0.00     0.055 A 
ATOM     19  C   UNL d   1      -3.328  -3.325  -3.519  0.00  0.00     0.026 A 
ATOM     20 CL   UNL d   1      -4.782  -1.339  -4.579  0.00  0.00    -0.083 Cl
ATOM     21  C   UNL d   1      -2.906  -4.180  -2.497  0.00  0.00     0.013 A 
ENDBRANCH   2  14
TORSDOF 3
