REMARK  4 active torsions:
REMARK  status: ('A' for Active; 'I' for Inactive)
REMARK    1  A    between atoms: C_3  and  C_1 
REMARK       I    between atoms: N_8  and  C_3 
REMARK    2  A    between atoms: C_6  and  O_12 
REMARK    3  A    between atoms: C_13  and  N_8 
REMARK    4  A    between atoms: O_12  and  C_17 
ROOT
ATOM      1  C   UNL d   1      -2.919  -2.222  -0.362  0.00  0.00     0.262 C 
ATOM      2  N   UNL d   1      -2.583  -3.549  -0.204  0.00  0.00    -0.323 N 
ATOM      3  O   UNL d   1      -4.055  -1.802  -0.583  0.00  0.00    -0.267 OA
ATOM      4  H   UNL d   1      -1.599  -3.760  -0.026  0.00  0.00     0.169 HD
ENDROOT
BRANCH   1   5
ATOM      5  C   UNL d   1      -1.782  -1.247  -0.268  0.00  0.00     0.108 A 
ATOM      6  C   UNL d   1      -0.415  -1.623   0.154  0.00  0.00     0.304 A 
ATOM      7  O   UNL d   1       0.525  -0.606   0.280  0.00  0.00    -0.274 OA
ATOM      8  O   UNL d   1      -0.118  -2.794   0.385  0.00  0.00    -0.259 OA
ATOM      9  C   UNL d   1       0.228   0.718  -0.092  0.00  0.00     0.089 A 
ATOM     10  C   UNL d   1      -1.038   1.055  -0.553  0.00  0.00    -0.001 A 
ATOM     11  C   UNL d   1       1.248   1.664  -0.009  0.00  0.00     0.038 A 
ATOM     12  C   UNL d   1      -2.062   0.025  -0.598  0.00  0.00     0.037 A 
ATOM     13  C   UNL d   1      -1.292   2.366  -0.954  0.00  0.00     0.014 A 
ATOM     14  C   UNL d   1      -0.275   3.323  -0.889  0.00  0.00     0.001 A 
ATOM     15  C   UNL d   1       0.991   2.973  -0.412  0.00  0.00     0.003 A 
ENDBRANCH   1   5
BRANCH   2  16
ATOM     16  C   UNL d   1      -3.448  -4.666  -0.256  0.00  0.00     0.035 A 
ATOM     17  C   UNL d   1      -4.828  -4.582  -0.447  0.00  0.00     0.032 A 
ATOM     18  C   UNL d   1      -5.625  -5.736  -0.493  0.00  0.00     0.039 A 
ATOM     19  C   UNL d   1      -5.046  -6.995  -0.369  0.00  0.00     0.078 A 
ATOM     20  C   UNL d   1      -3.668  -7.083  -0.160  0.00  0.00     0.039 A 
ATOM     21  C   UNL d   1      -2.874  -5.931  -0.103  0.00  0.00     0.032 A 
BRANCH  19  22
ATOM     22  O   UNL d   1      -5.686  -8.198  -0.442  0.00  0.00    -0.255 OA
BRANCH  22  23
ATOM     23  C   UNL d   1      -7.067  -8.204  -0.762  0.00  0.00     0.530 C 
ATOM     24  F   UNL d   1      -7.333  -7.476  -1.868  0.00  0.00    -0.144 F 
ATOM     25  F   UNL d   1      -7.445  -9.479  -1.009  0.00  0.00    -0.144 F 
ATOM     26  F   UNL d   1      -7.800  -7.741   0.272  0.00  0.00    -0.144 F 
ENDBRANCH  22  23
ENDBRANCH  19  22
ENDBRANCH   2  16
TORSDOF 4
