REMARK  4 active torsions:
REMARK  status: ('A' for Active; 'I' for Inactive)
REMARK    1  A    between atoms: C_2  and  C_1 
REMARK    2  A    between atoms: C_3  and  C_2 
REMARK    3  A    between atoms: C_11  and  C_4 
REMARK    4  A    between atoms: N_10  and  C_8 
ROOT
ATOM      1  C   UNL d   1       1.044   0.168   1.984  0.00  0.00     0.096 C 
ATOM      2  C   UNL d   1       0.222   0.591   1.003  0.00  0.00     0.038 C 
ATOM      3  C   UNL d   1       0.558  -0.527   3.134  0.00  0.00     0.103 C 
ATOM      4  N   UNL d   1       0.172  -1.062   4.085  0.00  0.00    -0.191 NA
ENDROOT
BRANCH   1   5
ATOM      5  C   UNL d   1       2.499   0.526   1.845  0.00  0.00     0.204 C 
ATOM      6  O   UNL d   1       2.979   0.820   0.753  0.00  0.00    -0.286 OA
BRANCH   5   7
ATOM      7  C   UNL d   1       3.343   0.614   3.075  0.00  0.00     0.037 A 
ATOM      8  C   UNL d   1       4.671   0.162   3.111  0.00  0.00     0.048 A 
ATOM      9 CL   UNL d   1       5.472  -0.556   1.758  0.00  0.00    -0.083 Cl
ATOM     10  C   UNL d   1       5.408   0.251   4.301  0.00  0.00     0.025 A 
ATOM     11  C   UNL d   1       4.832   0.784   5.455  0.00  0.00     0.002 A 
ATOM     12  C   UNL d   1       3.529   1.269   5.415  0.00  0.00     0.001 A 
ATOM     13  C   UNL d   1       2.801   1.212   4.226  0.00  0.00     0.017 A 
ENDBRANCH   5   7
ENDBRANCH   1   5
BRANCH   2  14
ATOM     14  C   UNL d   1      -1.240   0.500   1.073  0.00  0.00    -0.035 A 
ATOM     15  C   UNL d   1      -1.972   1.612   1.487  0.00  0.00     0.013 A 
ATOM     16  C   UNL d   1      -3.367   1.542   1.611  0.00  0.00     0.030 A 
ATOM     17  C   UNL d   1      -4.090   0.375   1.318  0.00  0.00     0.029 A 
ATOM     18  C   UNL d   1      -3.321  -0.728   0.902  0.00  0.00     0.030 A 
ATOM     19  C   UNL d   1      -1.922  -0.676   0.782  0.00  0.00     0.013 A 
BRANCH  17  20
ATOM     20  N   UNL d   1      -5.479   0.321   1.361  0.00  0.00    -0.390 N 
ATOM     21  C   UNL d   1      -6.167  -0.906   1.764  0.00  0.00     0.149 C 
ATOM     22  C   UNL d   1      -6.288   1.530   1.494  0.00  0.00     0.149 C 
ENDBRANCH  17  20
ENDBRANCH   2  14
TORSDOF 4
