REMARK  5 active torsions:
REMARK  status: ('A' for Active; 'I' for Inactive)
REMARK    1  A    between atoms: C_8  and  C_1 
REMARK    2  A    between atoms: N_7  and  C_2 
REMARK    3  A    between atoms: C_10  and  C_3 
REMARK       I    between atoms: C_9  and  N_7 
REMARK       I    between atoms: N_11  and  C_9 
REMARK    4  A    between atoms: C_13  and  N_11 
REMARK    5  A    between atoms: O_23  and  C_20 
ROOT
ATOM      1  C   UNL d   1       1.804   1.034  -0.470  0.00  0.00     0.147 A 
ATOM      2  C   UNL d   1       0.427  -0.666  -0.040  0.00  0.00     0.139 A 
ATOM      3  C   UNL d   1       1.767  -0.374  -0.213  0.00  0.00     0.053 A 
ATOM      4  N   UNL d   1       0.553   1.538  -0.533  0.00  0.00    -0.292 N 
ATOM      5  HN  UNL d   1       0.281   2.499  -0.743  1.00  0.00     0.187 HD
ATOM      6  N   UNL d   1      -0.256   0.501  -0.260  0.00  0.00    -0.280 N 
ATOM      7  C   UNL d   1      -1.661   0.760  -0.040  0.00  0.00     0.179 C 
ENDROOT
BRANCH   2   8
ATOM      8  N   UNL d   1      -0.052  -1.865   0.448  0.00  0.00    -0.293 N 
ATOM      9  C   UNL d   1      -1.104  -2.659  -0.051  0.00  0.00     0.322 C 
ATOM     10  N   UNL d   1      -1.314  -2.554  -1.392  0.00  0.00    -0.335 N 
ATOM     11  O   UNL d   1      -1.604  -3.447   0.732  0.00  0.00    -0.247 OA
ATOM     12  H   UNL d   1      -0.717  -1.938  -1.925  0.00  0.00     0.165 HD
ATOM     13  H   UNL d   1       0.402  -2.245   1.275  0.00  0.00     0.172 HD
BRANCH  10  14
ATOM     14  C   UNL d   1      -2.146  -3.509  -2.151  0.00  0.00     0.023 C 
ATOM     15  C   UNL d   1      -3.626  -3.323  -1.791  0.00  0.00     0.037 C 
ATOM     16  C   UNL d   1      -1.960  -3.235  -3.654  0.00  0.00     0.037 C 
ATOM     17  C   UNL d   1      -1.729  -4.973  -1.895  0.00  0.00     0.037 C 
ENDBRANCH  10  14
ENDBRANCH   2   8
BRANCH   3  18
ATOM     18  C   UNL d   1       2.833  -1.367  -0.194  0.00  0.00    -0.020 A 
ATOM     19  C   UNL d   1       2.689  -2.564  -0.915  0.00  0.00     0.015 A 
ATOM     20  C   UNL d   1       3.737  -3.488  -1.000  0.00  0.00     0.037 A 
ATOM     21  C   UNL d   1       4.953  -3.217  -0.381  0.00  0.00     0.068 A 
ATOM     22  C   UNL d   1       5.099  -2.031   0.343  0.00  0.00     0.037 A 
ATOM     23  C   UNL d   1       4.043  -1.119   0.455  0.00  0.00     0.015 A 
BRANCH  21  24
ATOM     24  O   UNL d   1       6.075  -3.992  -0.451  0.00  0.00    -0.356 OA
ATOM     25  C   UNL d   1       5.892  -5.356  -0.810  0.00  0.00     0.210 C 
ENDBRANCH  21  24
ENDBRANCH   3  18
BRANCH   1  26
ATOM     26  C   UNL d   1       3.027   1.909  -0.625  0.00  0.00     0.434 C 
ATOM     27  F   UNL d   1       4.039   1.276  -1.274  0.00  0.00    -0.165 F 
ATOM     28  F   UNL d   1       2.786   3.055  -1.311  0.00  0.00    -0.165 F 
ATOM     29  F   UNL d   1       3.517   2.272   0.593  0.00  0.00    -0.165 F 
ENDBRANCH   1  26
TORSDOF 5
