REMARK  4 active torsions:
REMARK  status: ('A' for Active; 'I' for Inactive)
REMARK    1  A    between atoms: C_10  and  C_1 
REMARK    2  A    between atoms: C_3  and  C_14 
REMARK    3  A    between atoms: C_14  and  N_4 
REMARK    4  A    between atoms: O_17  and  C_6 
ROOT
ATOM      1  C   UNL d   1      -1.293  -1.213  -0.001  0.00  0.00     0.014 A 
ATOM      2  C   UNL d   1      -1.950   0.026   0.002  0.00  0.00     0.077 A 
ATOM      3  C   UNL d   1       0.103  -1.260  -0.005  0.00  0.00     0.039 A 
ATOM      4  C   UNL d   1      -1.222   1.213   0.001  0.00  0.00     0.039 A 
ATOM      5  C   UNL d   1       0.825  -0.065  -0.006  0.00  0.00     0.035 A 
ATOM      6  C   UNL d   1       0.171   1.169  -0.003  0.00  0.00     0.026 A 
ATOM      7 CL   UNL d   1       2.546  -0.111  -0.011  0.00  0.00    -0.084 Cl
ENDROOT
BRANCH   1   8
ATOM      8  C   UNL d   1      -2.050  -2.483   0.001  0.00  0.00     0.097 C 
ATOM      9  N   UNL d   1      -3.339  -2.466  -0.004  0.00  0.00    -0.393 N 
ATOM     10  HN  UNL d   1      -3.876  -1.599  -0.013  1.00  0.00     0.159 HD
BRANCH   9  11
ATOM     11  C   UNL d   1      -3.974  -3.789   0.003  0.00  0.00     0.165 C 
BRANCH  11  12
ATOM     12  C   UNL d   1      -5.460  -3.584  -0.012  0.00  0.00    -0.000 A 
ATOM     13  S   UNL d   1      -6.438  -4.196   1.254  0.00  0.00    -0.105 SA
ATOM     14  C   UNL d   1      -7.863  -3.570   0.544  0.00  0.00     0.050 A 
ATOM     15  C   UNL d   1      -7.605  -2.910  -0.636  0.00  0.00     0.008 A 
ATOM     16  C   UNL d   1      -6.218  -2.919  -0.958  0.00  0.00     0.017 A 
ENDBRANCH  11  12
ENDBRANCH   9  11
ENDBRANCH   1   8
BRANCH   2  17
ATOM     17  O   UNL d   1      -3.313   0.147   0.007  0.00  0.00    -0.360 OA
ATOM     18  H   UNL d   1      -3.687  -0.766   0.026  0.00  0.00     0.217 HD
ENDBRANCH   2  17
TORSDOF 4
