REMARK  4 active torsions:
REMARK  status: ('A' for Active; 'I' for Inactive)
REMARK    1  A    between atoms: C_7  and  N_1 
REMARK    2  A    between atoms: C_9  and  C_2 
REMARK    3  A    between atoms: C_8  and  C_7 
REMARK    4  A    between atoms: O_14  and  C_8 
ROOT
ATOM      1  N   UNL d   1      -0.071  -1.353   0.139  0.00  0.00    -0.251 N 
ATOM      2  C   UNL d   1       1.109  -0.653   0.011  0.00  0.00     0.144 A 
ATOM      3  N   UNL d   1      -0.585   0.699  -0.039  0.00  0.00    -0.007 NA
ATOM      4  N   UNL d   1      -1.115  -0.502   0.105  0.00  0.00    -0.004 NA
ATOM      5  N   UNL d   1       0.778   0.622  -0.121  0.00  0.00    -0.270 N 
ATOM      6  HN  UNL d   1       1.421   1.402  -0.258  1.00  0.00     0.185 HD
ENDROOT
BRANCH   2   7
ATOM      7  C   UNL d   1       2.483  -1.163  -0.027  0.00  0.00     0.010 A 
ATOM      8  C   UNL d   1       3.436  -0.479  -0.803  0.00  0.00     0.017 A 
ATOM      9  C   UNL d   1       4.780  -0.869  -0.811  0.00  0.00     0.025 A 
ATOM     10  C   UNL d   1       5.188  -1.952  -0.041  0.00  0.00     0.034 A 
ATOM     11  C   UNL d   1       4.262  -2.649   0.730  0.00  0.00     0.025 A 
ATOM     12 CL   UNL d   1       6.843  -2.416  -0.013  0.00  0.00    -0.084 Cl
ATOM     13  C   UNL d   1       2.920  -2.248   0.743  0.00  0.00     0.017 A 
ENDBRANCH   2   7
BRANCH   1  14
ATOM     14  C   UNL d   1      -0.332  -2.771   0.081  0.00  0.00     0.259 C 
BRANCH  14  15
ATOM     15  C   UNL d   1      -0.325  -3.402   1.444  0.00  0.00     0.278 C 
ATOM     16  O   UNL d   1      -0.014  -2.849   2.487  0.00  0.00    -0.263 OA
BRANCH  15  17
ATOM     17  O   UNL d   1      -0.637  -4.726   1.324  0.00  0.00    -0.325 OA
ATOM     18  C   UNL d   1      -0.587  -5.510   2.523  0.00  0.00     0.213 C 
ENDBRANCH  15  17
ENDBRANCH  14  15
ENDBRANCH   1  14
TORSDOF 4
