REMARK  5 active torsions:
REMARK  status: ('A' for Active; 'I' for Inactive)
REMARK    1  A    between atoms: C_6  and  C_1 
REMARK    2  A    between atoms: C_5  and  C_2 
REMARK    3  A    between atoms: O_10  and  C_5 
REMARK    4  A    between atoms: C_12  and  C_7 
REMARK    5  A    between atoms: C_11  and  O_10 
ROOT
ATOM      1  C   UNL d   1      -1.621  -0.646   0.228  0.00  0.00     0.087 A 
ATOM      2  C   UNL d   1      -0.293  -1.156   0.087  0.00  0.00     0.100 A 
ATOM      3  N   UNL d   1      -1.581   0.661   0.538  0.00  0.00    -0.259 N 
ATOM      4  HN  UNL d   1      -2.379   1.259   0.754  1.00  0.00     0.195 HD
ATOM      5  O   UNL d   1      -0.259   1.038   0.510  0.00  0.00    -0.241 OA
ATOM      6  C   UNL d   1       0.509  -0.041   0.241  0.00  0.00     0.091 A 
ATOM      7  C   UNL d   1       1.960   0.217   0.135  0.00  0.00     0.080 C 
ENDROOT
BRANCH   2   8
ATOM      8  C   UNL d   1       0.243  -2.469  -0.167  0.00  0.00     0.303 C 
ATOM      9  O   UNL d   1       1.325  -2.824   0.296  0.00  0.00    -0.259 OA
BRANCH   8  10
ATOM     10  O   UNL d   1      -0.514  -3.236  -1.047  0.00  0.00    -0.274 OA
BRANCH  10  11
ATOM     11  C   UNL d   1       0.324  -4.201  -1.626  0.00  0.00     0.093 A 
ATOM     12  C   UNL d   1       1.299  -3.850  -2.587  0.00  0.00     0.045 A 
ATOM     13  C   UNL d   1       2.208  -4.822  -3.010  0.00  0.00     0.042 A 
ATOM     14  C   UNL d   1       2.133  -6.116  -2.489  0.00  0.00     0.035 A 
ATOM     15  C   UNL d   1       1.136  -6.468  -1.578  0.00  0.00     0.026 A 
ATOM     16 CL   UNL d   1       3.291  -7.292  -2.977  0.00  0.00    -0.084 Cl
ATOM     17  C   UNL d   1       0.220  -5.510  -1.148  0.00  0.00     0.040 A 
BRANCH  12  18
ATOM     18  C   UNL d   1       1.344  -2.455  -3.124  0.00  0.00     0.158 C 
ATOM     19  O   UNL d   1       0.312  -1.784  -3.142  0.00  0.00    -0.293 OA
ATOM     20  C   UNL d   1       2.646  -1.844  -3.569  0.00  0.00     0.097 C 
ENDBRANCH  12  18
ENDBRANCH  10  11
ENDBRANCH   8  10
ENDBRANCH   2   8
BRANCH   1  21
ATOM     21  C   UNL d   1      -2.927  -1.311   0.158  0.00  0.00     0.037 A 
ATOM     22  C   UNL d   1      -3.246  -2.404   0.984  0.00  0.00     0.048 A 
ATOM     23 CL   UNL d   1      -2.122  -3.104   2.101  0.00  0.00    -0.083 Cl
ATOM     24  C   UNL d   1      -4.533  -2.962   0.977  0.00  0.00     0.025 A 
ATOM     25  C   UNL d   1      -5.530  -2.431   0.164  0.00  0.00     0.003 A 
ATOM     26  C   UNL d   1      -5.236  -1.352  -0.662  0.00  0.00     0.025 A 
ATOM     27  C   UNL d   1      -3.947  -0.801  -0.677  0.00  0.00     0.048 A 
ATOM     28 CL   UNL d   1      -3.698   0.508  -1.788  0.00  0.00    -0.083 Cl
ENDBRANCH   1  21
TORSDOF 5
