REMARK  7 active torsions:
REMARK  status: ('A' for Active; 'I' for Inactive)
REMARK    1  A    between atoms: C_2  and  N_1 
REMARK    2  A    between atoms: C_3  and  C_10 
REMARK    3  A    between atoms: C_6  and  C_3 
REMARK    4  A    between atoms: N_4  and  N_9 
REMARK    5  A    between atoms: O_17  and  C_6 
REMARK    6  A    between atoms: N_9  and  C_14 
REMARK    7  A    between atoms: C_19  and  O_17 
ROOT
ATOM      1  N   UNL d   1      -0.278   2.127  -5.679  0.00  0.00    -0.206 NA
ATOM      2  H   UNL d   1      -0.484   1.556  -6.500  0.00  0.00     0.153 HD
ENDROOT
BRANCH   1   3
ATOM      3  N   UNL d   1      -1.294   2.894  -5.200  0.00  0.00    -0.325 N 
ATOM      4  C   UNL d   1      -1.995   3.570  -6.062  0.00  0.00     0.004 C 
ATOM      5  C   UNL d   1      -1.703   3.621  -7.545  0.00  0.00     0.065 C 
ATOM      6  HN  UNL d   1      -1.498   2.938  -4.202  1.00  0.00     0.180 HD
BRANCH   4   7
ATOM      7  C   UNL d   1      -3.141   4.389  -5.525  0.00  0.00     0.164 C 
BRANCH   7   8
ATOM      8  C   UNL d   1      -4.454   4.093  -6.185  0.00  0.00     0.264 C 
ATOM      9  O   UNL d   1      -4.638   3.254  -7.055  0.00  0.00    -0.265 OA
BRANCH   8  10
ATOM     10  O   UNL d   1      -5.386   4.979  -5.734  0.00  0.00    -0.322 OA
BRANCH  10  11
ATOM     11  C   UNL d   1      -6.565   5.095  -6.541  0.00  0.00     0.174 C 
ATOM     12  C   UNL d   1      -6.299   6.142  -7.608  0.00  0.00     0.034 C 
ENDBRANCH  10  11
ENDBRANCH   8  10
ENDBRANCH   7   8
ENDBRANCH   4   7
ENDBRANCH   1   3
BRANCH   1  13
ATOM     13  C   UNL d   1       0.462   1.412  -4.709  0.00  0.00     0.027 A 
ATOM     14  C   UNL d   1       1.111   0.222  -5.065  0.00  0.00     0.027 A 
ATOM     15  C   UNL d   1       1.869  -0.489  -4.129  0.00  0.00     0.038 A 
ATOM     16  C   UNL d   1       2.008   0.012  -2.830  0.00  0.00     0.103 A 
ATOM     17  C   UNL d   1       1.403   1.217  -2.464  0.00  0.00     0.038 A 
ATOM     18  C   UNL d   1       0.640   1.911  -3.408  0.00  0.00     0.027 A 
BRANCH  16  19
ATOM     19  N   UNL d   1       2.804  -0.732  -1.842  0.00  0.00    -0.116 N 
ATOM     20  O   UNL d   1       2.923  -0.242  -0.710  0.00  0.00    -0.532 OA
ATOM     21  O   UNL d   1       3.309  -1.806  -2.201  0.00  0.00    -0.532 OA
ENDBRANCH  16  19
ENDBRANCH   1  13
TORSDOF 7
