REMARK  4 active torsions:
REMARK  status: ('A' for Active; 'I' for Inactive)
REMARK    1  A    between atoms: C_2  and  S_1 
REMARK    2  A    between atoms: O_5  and  S_1 
REMARK    3  A    between atoms: C_17  and  O_5 
REMARK    4  A    between atoms: C_8  and  C_13 
ROOT
ATOM      1  S   UNL d   1       0.937   0.065  -0.073  0.00  0.00     0.304 S 
ATOM      2  O   UNL d   1       0.170   0.736  -1.107  0.00  0.00    -0.193 OA
ATOM      3  O   UNL d   1       2.384   0.128  -0.108  0.00  0.00    -0.193 OA
ENDROOT
BRANCH   1   4
ATOM      4  C   UNL d   1       0.410  -1.669  -0.096  0.00  0.00     0.098 A 
ATOM      5  C   UNL d   1      -0.987  -1.937  -0.028  0.00  0.00    -0.037 A 
ATOM      6  C   UNL d   1      -1.444  -3.265  -0.150  0.00  0.00     0.015 A 
ATOM      7  C   UNL d   1      -2.078  -0.906   0.131  0.00  0.00     0.050 C 
ATOM      8  C   UNL d   1      -0.562  -4.329  -0.315  0.00  0.00    -0.061 A 
ATOM      9  C   UNL d   1       0.804  -4.060  -0.346  0.00  0.00     0.015 A 
ATOM     10  C   UNL d   1      -1.079  -5.730  -0.458  0.00  0.00     0.048 C 
ATOM     11  C   UNL d   1       1.322  -2.748  -0.235  0.00  0.00    -0.037 A 
ATOM     12  C   UNL d   1       2.827  -2.709  -0.285  0.00  0.00     0.050 C 
ENDBRANCH   1   4
BRANCH   1  13
ATOM     13  O   UNL d   1       0.439   0.594   1.394  0.00  0.00    -0.229 OA
BRANCH  13  14
ATOM     14  C   UNL d   1       0.654   1.887   1.808  0.00  0.00     0.089 A 
ATOM     15  C   UNL d   1      -0.274   2.411   2.710  0.00  0.00     0.039 A 
ATOM     16  C   UNL d   1      -0.106   3.701   3.236  0.00  0.00     0.012 A 
ATOM     17  C   UNL d   1       1.004   4.484   2.880  0.00  0.00    -0.035 A 
ATOM     18  C   UNL d   1       1.925   3.940   1.972  0.00  0.00     0.012 A 
ATOM     19  C   UNL d   1       1.754   2.656   1.445  0.00  0.00     0.039 A 
BRANCH  17  20
ATOM     20  C   UNL d   1       1.204   5.858   3.493  0.00  0.00     0.141 C 
ATOM     21  S   UNL d   1       1.323   7.176   2.234  0.00  0.00    -0.148 SA
ATOM     22  C   UNL d   1       2.765   8.020   2.933  0.00  0.00     0.085 C 
ATOM     23  C   UNL d   1       3.682   6.971   3.527  0.00  0.00     0.085 C 
ATOM     24  S   UNL d   1       2.670   5.906   4.583  0.00  0.00    -0.148 SA
ENDBRANCH  17  20
ENDBRANCH  13  14
ENDBRANCH   1  13
TORSDOF 4
