REMARK  7 active torsions:
REMARK  status: ('A' for Active; 'I' for Inactive)
REMARK    1  A    between atoms: N_2  and  C_1 
REMARK       I    between atoms: C_4  and  N_2 
REMARK    2  A    between atoms: C_16  and  C_4 
REMARK    3  A    between atoms: O_15  and  C_5 
REMARK    4  A    between atoms: C_6  and  C_17 
REMARK    5  A    between atoms: O_12  and  C_6 
REMARK    6  A    between atoms: O_11  and  C_16 
REMARK    7  A    between atoms: C_17  and  O_11 
ROOT
ATOM      1  N   UNL d   1       2.132   2.642  -0.082  0.00  0.00    -0.323 N 
ATOM      2  C   UNL d   1       1.465   3.853   0.002  0.00  0.00     0.245 C 
ATOM      3  O   UNL d   1       0.267   4.039   0.186  0.00  0.00    -0.271 OA
ATOM      4  H   UNL d   1       3.121   2.744  -0.244  0.00  0.00     0.169 HD
ENDROOT
BRANCH   1   5
ATOM      5  C   UNL d   1       1.597   1.332  -0.028  0.00  0.00     0.070 A 
ATOM      6  C   UNL d   1       0.200   1.151   0.007  0.00  0.00     0.056 A 
ATOM      7  C   UNL d   1      -0.379  -0.118   0.018  0.00  0.00     0.036 A 
ATOM      8 CL   UNL d   1      -2.093  -0.282   0.032  0.00  0.00    -0.084 Cl
ATOM      9  C   UNL d   1       0.417  -1.248   0.005  0.00  0.00     0.026 A 
ATOM     10  C   UNL d   1       1.800  -1.095  -0.020  0.00  0.00     0.041 A 
ATOM     11  C   UNL d   1       2.412   0.177  -0.039  0.00  0.00     0.095 A 
BRANCH  11  12
ATOM     12  O   UNL d   1       3.770   0.023  -0.068  0.00  0.00    -0.354 OA
ATOM     13  C   UNL d   1       4.677   1.102   0.013  0.00  0.00     0.210 C 
ENDBRANCH  11  12
ENDBRANCH   1   5
BRANCH   2  14
ATOM     14  C   UNL d   1       2.426   5.039  -0.087  0.00  0.00     0.271 C 
BRANCH  14  15
ATOM     15  O   UNL d   1       3.324   4.891  -1.187  0.00  0.00    -0.372 OA
BRANCH  15  16
ATOM     16  C   UNL d   1       4.176   6.022  -1.326  0.00  0.00     0.277 C 
BRANCH  16  17
ATOM     17  C   UNL d   1       5.256   6.125  -0.250  0.00  0.00     0.164 C 
ATOM     18  O   UNL d   1       5.612   5.197   0.460  0.00  0.00    -0.648 OA
BRANCH  17  19
ATOM     19  O   UNL d   1       5.790   7.365  -0.141  0.00  0.00    -0.775 OA
ATOM     20  H   UNL d   1       5.410   8.035  -0.740  0.00  0.00     0.167 HD
ENDBRANCH  17  19
ENDBRANCH  16  17
ENDBRANCH  15  16
ENDBRANCH  14  15
ENDBRANCH   2  14
TORSDOF 7
