REMARK WARNING: 32 MAX_TORS EXCEEDED!!!
REMARK  42 active torsions:
REMARK  status: ('A' for Active; 'I' for Inactive)
REMARK    1  A    between atoms: C_10  and  S_1 
REMARK    2  A    between atoms: N_19  and  S_1 
REMARK    3  A    between atoms: S_2  and  C_11 
REMARK    4  A    between atoms: N_20  and  S_2 
REMARK    5  A    between atoms: N_13  and  C_6 
REMARK    6  A    between atoms: N_12  and  C_7 
REMARK    7  A    between atoms: C_33  and  N_19 
REMARK    8  A    between atoms: C_34  and  N_19 
REMARK    9  A    between atoms: C_35  and  N_20 
REMARK   10  A    between atoms: C_36  and  N_20 
REMARK   11  A    between atoms: C_37  and  C_33 
REMARK   12  A    between atoms: C_38  and  C_34 
REMARK   13  A    between atoms: C_39  and  C_35 
REMARK   14  A    between atoms: C_40  and  C_36 
REMARK   15  A    between atoms: C_61  and  C_37 
REMARK   16  A    between atoms: C_62  and  C_38 
REMARK   17  A    between atoms: C_63  and  C_39 
REMARK   18  A    between atoms: C_64  and  C_40 
REMARK   19  A    between atoms: C_41  and  C_45 
REMARK   20  A    between atoms: C_42  and  C_46 
REMARK   21  A    between atoms: C_43  and  C_47 
REMARK   22  A    between atoms: C_44  and  C_48 
REMARK   23  A    between atoms: C_45  and  C_57 
REMARK   24  A    between atoms: C_46  and  C_58 
REMARK   25  A    between atoms: C_47  and  C_59 
REMARK   26  A    between atoms: C_48  and  C_60 
REMARK   27  A    between atoms: C_49  and  C_65 
REMARK   28  A    between atoms: C_53  and  C_49 
REMARK   29  A    between atoms: C_50  and  C_66 
REMARK   30  A    between atoms: C_54  and  C_50 
REMARK   31  A    between atoms: C_51  and  C_67 
REMARK   32  A    between atoms: C_55  and  C_51 
REMARK   33  A    between atoms: C_52  and  C_68 
REMARK   34  A    between atoms: C_56  and  C_52 
REMARK   35  A    between atoms: C_57  and  C_53 
REMARK   36  A    between atoms: C_58  and  C_54 
REMARK   37  A    between atoms: C_59  and  C_55 
REMARK   38  A    between atoms: C_60  and  C_56 
REMARK   39  A    between atoms: C_65  and  C_61 
REMARK   40  A    between atoms: C_66  and  C_62 
REMARK   41  A    between atoms: C_67  and  C_63 
REMARK   42  A    between atoms: C_68  and  C_64 
ROOT
ATOM      1  C   UNL d   1      -0.125  -3.033   3.336  0.00  0.00     0.022 C 
ATOM      2  C   UNL d   1      -0.130  -4.185   4.257  0.00  0.00     0.022 A 
ATOM      3  C   UNL d   1       0.394  -4.963   2.093  0.00  0.00     0.018 C 
ATOM      4  C   UNL d   1      -0.268  -4.311   5.641  0.00  0.00     0.116 A 
ATOM      5  C   UNL d   1      -0.410  -1.673   3.487  0.00  0.00     0.116 C 
ATOM      6  C   UNL d   1       0.307  -3.470   2.051  0.00  0.00    -0.008 C 
ATOM      7  C   UNL d   1       0.177  -5.372   3.522  0.00  0.00    -0.008 A 
ATOM      8  C   UNL d   1       0.492  -1.198   1.300  0.00  0.00     0.083 C 
ATOM      9  C   UNL d   1       0.030  -6.704   5.533  0.00  0.00     0.078 A 
ATOM     10  C   UNL d   1      -0.254  -5.560   6.270  0.00  0.00     0.061 A 
ATOM     11  C   UNL d   1      -0.066  -0.747   2.497  0.00  0.00     0.062 C 
ATOM     12  C   UNL d   1       0.546  -5.780   1.017  0.00  0.00     0.136 C 
ATOM     13  C   UNL d   1       0.278  -6.610   4.157  0.00  0.00     0.038 A 
ATOM     14  C   UNL d   1       0.636  -2.563   1.050  0.00  0.00     0.038 C 
ATOM     15  C   UNL d   1       0.615  -5.306  -0.328  0.00  0.00     0.111 C 
ATOM     16  C   UNL d   1       0.598  -7.199   1.111  0.00  0.00     0.111 C 
ATOM     17  N   UNL d   1       0.657  -4.939  -1.427  0.00  0.00    -0.191 NA
ATOM     18  N   UNL d   1       0.647  -8.358   1.161  0.00  0.00    -0.191 NA
ENDROOT
BRANCH   5  19
ATOM     19  N   UNL d   1      -1.193  -1.151   4.588  0.00  0.00    -0.115 N 
ATOM     20  O   UNL d   1      -2.286  -1.694   4.787  0.00  0.00    -0.532 OA
ATOM     21  O   UNL d   1      -0.739  -0.181   5.204  0.00  0.00    -0.532 OA
ENDBRANCH   5  19
BRANCH   8  22
ATOM     22  S   UNL d   1       1.271  -0.032   0.195  0.00  0.00     0.260 S 
ATOM     23  O   UNL d   1       1.831  -0.793  -0.888  0.00  0.00    -0.200 OA
ATOM     24  O   UNL d   1       2.131   0.736   1.069  0.00  0.00    -0.200 OA
BRANCH  22  25
ATOM     25  N   UNL d   1      -0.039   0.915  -0.357  0.00  0.00    -0.307 N 
BRANCH  25  26
ATOM     26  C   UNL d   1      -0.413   2.126   0.428  0.00  0.00     0.135 C 
BRANCH  26  27
ATOM     27  C   UNL d   1       0.663   3.202   0.356  0.00  0.00     0.021 C 
BRANCH  27  28
ATOM     28  C   UNL d   1       0.320   4.402   1.218  0.00  0.00     0.002 C 
BRANCH  28  29
ATOM     29  C   UNL d   1       1.505   5.357   1.219  0.00  0.00     0.000 C 
BRANCH  29  30
ATOM     30  C   UNL d   1       1.197   6.587   2.051  0.00  0.00     0.000 C 
BRANCH  30  31
ATOM     31  C   UNL d   1       2.378   7.544   2.022  0.00  0.00     0.000 C 
BRANCH  31  32
ATOM     32  C   UNL d   1       2.062   8.786   2.840  0.00  0.00     0.000 C 
BRANCH  32  33
ATOM     33  C   UNL d   1       3.235   9.755   2.812  0.00  0.00    -0.000 C 
BRANCH  33  34
ATOM     34  C   UNL d   1       2.921  11.002   3.628  0.00  0.00    -0.005 C 
ATOM     35  C   UNL d   1       4.089  11.970   3.603  0.00  0.00     0.005 C 
ENDBRANCH  33  34
ENDBRANCH  32  33
ENDBRANCH  31  32
ENDBRANCH  30  31
ENDBRANCH  29  30
ENDBRANCH  28  29
ENDBRANCH  27  28
ENDBRANCH  26  27
ENDBRANCH  25  26
BRANCH  25  36
ATOM     36  C   UNL d   1      -0.203   1.115  -1.826  0.00  0.00     0.135 C 
BRANCH  36  37
ATOM     37  C   UNL d   1      -0.524  -0.161  -2.593  0.00  0.00     0.021 C 
BRANCH  37  38
ATOM     38  C   UNL d   1      -1.784  -0.851  -2.089  0.00  0.00     0.002 C 
BRANCH  38  39
ATOM     39  C   UNL d   1      -1.992  -2.162  -2.836  0.00  0.00     0.000 C 
BRANCH  39  40
ATOM     40  C   UNL d   1      -3.255  -2.854  -2.350  0.00  0.00     0.000 C 
BRANCH  40  41
ATOM     41  C   UNL d   1      -3.462  -4.163  -3.096  0.00  0.00     0.000 C 
BRANCH  41  42
ATOM     42  C   UNL d   1      -4.734  -4.851  -2.617  0.00  0.00     0.000 C 
BRANCH  42  43
ATOM     43  C   UNL d   1      -4.944  -6.160  -3.366  0.00  0.00    -0.000 C 
BRANCH  43  44
ATOM     44  C   UNL d   1      -6.214  -6.858  -2.895  0.00  0.00    -0.005 C 
ATOM     45  C   UNL d   1      -6.421  -8.164  -3.640  0.00  0.00     0.005 C 
ENDBRANCH  43  44
ENDBRANCH  42  43
ENDBRANCH  41  42
ENDBRANCH  40  41
ENDBRANCH  39  40
ENDBRANCH  38  39
ENDBRANCH  37  38
ENDBRANCH  36  37
ENDBRANCH  25  36
ENDBRANCH  22  25
ENDBRANCH   8  22
BRANCH   9  46
ATOM     46  S   UNL d   1      -0.035  -8.309   6.315  0.00  0.00     0.243 S 
ATOM     47  O   UNL d   1      -1.312  -8.368   7.002  0.00  0.00    -0.206 OA
ATOM     48  O   UNL d   1       0.287  -9.261   5.279  0.00  0.00    -0.206 OA
BRANCH  46  49
ATOM     49  N   UNL d   1       1.238  -8.250   7.510  0.00  0.00    -0.206 NA
BRANCH  49  50
ATOM     50  C   UNL d   1       0.696  -7.777   8.846  0.00  0.00     0.107 C 
BRANCH  50  51
ATOM     51  C   UNL d   1       1.734  -7.585   9.944  0.00  0.00     0.015 C 
BRANCH  51  52
ATOM     52  C   UNL d   1       2.822  -6.591   9.567  0.00  0.00     0.001 C 
BRANCH  52  53
ATOM     53  C   UNL d   1       3.827  -6.490  10.707  0.00  0.00     0.000 C 
BRANCH  53  54
ATOM     54  C   UNL d   1       4.928  -5.500  10.366  0.00  0.00     0.000 C 
BRANCH  54  55
ATOM     55  C   UNL d   1       5.926  -5.415  11.512  0.00  0.00     0.000 C 
BRANCH  55  56
ATOM     56  C   UNL d   1       7.029  -4.423  11.177  0.00  0.00     0.000 C 
BRANCH  56  57
ATOM     57  C   UNL d   1       8.028  -4.332  12.322  0.00  0.00    -0.000 C 
BRANCH  57  58
ATOM     58  C   UNL d   1       9.135  -3.338  11.995  0.00  0.00    -0.005 C 
ATOM     59  C   UNL d   1      10.132  -3.246  13.135  0.00  0.00     0.005 C 
ENDBRANCH  57  58
ENDBRANCH  56  57
ENDBRANCH  55  56
ENDBRANCH  54  55
ENDBRANCH  53  54
ENDBRANCH  52  53
ENDBRANCH  51  52
ENDBRANCH  50  51
ENDBRANCH  49  50
BRANCH  49  60
ATOM     60  C   UNL d   1       1.994  -9.535   7.688  0.00  0.00     0.107 C 
BRANCH  60  61
ATOM     61  C   UNL d   1       2.849  -9.942   6.499  0.00  0.00     0.015 C 
BRANCH  61  62
ATOM     62  C   UNL d   1       3.576 -11.246   6.813  0.00  0.00     0.001 C 
BRANCH  62  63
ATOM     63  C   UNL d   1       4.284 -11.753   5.566  0.00  0.00     0.000 C 
BRANCH  63  64
ATOM     64  C   UNL d   1       4.990 -13.066   5.854  0.00  0.00     0.000 C 
BRANCH  64  65
ATOM     65  C   UNL d   1       5.705 -13.562   4.606  0.00  0.00     0.000 C 
BRANCH  65  66
ATOM     66  C   UNL d   1       6.424 -14.871   4.895  0.00  0.00     0.000 C 
BRANCH  66  67
ATOM     67  C   UNL d   1       7.147 -15.370   3.651  0.00  0.00    -0.000 C 
BRANCH  67  68
ATOM     68  C   UNL d   1       7.874 -16.678   3.936  0.00  0.00    -0.005 C 
ATOM     69  C   UNL d   1       8.595 -17.177   2.698  0.00  0.00     0.005 C 
ENDBRANCH  67  68
ENDBRANCH  66  67
ENDBRANCH  65  66
ENDBRANCH  64  65
ENDBRANCH  63  64
ENDBRANCH  62  63
ENDBRANCH  61  62
ENDBRANCH  60  61
ENDBRANCH  49  60
ENDBRANCH  46  49
ENDBRANCH   9  46
BRANCH   4  70
ATOM     70  N   UNL d   1      -0.216  -3.184   6.543  0.00  0.00    -0.115 N 
ATOM     71  O   UNL d   1       0.814  -2.500   6.505  0.00  0.00    -0.532 OA
ATOM     72  O   UNL d   1      -1.166  -3.034   7.318  0.00  0.00    -0.532 OA
ENDBRANCH   4  70
TORSDOF 42
