REMARK  9 active torsions:
REMARK  status: ('A' for Active; 'I' for Inactive)
REMARK    1  A    between atoms: N_5  and  C_1 
REMARK    2  A    between atoms: N_4  and  C_2 
REMARK    3  A    between atoms: N_19  and  C_3 
REMARK    4  A    between atoms: C_6  and  C_7 
REMARK    5  A    between atoms: C_8  and  C_12 
REMARK       I    between atoms: C_11  and  N_27 
REMARK    6  A    between atoms: C_13  and  C_11 
REMARK    7  A    between atoms: C_31  and  N_19 
REMARK    8  A    between atoms: N_27  and  C_32 
REMARK    9  A    between atoms: C_32  and  C_31 
ROOT
ATOM      1  N   UNL d   1       1.223  -2.473  -0.321  0.00  0.00    -0.287 NA
ATOM      2  H   UNL d   1       0.567  -3.022   0.265  0.00  0.00     0.127 HD
ENDROOT
BRANCH   1   3
ATOM      3  C   UNL d   1       0.806  -1.139  -0.250  0.00  0.00     0.075 A 
ATOM      4  C   UNL d   1      -0.384  -0.790  -0.935  0.00  0.00     0.127 A 
ATOM      5  C   UNL d   1      -0.937   0.504  -0.957  0.00  0.00     0.054 A 
ATOM      6  C   UNL d   1      -0.328   1.530  -0.230  0.00  0.00     0.052 A 
ATOM      7  C   UNL d   1       0.804   1.216   0.526  0.00  0.00     0.054 A 
ATOM      8  C   UNL d   1       1.343  -0.093   0.523  0.00  0.00     0.127 A 
BRANCH   4   9
ATOM      9  N   UNL d   1      -1.121  -1.818  -1.668  0.00  0.00    -0.114 N 
ATOM     10  O   UNL d   1      -1.646  -2.722  -1.004  0.00  0.00    -0.532 OA
ATOM     11  O   UNL d   1      -1.231  -1.657  -2.890  0.00  0.00    -0.532 OA
ENDBRANCH   4   9
BRANCH   6  12
ATOM     12  C   UNL d   1      -0.885   2.933  -0.249  0.00  0.00     0.417 C 
ATOM     13  F   UNL d   1      -0.204   3.790   0.558  0.00  0.00    -0.166 F 
ATOM     14  F   UNL d   1      -0.850   3.478  -1.494  0.00  0.00    -0.166 F 
ATOM     15  F   UNL d   1      -2.182   2.981   0.153  0.00  0.00    -0.166 F 
ENDBRANCH   6  12
BRANCH   8  16
ATOM     16  N   UNL d   1       2.459  -0.259   1.433  0.00  0.00    -0.114 N 
ATOM     17  O   UNL d   1       3.588  -0.372   0.929  0.00  0.00    -0.532 OA
ATOM     18  O   UNL d   1       2.219  -0.158   2.643  0.00  0.00    -0.532 OA
ENDBRANCH   8  16
ENDBRANCH   1   3
BRANCH   1  19
ATOM     19  C   UNL d   1       2.570  -2.946   0.009  0.00  0.00     0.112 C 
BRANCH  19  20
ATOM     20  C   UNL d   1       2.648  -4.477  -0.126  0.00  0.00     0.137 C 
BRANCH  20  21
ATOM     21  N   UNL d   1       1.880  -5.284   0.826  0.00  0.00    -0.356 N 
ATOM     22  C   UNL d   1       0.975  -4.824   1.756  0.00  0.00     0.251 C 
ATOM     23  O   UNL d   1       0.685  -3.650   1.942  0.00  0.00    -0.268 OA
ATOM     24  H   UNL d   1       2.095  -6.271   0.825  0.00  0.00     0.162 HD
BRANCH  22  25
ATOM     25  C   UNL d   1       0.330  -5.848   2.604  0.00  0.00     0.032 A 
ATOM     26  C   UNL d   1       0.036  -5.509   3.931  0.00  0.00     0.033 A 
ATOM     27  C   UNL d   1      -0.520  -6.460   4.795  0.00  0.00     0.048 A 
ATOM     28  C   UNL d   1      -0.822  -7.735   4.291  0.00  0.00     0.016 A 
ATOM     29  C   UNL d   1      -0.572  -8.056   2.956  0.00  0.00     0.002 A 
ATOM     30  C   UNL d   1       0.007  -7.112   2.107  0.00  0.00     0.017 A 
BRANCH  27  31
ATOM     31  C   UNL d   1      -0.751  -6.139   6.250  0.00  0.00     0.417 C 
ATOM     32  F   UNL d   1      -0.434  -4.858   6.586  0.00  0.00    -0.166 F 
ATOM     33  F   UNL d   1      -2.046  -6.319   6.630  0.00  0.00    -0.166 F 
ATOM     34  F   UNL d   1      -0.006  -6.933   7.069  0.00  0.00    -0.166 F 
ENDBRANCH  27  31
ENDBRANCH  22  25
ENDBRANCH  20  21
ENDBRANCH  19  20
ENDBRANCH   1  19
TORSDOF 9
