REMARK  2 active torsions:
REMARK  status: ('A' for Active; 'I' for Inactive)
REMARK    1  A    between atoms: C_4  and  N_1 
REMARK    2  A    between atoms: C_16  and  C_7 
ROOT
ATOM      1  N   UNL d   1       0.649   1.232  -0.396  0.00  0.00    -0.252 N 
ATOM      2  C   UNL d   1       1.402   0.099  -0.089  0.00  0.00     0.232 C 
ATOM      3  C   UNL d   1      -0.651   1.260   0.098  0.00  0.00     0.232 C 
ATOM      4  C   UNL d   1      -1.453   0.012  -0.193  0.00  0.00     0.113 C 
ATOM      5  C   UNL d   1       0.687  -1.230  -0.265  0.00  0.00     0.113 C 
ATOM      6  C   UNL d   1      -0.741  -1.256   0.287  0.00  0.00    -0.028 C 
ATOM      7  O   UNL d   1       2.573   0.092   0.292  0.00  0.00    -0.273 OA
ATOM      8  O   UNL d   1      -1.169   2.174   0.737  0.00  0.00    -0.273 OA
ATOM      9  C   UNL d   1      -0.727  -1.295   1.828  0.00  0.00     0.016 C 
ENDROOT
BRANCH   1  10
ATOM     10  C   UNL d   1       1.299   2.459  -0.815  0.00  0.00     0.045 A 
ATOM     11  C   UNL d   1       2.643   2.479  -1.237  0.00  0.00     0.032 A 
ATOM     12  C   UNL d   1       3.260   3.654  -1.691  0.00  0.00     0.026 A 
ATOM     13  C   UNL d   1       2.538   4.837  -1.755  0.00  0.00     0.034 A 
ATOM     14  C   UNL d   1       1.200   4.847  -1.392  0.00  0.00     0.026 A 
ATOM     15 CL   UNL d   1       3.293   6.280  -2.304  0.00  0.00    -0.084 Cl
ATOM     16  C   UNL d   1       0.587   3.668  -0.941  0.00  0.00     0.032 A 
ENDBRANCH   1  10
BRANCH   6  17
ATOM     17  C   UNL d   1      -1.522  -2.476  -0.277  0.00  0.00     0.005 C 
ATOM     18  C   UNL d   1      -0.934  -3.845   0.044  0.00  0.00     0.006 C 
ENDBRANCH   6  17
TORSDOF 2
