REMARK  8 active torsions:
REMARK  status: ('A' for Active; 'I' for Inactive)
REMARK       I    between atoms: N_4  and  C_1 
REMARK    1  A    between atoms: O_5  and  C_1 
REMARK       I    between atoms: C_2  and  N_3 
REMARK    2  A    between atoms: O_6  and  C_2 
REMARK    3  A    between atoms: N_3  and  C_9 
REMARK    4  A    between atoms: C_10  and  N_4 
REMARK    5  A    between atoms: C_11  and  O_5 
REMARK    6  A    between atoms: C_12  and  O_6 
REMARK    7  A    between atoms: C_17  and  C_13 
REMARK    8  A    between atoms: C_14  and  C_17 
ROOT
ATOM      1  C   UNL d   1       3.276  -3.635  -4.972  0.00  0.00     0.077 C 
ENDROOT
BRANCH   1   2
ATOM      2  C   UNL d   1       4.609  -4.114  -4.446  0.00  0.00    -0.054 A 
ATOM      3  C   UNL d   1       4.753  -5.325  -3.757  0.00  0.00     0.010 A 
ATOM      4  C   UNL d   1       5.991  -5.690  -3.200  0.00  0.00     0.030 A 
ATOM      5  C   UNL d   1       7.104  -4.847  -3.312  0.00  0.00     0.036 A 
ATOM      6  C   UNL d   1       6.963  -3.681  -4.064  0.00  0.00     0.030 A 
ATOM      7  C   UNL d   1       5.734  -3.308  -4.609  0.00  0.00     0.010 A 
BRANCH   5   8
ATOM      8  N   UNL d   1       8.283  -5.217  -2.623  0.00  0.00    -0.302 N 
ATOM      9  C   UNL d   1       9.439  -4.505  -2.377  0.00  0.00     0.370 C 
ATOM     10  O   UNL d   1      10.311  -4.948  -1.637  0.00  0.00    -0.238 OA
ATOM     11  H   UNL d   1       8.261  -6.087  -2.105  0.00  0.00     0.171 HD
BRANCH   9  12
ATOM     12  O   UNL d   1       9.493  -3.267  -3.010  0.00  0.00    -0.261 OA
BRANCH  12  13
ATOM     13  C   UNL d   1      10.399  -2.186  -2.887  0.00  0.00     0.081 A 
ATOM     14  C   UNL d   1      11.550  -2.212  -2.113  0.00  0.00     0.039 A 
ATOM     15  C   UNL d   1      12.325  -1.051  -2.020  0.00  0.00     0.022 A 
ATOM     16  C   UNL d   1      11.939   0.108  -2.701  0.00  0.00     0.011 A 
ATOM     17  C   UNL d   1      10.794   0.119  -3.493  0.00  0.00     0.022 A 
ATOM     18 BR   UNL d   1      12.968   1.685  -2.535  0.00  0.00    -0.051 Br
ATOM     19  C   UNL d   1      10.022  -1.035  -3.588  0.00  0.00     0.039 A 
ENDBRANCH  12  13
ENDBRANCH   9  12
ENDBRANCH   5   8
ENDBRANCH   1   2
BRANCH   1  20
ATOM     20  C   UNL d   1       2.447  -2.919  -3.929  0.00  0.00    -0.054 A 
ATOM     21  C   UNL d   1       2.685  -1.579  -3.581  0.00  0.00     0.010 A 
ATOM     22  C   UNL d   1       1.947  -0.961  -2.560  0.00  0.00     0.030 A 
ATOM     23  C   UNL d   1       0.985  -1.686  -1.851  0.00  0.00     0.036 A 
ATOM     24  C   UNL d   1       0.715  -3.001  -2.237  0.00  0.00     0.030 A 
ATOM     25  C   UNL d   1       1.438  -3.613  -3.260  0.00  0.00     0.010 A 
BRANCH  23  26
ATOM     26  N   UNL d   1       0.308  -1.066  -0.781  0.00  0.00    -0.302 N 
ATOM     27  C   UNL d   1      -0.382  -1.726   0.208  0.00  0.00     0.370 C 
ATOM     28  O   UNL d   1      -0.366  -2.936   0.413  0.00  0.00    -0.238 OA
ATOM     29  H   UNL d   1       0.389  -0.066  -0.666  0.00  0.00     0.171 HD
BRANCH  27  30
ATOM     30  O   UNL d   1      -1.103  -0.814   0.980  0.00  0.00    -0.261 OA
BRANCH  30  31
ATOM     31  C   UNL d   1      -2.078  -1.268   1.900  0.00  0.00     0.081 A 
ATOM     32  C   UNL d   1      -2.817  -2.441   1.722  0.00  0.00     0.039 A 
ATOM     33  C   UNL d   1      -3.822  -2.777   2.631  0.00  0.00     0.022 A 
ATOM     34  C   UNL d   1      -4.101  -1.925   3.697  0.00  0.00     0.011 A 
ATOM     35  C   UNL d   1      -3.372  -0.748   3.873  0.00  0.00     0.022 A 
ATOM     36 BR   UNL d   1      -5.500  -2.355   4.894  0.00  0.00    -0.051 Br
ATOM     37  C   UNL d   1      -2.356  -0.418   2.971  0.00  0.00     0.039 A 
ENDBRANCH  30  31
ENDBRANCH  27  30
ENDBRANCH  23  26
ENDBRANCH   1  20
TORSDOF 8
