REMARK  1 active torsions:
REMARK  status: ('A' for Active; 'I' for Inactive)
REMARK    1  A    between atoms: C_2  and  N_1 
ROOT
ATOM      1  N   UNL d   1       0.609   1.178  -0.530  0.00  0.00    -0.246 N 
ATOM      2  C   UNL d   1       1.393   0.019  -0.433  0.00  0.00     0.255 C 
ATOM      3  C   UNL d   1      -0.726   1.242  -0.108  0.00  0.00     0.255 C 
ATOM      4  O   UNL d   1      -0.523  -1.091   0.663  0.00  0.00    -0.373 OA
ATOM      5  O   UNL d   1       2.621  -0.007  -0.550  0.00  0.00    -0.270 OA
ATOM      6  O   UNL d   1      -1.395   2.270  -0.006  0.00  0.00    -0.270 OA
ATOM      7  C   UNL d   1      -1.382  -0.120   0.098  0.00  0.00     0.271 C 
ATOM      8  C   UNL d   1       0.622  -1.265  -0.148  0.00  0.00     0.271 C 
ENDROOT
BRANCH   1   9
ATOM      9  C   UNL d   1       1.207   2.341  -1.109  0.00  0.00     0.084 A 
ATOM     10  C   UNL d   1       1.856   2.228  -2.352  0.00  0.00     0.146 A 
ATOM     11  C   UNL d   1       2.368   3.338  -3.011  0.00  0.00     0.086 A 
ATOM     12  F   UNL d   1       1.890   1.046  -2.987  0.00  0.00    -0.204 F 
ATOM     13  C   UNL d   1       2.242   4.584  -2.417  0.00  0.00     0.119 A 
ATOM     14  C   UNL d   1       1.615   4.731  -1.182  0.00  0.00     0.045 A 
ATOM     15  F   UNL d   1       2.711   5.665  -3.051  0.00  0.00    -0.206 F 
ATOM     16  C   UNL d   1       1.087   3.612  -0.531  0.00  0.00     0.036 A 
ENDBRANCH   1   9
TORSDOF 1
