REMARK  11 active torsions:
REMARK  status: ('A' for Active; 'I' for Inactive)
REMARK    1  A    between atoms: C_8  and  S_1 
REMARK    2  A    between atoms: N_24  and  S_1 
REMARK    3  A    between atoms: S_2  and  N_23 
REMARK    4  A    between atoms: C_7  and  S_2 
REMARK    5  A    between atoms: C_3  and  C_12 
REMARK    6  A    between atoms: C_4  and  C_11 
REMARK    7  A    between atoms: C_5  and  C_9 
REMARK    8  A    between atoms: C_6  and  C_10 
REMARK    9  A    between atoms: N_23  and  C_38 
REMARK   10  A    between atoms: C_37  and  N_24 
REMARK   11  A    between atoms: C_38  and  C_37 
ROOT
ATOM      1  C   UNL d   1       2.939  -1.527  -0.771  0.00  0.00     0.147 C 
ENDROOT
BRANCH   1   2
ATOM      2  N   UNL d   1       2.416  -0.864   0.436  0.00  0.00    -0.314 N 
ATOM      3  H   UNL d   1       2.801  -1.150   1.337  0.00  0.00     0.172 HD
BRANCH   2   4
ATOM      4  S   UNL d   1       0.769  -0.514   0.522  0.00  0.00     0.258 S 
ATOM      5  O   UNL d   1       0.594   0.286   1.713  0.00  0.00    -0.201 OA
ATOM      6  O   UNL d   1       0.318  -0.075  -0.779  0.00  0.00    -0.201 OA
BRANCH   4   7
ATOM      7  C   UNL d   1       0.014  -2.102   0.838  0.00  0.00     0.081 A 
ATOM      8  C   UNL d   1      -0.627  -2.351   2.057  0.00  0.00     0.041 A 
ATOM      9  C   UNL d   1      -1.241  -3.594   2.290  0.00  0.00     0.050 A 
ATOM     10  C   UNL d   1      -1.161  -4.590   1.302  0.00  0.00     0.032 A 
ATOM     11  C   UNL d   1      -0.533  -4.340   0.076  0.00  0.00     0.050 A 
ATOM     12  C   UNL d   1       0.022  -3.075  -0.162  0.00  0.00     0.041 A 
BRANCH   9  13
ATOM     13  C   UNL d   1      -1.998  -3.880   3.566  0.00  0.00     0.417 C 
ATOM     14  F   UNL d   1      -2.056  -2.820   4.416  0.00  0.00    -0.166 F 
ATOM     15  F   UNL d   1      -3.288  -4.242   3.325  0.00  0.00    -0.166 F 
ATOM     16  F   UNL d   1      -1.447  -4.904   4.273  0.00  0.00    -0.166 F 
ENDBRANCH   9  13
BRANCH  11  17
ATOM     17  C   UNL d   1      -0.437  -5.422  -0.967  0.00  0.00     0.417 C 
ATOM     18  F   UNL d   1       0.025  -4.938  -2.149  0.00  0.00    -0.166 F 
ATOM     19  F   UNL d   1       0.422  -6.412  -0.608  0.00  0.00    -0.166 F 
ATOM     20  F   UNL d   1      -1.626  -6.019  -1.234  0.00  0.00    -0.166 F 
ENDBRANCH  11  17
ENDBRANCH   4   7
ENDBRANCH   2   4
ENDBRANCH   1   2
BRANCH   1  21
ATOM     21  C   UNL d   1       4.470  -1.475  -0.808  0.00  0.00     0.124 C 
BRANCH  21  22
ATOM     22  N   UNL d   1       5.026  -2.047  -2.056  0.00  0.00    -0.214 NA
ATOM     23  H   UNL d   1       5.982  -1.744  -2.261  0.00  0.00     0.140 HD
BRANCH  22  24
ATOM     24  S   UNL d   1       4.913  -3.717  -2.305  0.00  0.00     0.241 S 
ATOM     25  O   UNL d   1       6.187  -4.128  -2.845  0.00  0.00    -0.206 OA
ATOM     26  O   UNL d   1       4.335  -4.313  -1.121  0.00  0.00    -0.206 OA
BRANCH  24  27
ATOM     27  C   UNL d   1       3.730  -3.842  -3.629  0.00  0.00     0.076 A 
ATOM     28  C   UNL d   1       3.888  -3.036  -4.764  0.00  0.00     0.041 A 
ATOM     29  C   UNL d   1       2.992  -3.142  -5.834  0.00  0.00     0.050 A 
ATOM     30  C   UNL d   1       1.934  -4.062  -5.747  0.00  0.00     0.032 A 
ATOM     31  C   UNL d   1       1.781  -4.899  -4.627  0.00  0.00     0.050 A 
ATOM     32  C   UNL d   1       2.684  -4.772  -3.558  0.00  0.00     0.041 A 
BRANCH  29  33
ATOM     33  C   UNL d   1       3.153  -2.306  -7.083  0.00  0.00     0.417 C 
ATOM     34  F   UNL d   1       4.296  -1.568  -7.095  0.00  0.00    -0.166 F 
ATOM     35  F   UNL d   1       3.184  -3.066  -8.211  0.00  0.00    -0.166 F 
ATOM     36  F   UNL d   1       2.131  -1.425  -7.249  0.00  0.00    -0.166 F 
ENDBRANCH  29  33
BRANCH  31  37
ATOM     37  C   UNL d   1       0.656  -5.916  -4.620  0.00  0.00     0.417 C 
ATOM     38  F   UNL d   1       0.746  -6.824  -3.611  0.00  0.00    -0.166 F 
ATOM     39  F   UNL d   1      -0.570  -5.334  -4.510  0.00  0.00    -0.166 F 
ATOM     40  F   UNL d   1       0.615  -6.643  -5.771  0.00  0.00    -0.166 F 
ENDBRANCH  31  37
ENDBRANCH  24  27
ENDBRANCH  22  24
ENDBRANCH  21  22
ENDBRANCH   1  21
TORSDOF 11
