REMARK  3 active torsions:
REMARK  status: ('A' for Active; 'I' for Inactive)
REMARK    1  A    between atoms: C_3  and  N_1 
REMARK    2  A    between atoms: C_4  and  C_2 
REMARK       I    between atoms: N_8  and  C_4 
REMARK    3  A    between atoms: N_9  and  N_8 
ROOT
ATOM      1  C   UNL d   1       0.787  -0.194   2.313  0.00  0.00     0.066 A 
ATOM      2  C   UNL d   1       0.357  -0.590   1.042  0.00  0.00     0.118 A 
ATOM      3  C   UNL d   1       0.125  -0.763   3.419  0.00  0.00     0.020 A 
ATOM      4  C   UNL d   1      -0.707  -1.496   0.867  0.00  0.00     0.037 A 
ATOM      5  C   UNL d   1      -0.934  -1.664   3.257  0.00  0.00     0.001 A 
ATOM      6  C   UNL d   1      -1.352  -2.028   1.980  0.00  0.00     0.002 A 
ENDROOT
BRANCH   1   7
ATOM      7  C   UNL d   1       1.917   0.721   2.653  0.00  0.00     0.268 C 
ATOM      8  O   UNL d   1       2.510   0.565   3.723  0.00  0.00    -0.266 OA
ATOM      9  N   UNL d   1       2.228   1.771   1.802  0.00  0.00    -0.290 N 
ATOM     10  H   UNL d   1       1.750   1.938   0.913  0.00  0.00     0.183 HD
BRANCH   9  11
ATOM     11  N   UNL d   1       3.271   2.658   2.167  0.00  0.00    -0.247 NA
ATOM     12  H   UNL d   1       3.689   2.281   3.029  0.00  0.00     0.143 HD
ATOM     13  H   UNL d   1       2.844   3.541   2.460  0.00  0.00     0.143 HD
ENDBRANCH   9  11
ENDBRANCH   1   7
BRANCH   2  14
ATOM     14  N   UNL d   1       0.987  -0.115  -0.167  0.00  0.00    -0.115 N 
ATOM     15  O   UNL d   1       0.900   1.098  -0.402  0.00  0.00    -0.532 OA
ATOM     16  O   UNL d   1       1.514  -0.959  -0.901  0.00  0.00    -0.532 OA
ENDBRANCH   2  14
TORSDOF 3
