REMARK  6 active torsions:
REMARK  status: ('A' for Active; 'I' for Inactive)
REMARK    1  A    between atoms: C_2  and  S_1 
REMARK    2  A    between atoms: N_11  and  S_1 
REMARK    3  A    between atoms: N_8  and  C_15 
REMARK    4  A    between atoms: C_21  and  N_11 
REMARK    5  A    between atoms: C_15  and  C_20 
REMARK    6  A    between atoms: C_20  and  C_21 
ROOT
ATOM      1  S   UNL d   1       0.936  -0.140   0.016  0.00  0.00     0.242 S 
ATOM      2  O   UNL d   1       0.580   0.179   1.379  0.00  0.00    -0.206 OA
ATOM      3  O   UNL d   1       0.593   0.765  -1.066  0.00  0.00    -0.206 OA
ENDROOT
BRANCH   1   4
ATOM      4  C   UNL d   1       0.337  -1.788  -0.465  0.00  0.00     0.087 C 
ATOM      5  C   UNL d   1      -0.635  -2.453   0.339  0.00  0.00    -0.032 C 
ATOM      6  C   UNL d   1      -1.088  -3.749  -0.033  0.00  0.00    -0.048 C 
ATOM      7  C   UNL d   1      -1.241  -1.793   1.558  0.00  0.00     0.050 C 
ATOM      8  C   UNL d   1      -2.035  -4.541   0.849  0.00  0.00     0.049 C 
ATOM      9  C   UNL d   1      -0.710  -4.303  -1.283  0.00  0.00    -0.049 C 
ATOM     10  C   UNL d   1       0.228  -3.629  -2.104  0.00  0.00    -0.048 C 
ATOM     11  C   UNL d   1      -1.379  -5.586  -1.743  0.00  0.00     0.049 C 
ATOM     12  C   UNL d   1       0.763  -2.366  -1.699  0.00  0.00    -0.032 C 
ATOM     13  C   UNL d   1       0.613  -4.258  -3.430  0.00  0.00     0.049 C 
ATOM     14  C   UNL d   1       1.723  -1.683  -2.649  0.00  0.00     0.050 C 
ENDBRANCH   1   4
BRANCH   1  15
ATOM     15  N   UNL d   1       2.633  -0.256  -0.000  0.00  0.00    -0.215 NA
ATOM     16  H   UNL d   1       2.978   0.450  -0.651  0.00  0.00     0.139 HD
BRANCH  15  17
ATOM     17  C   UNL d   1       3.319  -0.310   1.310  0.00  0.00     0.106 C 
BRANCH  17  18
ATOM     18  C   UNL d   1       4.841  -0.191   1.141  0.00  0.00     0.045 C 
BRANCH  18  19
ATOM     19  C   UNL d   1       5.280   1.220   0.701  0.00  0.00     0.274 C 
BRANCH  19  20
ATOM     20  N   UNL d   1       6.704   1.310   0.325  0.00  0.00     0.092 N 
ATOM     21  C   UNL d   1       7.641   1.165   1.459  0.00  0.00     0.219 C 
ATOM     22  C   UNL d   1       9.030   0.754   0.945  0.00  0.00     0.043 C 
ATOM     23  C   UNL d   1       7.723   2.417   2.353  0.00  0.00     0.035 C 
ATOM     24  C   UNL d   1       7.957   3.702   1.563  0.00  0.00     0.004 C 
ATOM     25  C   UNL d   1       6.978   3.816   0.402  0.00  0.00     0.030 C 
ATOM     26  C   UNL d   1       6.969   2.542  -0.445  0.00  0.00     0.273 C 
ENDBRANCH  19  20
ENDBRANCH  18  19
ENDBRANCH  17  18
ENDBRANCH  15  17
ENDBRANCH   1  15
TORSDOF 6
