REMARK  3 active torsions:
REMARK  status: ('A' for Active; 'I' for Inactive)
REMARK    1  A    between atoms: C_3  and  N_1 
REMARK    2  A    between atoms: N_16  and  C_2 
REMARK    3  A    between atoms: C_9  and  C_10 
ROOT
ATOM      1  N   UNL d   1       0.971  -0.573   0.035  0.00  0.00    -0.236 N 
ATOM      2  C   UNL d   1       0.888   0.779   0.425  0.00  0.00     0.143 A 
ATOM      3  N   UNL d   1      -0.237  -1.019  -0.412  0.00  0.00    -0.302 N 
ATOM      4  HN  UNL d   1      -0.462  -1.950  -0.763  1.00  0.00     0.186 HD
ATOM      5  C   UNL d   1      -0.432   1.143   0.245  0.00  0.00     0.106 A 
ATOM      6  C   UNL d   1      -1.062   0.019  -0.292  0.00  0.00     0.134 A 
ATOM      7  C   UNL d   1      -1.020   2.409   0.518  0.00  0.00     0.104 C 
ATOM      8  N   UNL d   1      -1.501   3.440   0.759  0.00  0.00    -0.191 NA
ENDROOT
BRANCH   2   9
ATOM      9  N   UNL d   1       1.940   1.550   0.819  0.00  0.00    -0.383 N 
ATOM     10  H   UNL d   1       2.796   1.126   1.174  0.00  0.00     0.157 HD
ATOM     11  H   UNL d   1       1.762   2.440   1.288  0.00  0.00     0.157 HD
ENDBRANCH   2   9
BRANCH   1  12
ATOM     12  C   UNL d   1       2.092  -1.456   0.044  0.00  0.00     0.102 A 
ATOM     13  C   UNL d   1       3.010  -1.472   1.111  0.00  0.00     0.065 A 
ATOM     14  C   UNL d   1       4.157  -2.280   1.063  0.00  0.00     0.042 A 
ATOM     15 CL   UNL d   1       2.758  -0.680   2.633  0.00  0.00    -0.082 Cl
ATOM     16  C   UNL d   1       4.390  -3.142  -0.011  0.00  0.00     0.051 A 
ATOM     17  C   UNL d   1       3.441  -3.190  -1.036  0.00  0.00     0.042 A 
ATOM     18  C   UNL d   1       2.308  -2.356  -1.023  0.00  0.00     0.065 A 
ATOM     19 CL   UNL d   1       1.324  -2.466  -2.447  0.00  0.00    -0.082 Cl
BRANCH  16  20
ATOM     20  C   UNL d   1       5.616  -4.020  -0.062  0.00  0.00     0.417 C 
ATOM     21  F   UNL d   1       6.470  -3.812   0.978  0.00  0.00    -0.166 F 
ATOM     22  F   UNL d   1       5.308  -5.343  -0.038  0.00  0.00    -0.166 F 
ATOM     23  F   UNL d   1       6.348  -3.820  -1.192  0.00  0.00    -0.166 F 
ENDBRANCH  16  20
ENDBRANCH   1  12
TORSDOF 3
