REMARK  7 active torsions:
REMARK  status: ('A' for Active; 'I' for Inactive)
REMARK    1  A    between atoms: O_3  and  C_1 
REMARK    2  A    between atoms: C_2  and  C_9 
REMARK    3  A    between atoms: O_12  and  C_2 
REMARK    4  A    between atoms: C_11  and  O_3 
REMARK    5  A    between atoms: N_4  and  C_10 
REMARK    6  A    between atoms: C_9  and  N_4 
REMARK    7  A    between atoms: C_17  and  O_12 
ROOT
ATOM      1  C   UNL d   1       1.699  -1.257  -4.858  0.00  0.00     0.008 A 
ATOM      2  C   UNL d   1       1.096  -0.949  -2.122  0.00  0.00     0.078 A 
ATOM      3  C   UNL d   1       2.056  -0.096  -4.173  0.00  0.00     0.026 A 
ATOM      4  C   UNL d   1       0.948  -2.220  -4.178  0.00  0.00     0.026 A 
ATOM      5  C   UNL d   1       0.658  -2.075  -2.821  0.00  0.00     0.039 A 
ATOM      6  C   UNL d   1       1.746   0.065  -2.814  0.00  0.00     0.039 A 
ENDROOT
BRANCH   1   7
ATOM      7  N   UNL d   1       1.987  -1.492  -6.197  0.00  0.00    -0.284 NA
ATOM      8  H   UNL d   1       1.164  -1.398  -6.797  0.00  0.00     0.128 HD
BRANCH   7   9
ATOM      9  C   UNL d   1       3.181  -0.891  -6.804  0.00  0.00     0.203 C 
BRANCH   9  10
ATOM     10  C   UNL d   1       3.375  -1.448  -8.210  0.00  0.00     0.272 C 
ATOM     11  O   UNL d   1       2.461  -1.707  -8.985  0.00  0.00    -0.264 OA
BRANCH  10  12
ATOM     12  O   UNL d   1       4.702  -1.635  -8.466  0.00  0.00    -0.321 OA
BRANCH  12  13
ATOM     13  C   UNL d   1       4.996  -2.420  -9.629  0.00  0.00     0.174 C 
ATOM     14  C   UNL d   1       4.985  -3.889  -9.244  0.00  0.00     0.034 C 
ENDBRANCH  12  13
ENDBRANCH  10  12
ENDBRANCH   9  10
ENDBRANCH   7   9
ENDBRANCH   1   7
BRANCH   2  15
ATOM     15  O   UNL d   1       0.791  -0.943  -0.796  0.00  0.00    -0.255 OA
BRANCH  15  16
ATOM     16  C   UNL d   1       1.685  -0.295   0.100  0.00  0.00     0.530 C 
ATOM     17  F   UNL d   1       2.893  -0.015  -0.433  0.00  0.00    -0.144 F 
ATOM     18  F   UNL d   1       1.885  -1.107   1.163  0.00  0.00    -0.144 F 
ATOM     19  F   UNL d   1       1.125   0.850   0.543  0.00  0.00    -0.144 F 
ENDBRANCH  15  16
ENDBRANCH   2  15
TORSDOF 7
