REMARK  4 active torsions:
REMARK  status: ('A' for Active; 'I' for Inactive)
REMARK    1  A    between atoms: C_6  and  C_3 
REMARK    2  A    between atoms: C_7  and  C_6 
REMARK    3  A    between atoms: O_16  and  C_9 
REMARK    4  A    between atoms: C_17  and  O_16 
ROOT
ATOM      1  C   UNL d   1      -3.812   0.365   0.126  0.00  0.00    -0.000 A 
ATOM      2  C   UNL d   1      -4.689   0.514  -0.964  0.00  0.00     0.079 A 
ATOM      3  C   UNL d   1      -4.136  -0.561   1.138  0.00  0.00     0.033 A 
ATOM      4  C   UNL d   1      -5.870  -0.243  -1.003  0.00  0.00     0.039 A 
ATOM      5  C   UNL d   1      -5.304  -1.315   1.071  0.00  0.00     0.011 A 
ATOM      6  C   UNL d   1      -6.176  -1.163   0.001  0.00  0.00     0.022 A 
ATOM      7 BR   UNL d   1      -5.702  -2.553   2.442  0.00  0.00    -0.051 Br
ENDROOT
BRANCH   1   8
ATOM      8  C   UNL d   1      -2.558   1.098   0.330  0.00  0.00     0.038 C 
BRANCH   8   9
ATOM      9  C   UNL d   1      -2.429   2.294   0.916  0.00  0.00     0.076 A 
ATOM     10  C   UNL d   1      -1.093   2.907   1.137  0.00  0.00     0.264 A 
ATOM     11  N   UNL d   1      -1.241   4.122   1.744  0.00  0.00    -0.307 N 
ATOM     12  O   UNL d   1      -0.024   2.406   0.831  0.00  0.00    -0.267 OA
ATOM     13  C   UNL d   1      -2.503   4.545   2.025  0.00  0.00     0.146 A 
ATOM     14  H   UNL d   1      -0.431   4.678   1.970  0.00  0.00     0.170 HD
ATOM     15  S   UNL d   1      -3.662   3.333   1.523  0.00  0.00    -0.055 SA
ATOM     16  S   UNL d   1      -2.842   6.002   2.735  0.00  0.00    -0.052 SA
ENDBRANCH   8   9
ENDBRANCH   1   8
BRANCH   2  17
ATOM     17  O   UNL d   1      -4.576   1.367  -2.030  0.00  0.00    -0.351 OA
BRANCH  17  18
ATOM     18  C   UNL d   1      -3.273   1.681  -2.511  0.00  0.00     0.171 C 
ATOM     19  C   UNL d   1      -3.377   1.967  -4.000  0.00  0.00     0.034 C 
ENDBRANCH  17  18
ENDBRANCH   2  17
TORSDOF 4
