REMARK  2 active torsions:
REMARK  status: ('A' for Active; 'I' for Inactive)
REMARK    1  A    between atoms: C_2  and  N_1 
REMARK    2  A    between atoms: C_8  and  C_3 
ROOT
ATOM      1  N   UNL d   1      -4.300  -3.985   2.836  0.00  0.00    -0.191 NA
ATOM      2  C   UNL d   1      -3.780  -3.142   2.229  0.00  0.00     0.099 C 
ATOM      3  C   UNL d   1      -1.782  -0.152  -0.010  0.00  0.00    -0.034 A 
ATOM      4  C   UNL d   1      -3.128  -2.110   1.478  0.00  0.00     0.044 A 
ATOM      5  C   UNL d   1      -2.743  -0.965  -0.624  0.00  0.00     0.013 A 
ATOM      6  C   UNL d   1      -1.517  -0.303   1.355  0.00  0.00     0.013 A 
ATOM      7  C   UNL d   1      -2.188  -1.279   2.096  0.00  0.00     0.023 A 
ATOM      8  C   UNL d   1      -3.413  -1.943   0.119  0.00  0.00     0.023 A 
ENDROOT
BRANCH   3   9
ATOM      9  C   UNL d   1      -1.028   0.822  -0.799  0.00  0.00     0.042 C 
ATOM     10  C   UNL d   1      -1.447   2.078  -1.033  0.00  0.00     0.077 C 
ATOM     11  C   UNL d   1      -2.692   2.744  -0.549  0.00  0.00     0.075 C 
BRANCH  10  12
ATOM     12  N   UNL d   1      -0.575   2.909  -1.863  0.00  0.00    -0.120 N 
ATOM     13  O   UNL d   1       0.639   2.672  -1.849  0.00  0.00    -0.532 OA
ATOM     14  O   UNL d   1      -1.114   3.801  -2.531  0.00  0.00    -0.532 OA
ENDBRANCH  10  12
ENDBRANCH   3   9
TORSDOF 2
