REMARK  3 active torsions:
REMARK  status: ('A' for Active; 'I' for Inactive)
REMARK    1  A    between atoms: N_8  and  C_3 
REMARK    2  A    between atoms: C_14  and  C_4 
REMARK       I    between atoms: C_9  and  N_10 
REMARK    3  A    between atoms: C_11  and  C_9 
ROOT
ATOM      1  N   UNL d   1       0.437  -2.649   0.248  0.00  0.00    -0.359 N 
ATOM      2  C   UNL d   1       1.255  -6.469   1.114  0.00  0.00     0.253 C 
ATOM      3  N   UNL d   1       0.230  -5.514   1.028  0.00  0.00    -0.346 N 
ATOM      4  C   UNL d   1       0.547  -3.718  -0.758  0.00  0.00     0.145 C 
ATOM      5  C   UNL d   1      -0.144  -5.029  -0.317  0.00  0.00     0.146 C 
ATOM      6  O   UNL d   1       1.806  -6.895   0.097  0.00  0.00    -0.267 OA
ATOM      7  C   UNL d   1       0.122  -3.482   2.521  0.00  0.00     0.040 C 
ATOM      8  C   UNL d   1       1.117  -2.909   1.518  0.00  0.00     0.126 C 
ATOM      9  C   UNL d   1      -0.472  -4.842   2.125  0.00  0.00     0.127 C 
ENDROOT
BRANCH   1  10
ATOM     10  C   UNL d   1       0.225  -1.339  -0.085  0.00  0.00     0.164 A 
ATOM     11  N   UNL d   1       0.529  -0.327   0.702  0.00  0.00    -0.321 N 
ATOM     12  C   UNL d   1       0.187   0.887   0.110  0.00  0.00     0.123 A 
ATOM     13  HN  UNL d   1       0.958  -0.420   1.623  1.00  0.00     0.169 HD
ATOM     14  N   UNL d   1      -0.402   0.852  -1.091  0.00  0.00    -0.309 N 
ATOM     15  S   UNL d   1      -0.526  -0.747  -1.530  0.00  0.00     0.024 SA
ATOM     16  HN  UNL d   1      -0.716   1.656  -1.636  1.00  0.00     0.176 HD
BRANCH  12  17
ATOM     17  C   UNL d   1       0.477   2.144   0.811  0.00  0.00     0.009 A 
ATOM     18  C   UNL d   1       1.228   2.141   1.998  0.00  0.00     0.015 A 
ATOM     19  C   UNL d   1       1.511   3.333   2.672  0.00  0.00     0.001 A 
ATOM     20  C   UNL d   1       1.044   4.545   2.168  0.00  0.00     0.000 A 
ATOM     21  C   UNL d   1       0.298   4.566   0.991  0.00  0.00     0.001 A 
ATOM     22  C   UNL d   1       0.017   3.374   0.316  0.00  0.00     0.015 A 
ENDBRANCH  12  17
ENDBRANCH   1  10
BRANCH   2  23
ATOM     23  C   UNL d   1       1.731  -7.039   2.419  0.00  0.00     0.032 A 
ATOM     24  C   UNL d   1       2.174  -8.374   2.437  0.00  0.00     0.020 A 
ATOM     25  C   UNL d   1       2.672  -8.951   3.612  0.00  0.00     0.043 A 
ATOM     26  C   UNL d   1       2.714  -8.201   4.783  0.00  0.00     0.116 A 
ATOM     27  C   UNL d   1       2.307  -6.880   4.785  0.00  0.00     0.043 A 
ATOM     28  F   UNL d   1       3.178  -8.750   5.912  0.00  0.00    -0.206 F 
ATOM     29  C   UNL d   1       1.854  -6.295   3.596  0.00  0.00     0.020 A 
ENDBRANCH   2  23
TORSDOF 3
