REMARK  3 active torsions:
REMARK  status: ('A' for Active; 'I' for Inactive)
REMARK    1  A    between atoms: C_9  and  C_4 
REMARK    2  A    between atoms: N_11  and  C_6 
REMARK    3  A    between atoms: O_13  and  C_12 
ROOT
ATOM      1  C   UNL d   1       0.167   0.351   0.202  0.00  0.00     0.167 A 
ATOM      2  N   UNL d   1       1.252  -0.289   0.752  0.00  0.00    -0.324 N 
ATOM      3  HN  UNL d   1       1.753  -0.062   1.610  1.00  0.00     0.169 HD
ATOM      4  C   UNL d   1       1.487  -1.270  -0.100  0.00  0.00     0.161 A 
ATOM      5  O   UNL d   1       0.609  -1.328  -1.155  0.00  0.00    -0.274 OA
ATOM      6  C   UNL d   1      -0.235  -0.278  -0.954  0.00  0.00     0.181 A 
ATOM      7  C   UNL d   1      -0.401   1.512   0.792  0.00  0.00     0.122 C 
ATOM      8  N   UNL d   1      -0.881   2.465   1.254  0.00  0.00    -0.190 NA
ENDROOT
BRANCH   6   9
ATOM      9  N   UNL d   1      -1.197  -0.099  -1.869  0.00  0.00    -0.377 N 
ATOM     10  H   UNL d   1      -1.381  -0.825  -2.555  0.00  0.00     0.158 HD
ATOM     11  H   UNL d   1      -1.964   0.552  -1.726  0.00  0.00     0.158 HD
ENDBRANCH   6   9
BRANCH   4  12
ATOM     12  C   UNL d   1       2.526  -2.292  -0.056  0.00  0.00     0.018 A 
ATOM     13  C   UNL d   1       3.474  -2.277   0.984  0.00  0.00     0.052 A 
ATOM     14  C   UNL d   1       4.425  -3.293   1.095  0.00  0.00     0.069 A 
ATOM     15  C   UNL d   1       4.447  -4.315   0.142  0.00  0.00     0.037 A 
ATOM     16  C   UNL d   1       3.537  -4.323  -0.914  0.00  0.00     0.004 A 
ATOM     17  C   UNL d   1       2.581  -3.315  -1.012  0.00  0.00     0.016 A 
BRANCH  14  18
ATOM     18  O   UNL d   1       5.361  -3.415   2.084  0.00  0.00    -0.356 OA
ATOM     19  C   UNL d   1       5.361  -2.417   3.098  0.00  0.00     0.210 C 
ENDBRANCH  14  18
ENDBRANCH   4  12
TORSDOF 3
