REMARK  5 active torsions:
REMARK  status: ('A' for Active; 'I' for Inactive)
REMARK    1  A    between atoms: C_2  and  C_1 
REMARK    2  A    between atoms: C_16  and  C_10 
REMARK    3  A    between atoms: C_12  and  O_14 
REMARK    4  A    between atoms: C_13  and  C_12 
REMARK    5  A    between atoms: O_14  and  C_16 
ROOT
ATOM      1  C   UNL d   1       3.552   0.187  -0.049  0.00  0.00     0.057 A 
ATOM      2  N   UNL d   1       4.191   1.020   0.856  0.00  0.00    -0.351 N 
ATOM      3  HN  UNL d   1       3.716   1.616   1.533  1.00  0.00     0.166 HD
ATOM      4  C   UNL d   1       4.398  -0.533  -0.868  0.00  0.00     0.082 A 
ATOM      5  C   UNL d   1       5.498   0.934   0.718  0.00  0.00     0.075 A 
ATOM      6  S   UNL d   1       6.029  -0.135  -0.524  0.00  0.00    -0.084 SA
ENDROOT
BRANCH   1   7
ATOM      7  C   UNL d   1       2.051   0.085  -0.091  0.00  0.00     0.039 A 
ATOM      8  S   UNL d   1       1.236  -1.304  -0.658  0.00  0.00    -0.087 SA
ATOM      9  C   UNL d   1      -0.308  -0.669  -0.269  0.00  0.00     0.016 A 
ATOM     10  C   UNL d   1      -1.554  -1.314  -0.406  0.00  0.00     0.019 A 
ATOM     11  C   UNL d   1      -0.208   0.638   0.210  0.00  0.00    -0.012 A 
ATOM     12  C   UNL d   1      -2.720  -0.615  -0.086  0.00  0.00     0.001 A 
ATOM     13  C   UNL d   1      -2.653   0.698   0.355  0.00  0.00     0.001 A 
ATOM     14  C   UNL d   1      -1.413   1.324   0.509  0.00  0.00     0.013 A 
ATOM     15  C   UNL d   1       1.173   1.075   0.323  0.00  0.00    -0.031 A 
ATOM     16  C   UNL d   1       1.530   2.451   0.797  0.00  0.00     0.050 C 
ENDBRANCH   1   7
BRANCH   5  17
ATOM     17  C   UNL d   1       6.515   1.630   1.573  0.00  0.00     0.243 C 
BRANCH  17  18
ATOM     18  O   UNL d   1       5.947   2.804   2.182  0.00  0.00    -0.314 OA
BRANCH  18  19
ATOM     19  C   UNL d   1       5.946   3.921   1.413  0.00  0.00     0.266 C 
ATOM     20  O   UNL d   1       6.308   3.948   0.239  0.00  0.00    -0.264 OA
BRANCH  19  21
ATOM     21  C   UNL d   1       5.533   5.174   2.198  0.00  0.00     0.037 C 
ATOM     22  C   UNL d   1       5.109   4.869   3.644  0.00  0.00     0.025 C 
ATOM     23  C   UNL d   1       6.746   6.118   2.222  0.00  0.00     0.025 C 
ATOM     24  C   UNL d   1       4.365   5.861   1.478  0.00  0.00     0.025 C 
ENDBRANCH  19  21
ENDBRANCH  18  19
ENDBRANCH  17  18
ENDBRANCH   5  17
TORSDOF 5
