REMARK  4 active torsions:
REMARK  status: ('A' for Active; 'I' for Inactive)
REMARK    1  A    between atoms: C_8  and  C_1 
REMARK    2  A    between atoms: O_11  and  C_2 
REMARK    3  A    between atoms: C_14  and  C_8 
REMARK    4  A    between atoms: O_15  and  C_12 
ROOT
ATOM      1  C   UNL d   1      -1.791  -0.895   0.083  0.00  0.00     0.048 A 
ATOM      2  C   UNL d   1      -0.535  -1.386   0.020  0.00  0.00     0.090 A 
ATOM      3  C   UNL d   1      -1.990   0.588   0.132  0.00  0.00     0.255 A 
ATOM      4  N   UNL d   1      -0.879   1.381   0.099  0.00  0.00    -0.322 N 
ATOM      5  C   UNL d   1       0.636  -0.491   0.013  0.00  0.00     0.025 A 
ATOM      6  C   UNL d   1       0.426   0.891   0.043  0.00  0.00     0.050 A 
ATOM      7  C   UNL d   1       1.493   1.796   0.024  0.00  0.00     0.067 A 
ATOM      8  C   UNL d   1       1.953  -0.959  -0.023  0.00  0.00     0.019 A 
ATOM      9  O   UNL d   1      -3.107   1.096   0.192  0.00  0.00    -0.268 OA
ATOM     10  C   UNL d   1       2.802   1.320  -0.011  0.00  0.00     0.070 A 
ATOM     11  C   UNL d   1       3.025  -0.058  -0.033  0.00  0.00     0.038 A 
ATOM     12  H   UNL d   1      -1.054   2.377   0.132  0.00  0.00     0.169 HD
ENDROOT
BRANCH   1  13
ATOM     13  C   UNL d   1      -3.058  -1.714   0.025  0.00  0.00     0.085 C 
BRANCH  13  14
ATOM     14  C   UNL d   1      -3.511  -2.244   1.370  0.00  0.00    -0.054 A 
ATOM     15  C   UNL d   1      -3.937  -1.367   2.379  0.00  0.00     0.007 A 
ATOM     16  C   UNL d   1      -4.360  -1.855   3.616  0.00  0.00     0.001 A 
ATOM     17  C   UNL d   1      -4.372  -3.226   3.858  0.00  0.00     0.000 A 
ATOM     18  C   UNL d   1      -3.969  -4.110   2.860  0.00  0.00     0.001 A 
ATOM     19  C   UNL d   1      -3.543  -3.624   1.621  0.00  0.00     0.007 A 
ENDBRANCH  13  14
ENDBRANCH   1  13
BRANCH   2  20
ATOM     20  O   UNL d   1      -0.236  -2.732  -0.043  0.00  0.00    -0.359 OA
ATOM     21  H   UNL d   1      -1.032  -3.247   0.162  0.00  0.00     0.217 HD
ENDBRANCH   2  20
BRANCH  10  22
ATOM     22  O   UNL d   1       3.934   2.088  -0.026  0.00  0.00    -0.356 OA
ATOM     23  C   UNL d   1       3.754   3.499   0.005  0.00  0.00     0.210 C 
ENDBRANCH  10  22
TORSDOF 4
