REMARK  3 active torsions:
REMARK  status: ('A' for Active; 'I' for Inactive)
REMARK    1  A    between atoms: S_7  and  C_1 
REMARK    2  A    between atoms: C_10  and  C_5 
REMARK    3  A    between atoms: C_13  and  S_7 
ROOT
ATOM      1  C   UNL d   1      -1.496   1.261   0.065  0.00  0.00     0.110 A 
ATOM      2  N   UNL d   1      -0.208   0.746   0.069  0.00  0.00    -0.300 N 
ATOM      3  N   UNL d   1      -1.599  -1.004  -0.106  0.00  0.00    -0.339 N 
ATOM      4  HN  UNL d   1      -1.959  -1.953  -0.213  1.00  0.00     0.167 HD
ATOM      5  C   UNL d   1      -2.336   0.159  -0.007  0.00  0.00     0.079 A 
ATOM      6  C   UNL d   1      -0.340  -0.639  -0.035  0.00  0.00     0.113 A 
ATOM      7  C   UNL d   1       1.042   1.374   0.156  0.00  0.00     0.099 A 
ATOM      8  C   UNL d   1       0.852  -1.419  -0.042  0.00  0.00     0.049 A 
ATOM      9  C   UNL d   1       2.163   0.632   0.148  0.00  0.00     0.018 A 
ATOM     10  C   UNL d   1       2.051  -0.814   0.046  0.00  0.00     0.005 A 
ENDROOT
BRANCH   1  11
ATOM     11  S   UNL d   1      -1.782   2.968   0.232  0.00  0.00    -0.070 SA
BRANCH  11  12
ATOM     12  C   UNL d   1      -2.030   3.537  -1.444  0.00  0.00     0.007 A 
ATOM     13  C   UNL d   1      -2.303   2.726  -2.552  0.00  0.00     0.020 A 
ATOM     14  C   UNL d   1      -2.474   3.292  -3.824  0.00  0.00     0.025 A 
ATOM     15  C   UNL d   1      -2.380   4.669  -3.995  0.00  0.00     0.034 A 
ATOM     16  C   UNL d   1      -2.135   5.494  -2.903  0.00  0.00     0.025 A 
ATOM     17 CL   UNL d   1      -2.565   5.359  -5.560  0.00  0.00    -0.084 Cl
ATOM     18  C   UNL d   1      -1.965   4.927  -1.636  0.00  0.00     0.020 A 
ENDBRANCH  11  12
ENDBRANCH   1  11
BRANCH   5  19
ATOM     19  C   UNL d   1      -3.794   0.126  -0.045  0.00  0.00    -0.007 A 
ATOM     20  C   UNL d   1      -4.597   1.068   0.608  0.00  0.00     0.014 A 
ATOM     21  C   UNL d   1      -5.992   1.011   0.508  0.00  0.00     0.001 A 
ATOM     22  C   UNL d   1      -6.600  -0.005  -0.223  0.00  0.00     0.000 A 
ATOM     23  C   UNL d   1      -5.818  -0.974  -0.845  0.00  0.00     0.001 A 
ATOM     24  C   UNL d   1      -4.425  -0.909  -0.754  0.00  0.00     0.014 A 
ENDBRANCH   5  19
TORSDOF 3
