REMARK  1 active torsions:
REMARK  status: ('A' for Active; 'I' for Inactive)
REMARK    1  A    between atoms: C_11  and  C_4 
ROOT
ATOM      1  C   UNL d   1      -0.733  -0.784   0.056  0.00  0.00     0.058 C 
ATOM      2  C   UNL d   1      -0.918   0.730   0.036  0.00  0.00     0.174 C 
ATOM      3  N   UNL d   1       0.648  -1.113   0.091  0.00  0.00    -0.280 NA
ATOM      4  C   UNL d   1      -1.719  -1.692  -0.003  0.00  0.00     0.038 C 
ATOM      5  C   UNL d   1       0.439   1.429  -0.018  0.00  0.00     0.064 C 
ATOM      6  C   UNL d   1       1.369  -0.642  -1.130  0.00  0.00     0.096 C 
ATOM      7  C   UNL d   1       1.343  -0.538   1.284  0.00  0.00     0.096 C 
ATOM      8  O   UNL d   1      -1.979   1.331   0.087  0.00  0.00    -0.291 OA
ATOM      9  C   UNL d   1       1.169   0.884  -1.261  0.00  0.00     0.027 C 
ATOM     10  C   UNL d   1       1.197   1.000   1.251  0.00  0.00     0.027 C 
ENDROOT
BRANCH   4  11
ATOM     11  C   UNL d   1      -3.144  -1.393  -0.121  0.00  0.00    -0.034 A 
ATOM     12  C   UNL d   1      -3.725  -1.269  -1.388  0.00  0.00     0.011 A 
ATOM     13  C   UNL d   1      -5.076  -0.941  -1.513  0.00  0.00     0.001 A 
ATOM     14  C   UNL d   1      -5.852  -0.741  -0.372  0.00  0.00     0.000 A 
ATOM     15  C   UNL d   1      -5.282  -0.876   0.893  0.00  0.00     0.001 A 
ATOM     16  C   UNL d   1      -3.930  -1.203   1.020  0.00  0.00     0.011 A 
ENDBRANCH   4  11
TORSDOF 1
