REMARK  4 active torsions:
REMARK  status: ('A' for Active; 'I' for Inactive)
REMARK    1  A    between atoms: N_4  and  C_1 
REMARK    2  A    between atoms: N_5  and  C_2 
REMARK    3  A    between atoms: S_14  and  C_3 
REMARK    4  A    between atoms: C_6  and  C_7 
ROOT
ATOM      1  C   UNL d   1       1.419  -0.215   0.054  0.00  0.00     0.122 A 
ATOM      2  C   UNL d   1      -0.751  -1.158   0.020  0.00  0.00     0.122 A 
ATOM      3  C   UNL d   1       0.642  -1.386  -0.017  0.00  0.00     0.066 A 
ATOM      4  C   UNL d   1      -0.524   1.266   0.150  0.00  0.00     0.052 A 
ATOM      5  C   UNL d   1      -1.334   0.129   0.093  0.00  0.00     0.053 A 
ATOM      6  C   UNL d   1       0.863   1.083   0.124  0.00  0.00     0.053 A 
ENDROOT
BRANCH   4   7
ATOM      7  C   UNL d   1      -1.111   2.655   0.266  0.00  0.00     0.417 C 
ATOM      8  F   UNL d   1      -2.470   2.661   0.324  0.00  0.00    -0.166 F 
ATOM      9  F   UNL d   1      -0.681   3.298   1.384  0.00  0.00    -0.166 F 
ATOM     10  F   UNL d   1      -0.770   3.446  -0.784  0.00  0.00    -0.166 F 
ENDBRANCH   4   7
BRANCH   1  11
ATOM     11  N   UNL d   1       2.862  -0.262   0.128  0.00  0.00    -0.114 N 
ATOM     12  O   UNL d   1       3.360  -0.648   1.192  0.00  0.00    -0.532 OA
ATOM     13  O   UNL d   1       3.480   0.131  -0.868  0.00  0.00    -0.532 OA
ENDBRANCH   1  11
BRANCH   2  14
ATOM     14  N   UNL d   1      -1.699  -2.260   0.002  0.00  0.00    -0.114 N 
ATOM     15  O   UNL d   1      -1.823  -2.913   1.046  0.00  0.00    -0.532 OA
ATOM     16  O   UNL d   1      -2.371  -2.393  -1.028  0.00  0.00    -0.532 OA
ENDBRANCH   2  14
BRANCH   3  17
ATOM     17  S   UNL d   1       1.263  -3.076  -0.059  0.00  0.00    -0.129 SA
ATOM     18  C   UNL d   1       2.708  -3.040  -1.160  0.00  0.00     0.095 C 
ENDBRANCH   3  17
TORSDOF 4
