REMARK  5 active torsions:
REMARK  status: ('A' for Active; 'I' for Inactive)
REMARK       I    between atoms: N_2  and  C_1 
REMARK    1  A    between atoms: O_3  and  C_1 
REMARK    2  A    between atoms: C_10  and  O_3 
REMARK    3  A    between atoms: O_9  and  C_11 
REMARK    4  A    between atoms: C_13  and  O_9 
REMARK    5  A    between atoms: O_18  and  C_12 
ROOT
ATOM      1  C   UNL d   1      -1.146   1.118   0.641  0.00  0.00     0.081 A 
ATOM      2  C   UNL d   1      -3.904   1.126   1.025  0.00  0.00     0.076 A 
ATOM      3  C   UNL d   1      -1.739   0.134   1.436  0.00  0.00     0.040 A 
ATOM      4  C   UNL d   1      -1.904   2.188   0.164  0.00  0.00     0.040 A 
ATOM      5  C   UNL d   1      -3.291   2.190   0.359  0.00  0.00     0.040 A 
ATOM      6  C   UNL d   1      -3.121   0.139   1.629  0.00  0.00     0.040 A 
ENDROOT
BRANCH   1   7
ATOM      7  O   UNL d   1       0.219   1.085   0.290  0.00  0.00    -0.261 OA
BRANCH   7   8
ATOM      8  C   UNL d   1       0.732  -0.136  -0.150  0.00  0.00     0.368 C 
ATOM      9  N   UNL d   1       2.091  -0.107  -0.460  0.00  0.00    -0.328 N 
ATOM     10  C   UNL d   1       2.876   1.104  -0.658  0.00  0.00     0.130 C 
ATOM     11  C   UNL d   1       2.769  -1.356  -0.778  0.00  0.00     0.130 C 
ATOM     12  C   UNL d   1       3.426   1.172  -2.088  0.00  0.00     0.051 C 
ATOM     13  C   UNL d   1       4.055  -0.141  -2.570  0.00  0.00     0.121 C 
ATOM     14  C   UNL d   1       3.202  -1.366  -2.237  0.00  0.00     0.051 C 
ATOM     15  O   UNL d   1       0.073  -1.169  -0.254  0.00  0.00    -0.238 OA
BRANCH  13  16
ATOM     16  O   UNL d   1       5.369  -0.292  -2.037  0.00  0.00    -0.395 OA
ATOM     17  H   UNL d   1       5.324  -0.281  -1.067  0.00  0.00     0.210 HD
ENDBRANCH  13  16
ENDBRANCH   7   8
ENDBRANCH   1   7
BRANCH   2  18
ATOM     18  O   UNL d   1      -5.281   1.120   1.079  0.00  0.00    -0.311 OA
BRANCH  18  19
ATOM     19  C   UNL d   1      -5.949  -0.061   0.815  0.00  0.00     0.076 A 
ATOM     20  C   UNL d   1      -7.213  -0.194   1.396  0.00  0.00     0.037 A 
ATOM     21  C   UNL d   1      -7.957  -1.362   1.209  0.00  0.00     0.003 A 
ATOM     22  C   UNL d   1      -7.442  -2.401   0.434  0.00  0.00     0.000 A 
ATOM     23  C   UNL d   1      -6.200  -2.259  -0.181  0.00  0.00     0.003 A 
ATOM     24  C   UNL d   1      -5.465  -1.082  -0.011  0.00  0.00     0.037 A 
ENDBRANCH  18  19
ENDBRANCH   2  18
TORSDOF 5
