REMARK  3 active torsions:
REMARK  status: ('A' for Active; 'I' for Inactive)
REMARK    1  A    between atoms: C_10  and  C_1 
REMARK       I    between atoms: C_4  and  N_7 
REMARK    2  A    between atoms: C_5  and  C_4 
REMARK    3  A    between atoms: N_7  and  C_10 
ROOT
ATOM      1  C   UNL d   1       1.013  -3.168  -0.038  0.00  0.00     0.162 C 
ENDROOT
BRANCH   1   2
ATOM      2  N   UNL d   1      -0.239  -3.860   0.140  0.00  0.00    -0.351 N 
ATOM      3  C   UNL d   1      -0.322  -5.076   0.779  0.00  0.00     0.275 C 
ATOM      4  O   UNL d   1       0.657  -5.629   1.271  0.00  0.00    -0.265 OA
ATOM      5  H   UNL d   1      -1.074  -3.512  -0.316  0.00  0.00     0.163 HD
BRANCH   3   6
ATOM      6  C   UNL d   1      -1.658  -5.634   0.820  0.00  0.00     0.142 A 
ATOM      7  O   UNL d   1      -2.695  -4.958   0.226  0.00  0.00    -0.317 OA
ATOM      8  C   UNL d   1      -3.818  -5.697   0.424  0.00  0.00     0.143 A 
ATOM      9  C   UNL d   1      -3.528  -6.838   1.132  0.00  0.00     0.027 A 
ATOM     10  C   UNL d   1      -2.136  -6.799   1.388  0.00  0.00     0.045 A 
ENDBRANCH   3   6
ENDBRANCH   1   2
BRANCH   1  11
ATOM     11  C   UNL d   1       0.755  -1.693   0.013  0.00  0.00    -0.022 A 
ATOM     12  C   UNL d   1       0.216  -1.057   1.117  0.00  0.00     0.060 A 
ATOM     13  S   UNL d   1       0.028   0.617   0.900  0.00  0.00    -0.101 SA
ATOM     14  C   UNL d   1       0.696   0.559  -0.683  0.00  0.00     0.015 A 
ATOM     15  C   UNL d   1       1.055  -0.746  -1.044  0.00  0.00    -0.011 A 
ATOM     16  C   UNL d   1       0.887   1.652  -1.552  0.00  0.00     0.019 A 
ATOM     17  C   UNL d   1       1.633  -0.931  -2.328  0.00  0.00     0.013 A 
ATOM     18  C   UNL d   1       1.829   0.153  -3.192  0.00  0.00     0.001 A 
ATOM     19  C   UNL d   1       1.457   1.431  -2.806  0.00  0.00     0.001 A 
ENDBRANCH   1  11
TORSDOF 3
