REMARK  2 active torsions:
REMARK  status: ('A' for Active; 'I' for Inactive)
REMARK    1  A    between atoms: N_3  and  C_1 
REMARK    2  A    between atoms: C_6  and  C_2 
ROOT
ATOM      1  C   UNL d   1       2.271  -0.850  -0.008  0.00  0.00     0.115 C 
ATOM      2  C   UNL d   1       2.268   0.576  -0.487  0.00  0.00     0.220 C 
ATOM      3  C   UNL d   1       1.184  -1.507   0.422  0.00  0.00     0.049 C 
ATOM      4  O   UNL d   1       1.136   1.330   0.044  0.00  0.00    -0.334 OA
ATOM      5  C   UNL d   1      -0.036   0.629   0.189  0.00  0.00     0.080 A 
ATOM      6  C   UNL d   1      -0.070  -0.766   0.340  0.00  0.00    -0.001 A 
ATOM      7  C   UNL d   1      -1.214   1.365   0.111  0.00  0.00     0.037 A 
ATOM      8  C   UNL d   1      -1.303  -1.424   0.344  0.00  0.00     0.014 A 
ATOM      9  C   UNL d   1      -2.439   0.701   0.091  0.00  0.00     0.003 A 
ATOM     10  C   UNL d   1      -2.483  -0.691   0.192  0.00  0.00     0.001 A 
ENDROOT
BRANCH   2  11
ATOM     11  C   UNL d   1       2.274   0.718  -2.017  0.00  0.00    -0.001 A 
ATOM     12  C   UNL d   1       3.260   1.440  -2.709  0.00  0.00     0.043 A 
ATOM     13 CL   UNL d   1       4.507   2.327  -1.907  0.00  0.00    -0.084 Cl
ATOM     14  C   UNL d   1       3.258   1.489  -4.112  0.00  0.00     0.024 A 
ATOM     15  C   UNL d   1       2.255   0.857  -4.845  0.00  0.00     0.002 A 
ATOM     16  C   UNL d   1       1.245   0.180  -4.178  0.00  0.00     0.001 A 
ATOM     17  C   UNL d   1       1.259   0.107  -2.785  0.00  0.00     0.012 A 
ENDBRANCH   2  11
BRANCH   1  18
ATOM     18  N   UNL d   1       3.552  -1.531   0.008  0.00  0.00    -0.117 N 
ATOM     19  O   UNL d   1       4.534  -0.910  -0.415  0.00  0.00    -0.532 OA
ATOM     20  O   UNL d   1       3.592  -2.688   0.441  0.00  0.00    -0.532 OA
ENDBRANCH   1  18
TORSDOF 2
