REMARK  4 active torsions:
REMARK  status: ('A' for Active; 'I' for Inactive)
REMARK    1  A    between atoms: N_6  and  C_1 
REMARK    2  A    between atoms: C_5  and  N_8 
REMARK    3  A    between atoms: N_10  and  C_5 
REMARK    4  A    between atoms: C_17  and  N_10 
ROOT
ATOM      1  N   UNL d   1      -4.538   0.167   0.001  0.00  0.00    -0.360 N 
ATOM      2  N   UNL d   1      -6.941   1.854   0.614  0.00  0.00    -0.356 N 
ATOM      3  C   UNL d   1      -5.299   0.818  -1.067  0.00  0.00     0.145 C 
ATOM      4  C   UNL d   1      -6.073   2.048  -0.565  0.00  0.00     0.145 C 
ATOM      5  C   UNL d   1      -5.657   0.333   2.197  0.00  0.00     0.040 C 
ATOM      6  C   UNL d   1      -5.330  -0.545   0.996  0.00  0.00     0.126 C 
ATOM      7  C   UNL d   1      -6.266   1.712   1.907  0.00  0.00     0.127 C 
ENDROOT
BRANCH   1   8
ATOM      8  C   UNL d   1      -3.174   0.219   0.009  0.00  0.00     0.147 A 
ATOM      9  N   UNL d   1      -2.462   0.923  -0.845  0.00  0.00    -0.336 N 
ATOM     10  C   UNL d   1      -1.100   0.773  -0.623  0.00  0.00     0.051 A 
ATOM     11  HN  UNL d   1      -2.861   1.506  -1.580  1.00  0.00     0.168 HD
ATOM     12  C   UNL d   1      -0.058   1.382  -1.355  0.00  0.00     0.032 A 
ATOM     13  C   UNL d   1      -0.764  -0.063   0.441  0.00  0.00     0.036 A 
ATOM     14  C   UNL d   1       1.275   1.140  -1.004  0.00  0.00     0.026 A 
ATOM     15  C   UNL d   1       1.579   0.299   0.063  0.00  0.00     0.035 A 
ATOM     16  C   UNL d   1       0.570  -0.320   0.807  0.00  0.00     0.045 A 
ATOM     17 CL   UNL d   1       3.223   0.019   0.482  0.00  0.00    -0.084 Cl
ATOM     18  S   UNL d   1      -2.201  -0.651   1.155  0.00  0.00    -0.052 SA
ENDBRANCH   1   8
BRANCH   2  19
ATOM     19  C   UNL d   1      -8.290   1.619   0.486  0.00  0.00     0.174 C 
ATOM     20  S   UNL d   1      -8.938   0.414  -0.486  0.00  0.00    -0.041 SA
BRANCH  19  21
ATOM     21  N   UNL d   1      -9.180   2.357   1.213  0.00  0.00    -0.333 N 
ATOM     22  H   UNL d   1     -10.112   1.961   1.191  0.00  0.00     0.168 HD
BRANCH  21  23
ATOM     23  C   UNL d   1      -9.095   3.646   1.783  0.00  0.00     0.034 A 
ATOM     24  C   UNL d   1      -8.011   4.510   1.631  0.00  0.00     0.029 A 
ATOM     25  C   UNL d   1      -7.998   5.758   2.263  0.00  0.00     0.002 A 
ATOM     26  C   UNL d   1      -9.085   6.167   3.030  0.00  0.00     0.000 A 
ATOM     27  C   UNL d   1     -10.200   5.342   3.137  0.00  0.00     0.002 A 
ATOM     28  C   UNL d   1     -10.208   4.092   2.511  0.00  0.00     0.029 A 
ENDBRANCH  21  23
ENDBRANCH  19  21
ENDBRANCH   2  19
TORSDOF 4
