REMARK  5 active torsions:
REMARK  status: ('A' for Active; 'I' for Inactive)
REMARK    1  A    between atoms: C_12  and  C_1 
REMARK    2  A    between atoms: C_4  and  C_2 
REMARK    3  A    between atoms: C_16  and  N_3 
REMARK    4  A    between atoms: C_18  and  C_13 
REMARK    5  A    between atoms: N_14  and  C_17 
ROOT
ATOM      1  C   UNL d   1       1.009  -0.888  -0.014  0.00  0.00     0.156 A 
ATOM      2  C   UNL d   1      -0.324  -1.268  -0.032  0.00  0.00     0.067 A 
ATOM      3  N   UNL d   1       1.005   0.498  -0.002  0.00  0.00    -0.251 N 
ATOM      4  N   UNL d   1      -0.258   0.987   0.133  0.00  0.00    -0.303 N 
ATOM      5  HN  UNL d   1      -0.535   1.958   0.273  1.00  0.00     0.186 HD
ATOM      6  C   UNL d   1      -1.053  -0.078   0.043  0.00  0.00     0.126 A 
ENDROOT
BRANCH   2   7
ATOM      7  C   UNL d   1      -0.886  -2.640  -0.031  0.00  0.00     0.178 A 
ATOM      8  O   UNL d   1      -0.120  -3.769   0.003  0.00  0.00    -0.272 OA
ATOM      9  C   UNL d   1      -1.042  -4.764   0.141  0.00  0.00     0.174 A 
ATOM     10  N   UNL d   1      -2.276  -4.305   0.105  0.00  0.00    -0.277 N 
ATOM     11  N   UNL d   1      -2.174  -2.926  -0.005  0.00  0.00    -0.277 N 
ATOM     12  HN  UNL d   1      -3.135  -4.854   0.150  1.00  0.00     0.189 HD
ATOM     13  HN  UNL d   1      -2.945  -2.261  -0.057  1.00  0.00     0.189 HD
BRANCH   9  14
ATOM     14  C   UNL d   1      -0.510  -6.104   0.357  0.00  0.00     0.017 A 
ATOM     15  C   UNL d   1       0.872  -6.320   0.483  0.00  0.00     0.016 A 
ATOM     16  C   UNL d   1       1.384  -7.596   0.722  0.00  0.00     0.007 A 
ATOM     17  C   UNL d   1       0.523  -8.693   0.839  0.00  0.00    -0.062 A 
ATOM     18  C   UNL d   1      -0.857  -8.485   0.721  0.00  0.00     0.007 A 
ATOM     19  C   UNL d   1       1.093 -10.057   1.088  0.00  0.00     0.048 C 
ATOM     20  C   UNL d   1      -1.369  -7.203   0.483  0.00  0.00     0.016 A 
ENDBRANCH   9  14
ENDBRANCH   2   7
BRANCH   1  21
ATOM     21  C   UNL d   1       2.250  -1.671   0.094  0.00  0.00     0.435 C 
ATOM     22  F   UNL d   1       2.062  -2.933   0.547  0.00  0.00    -0.165 F 
ATOM     23  F   UNL d   1       2.874  -1.792  -1.103  0.00  0.00    -0.165 F 
ATOM     24  F   UNL d   1       3.136  -1.112   0.956  0.00  0.00    -0.165 F 
ENDBRANCH   1  21
BRANCH   3  25
ATOM     25  C   UNL d   1       2.084   1.431  -0.074  0.00  0.00     0.057 A 
ATOM     26  C   UNL d   1       3.252   1.161  -0.801  0.00  0.00     0.034 A 
ATOM     27  C   UNL d   1       4.311   2.075  -0.807  0.00  0.00     0.038 A 
ATOM     28  C   UNL d   1       4.199   3.274  -0.096  0.00  0.00     0.103 A 
ATOM     29  C   UNL d   1       3.021   3.579   0.596  0.00  0.00     0.038 A 
ATOM     30  C   UNL d   1       1.961   2.663   0.592  0.00  0.00     0.034 A 
BRANCH  28  31
ATOM     31  N   UNL d   1       5.324   4.218  -0.084  0.00  0.00    -0.116 N 
ATOM     32  O   UNL d   1       5.187   5.267   0.564  0.00  0.00    -0.532 OA
ATOM     33  O   UNL d   1       6.341   3.910  -0.717  0.00  0.00    -0.532 OA
ENDBRANCH  28  31
ENDBRANCH   3  25
TORSDOF 5
