REMARK  2 active torsions:
REMARK  status: ('A' for Active; 'I' for Inactive)
REMARK       I    between atoms: C_6  and  N_1 
REMARK    1  A    between atoms: C_2  and  C_6 
REMARK    2  A    between atoms: C_12  and  C_5 
ROOT
ATOM      1  N   UNL d   1      -0.415   1.035  -0.066  0.00  0.00    -0.230 N 
ATOM      2  N   UNL d   1       0.885   0.647  -0.140  0.00  0.00    -0.290 N 
ATOM      3  HN  UNL d   1       1.706   1.248  -0.219  1.00  0.00     0.188 HD
ATOM      4  C   UNL d   1       0.861  -0.692  -0.086  0.00  0.00     0.073 A 
ATOM      5  C   UNL d   1      -0.779   2.404  -0.040  0.00  0.00     0.279 C 
ATOM      6  C   UNL d   1      -0.475  -1.188  -0.045  0.00  0.00    -0.015 A 
ATOM      7  C   UNL d   1      -1.257  -0.051   0.006  0.00  0.00     0.129 A 
ATOM      8  O   UNL d   1      -1.924   2.658   0.340  0.00  0.00    -0.265 OA
ATOM      9  C   UNL d   1      -0.976  -2.582  -0.026  0.00  0.00     0.052 C 
ENDROOT
BRANCH   5  10
ATOM     10  C   UNL d   1       0.124   3.459  -0.482  0.00  0.00     0.065 A 
ATOM     11  C   UNL d   1       0.170   4.757   0.002  0.00  0.00     0.065 A 
ATOM     12  O   UNL d   1       1.089   5.488  -0.692  0.00  0.00    -0.319 OA
ATOM     13  C   UNL d   1      -0.529   5.481   1.085  0.00  0.00     0.077 C 
ATOM     14  C   UNL d   1       1.639   4.668  -1.628  0.00  0.00     0.050 A 
ATOM     15  C   UNL d   1       1.092   3.410  -1.530  0.00  0.00     0.052 A 
ATOM     16  C   UNL d   1       2.652   5.265  -2.519  0.00  0.00     0.076 C 
ENDBRANCH   5  10
BRANCH   4  17
ATOM     17  C   UNL d   1       2.152  -1.478  -0.074  0.00  0.00     0.033 A 
ATOM     18  S   UNL d   1       2.282  -3.180  -0.160  0.00  0.00    -0.100 SA
ATOM     19  C   UNL d   1       3.987  -3.134  -0.082  0.00  0.00     0.050 A 
ATOM     20  C   UNL d   1       4.459  -1.847   0.027  0.00  0.00     0.008 A 
ATOM     21  C   UNL d   1       3.400  -0.889   0.025  0.00  0.00     0.021 A 
ENDBRANCH   4  17
TORSDOF 2
