REMARK  2 active torsions:
REMARK  status: ('A' for Active; 'I' for Inactive)
REMARK    1  A    between atoms: C_8  and  C_6 
REMARK    2  A    between atoms: C_10  and  C_9 
ROOT
ATOM      1  N   UNL d   1       0.628  -1.026  -0.402  0.00  0.00    -0.005 NA
ATOM      2  N   UNL d   1       1.242   0.146  -0.480  0.00  0.00    -0.267 N 
ATOM      3  HN  UNL d   1       2.222   0.307  -0.712  1.00  0.00     0.186 HD
ATOM      4  N   UNL d   1      -0.907   0.581   0.078  0.00  0.00    -0.272 N 
ATOM      5  HN  UNL d   1      -1.782   1.044   0.323  1.00  0.00     0.190 HD
ATOM      6  C   UNL d   1       0.301   1.102  -0.188  0.00  0.00     0.133 A 
ATOM      7  N   UNL d   1      -0.633  -0.723  -0.072  0.00  0.00    -0.225 N 
ATOM      8  H   UNL d   1      -1.339  -1.444   0.054  0.00  0.00     0.205 HD
ENDROOT
BRANCH   6   9
ATOM      9  C   UNL d   1       0.676   2.475  -0.217  0.00  0.00     0.052 C 
ATOM     10  C   UNL d   1      -0.156   3.504   0.021  0.00  0.00     0.015 C 
BRANCH  10  11
ATOM     11  C   UNL d   1       0.222   4.924  -0.042  0.00  0.00    -0.036 A 
ATOM     12  C   UNL d   1       1.216   5.402  -0.906  0.00  0.00     0.011 A 
ATOM     13  C   UNL d   1       1.508   6.766  -0.973  0.00  0.00     0.001 A 
ATOM     14  C   UNL d   1       0.801   7.672  -0.186  0.00  0.00     0.000 A 
ATOM     15  C   UNL d   1      -0.199   7.213   0.669  0.00  0.00     0.001 A 
ATOM     16  C   UNL d   1      -0.489   5.848   0.738  0.00  0.00     0.011 A 
ENDBRANCH  10  11
ENDBRANCH   6   9
TORSDOF 2
