REMARK  3 active torsions:
REMARK  status: ('A' for Active; 'I' for Inactive)
REMARK    1  A    between atoms: C_2  and  C_1 
REMARK    2  A    between atoms: C_6  and  C_3 
REMARK    3  A    between atoms: O_22  and  C_9 
ROOT
ATOM      1  C   UNL d   1       1.687   0.316   0.092  0.00  0.00     0.173 C 
ATOM      2  C   UNL d   1       4.354  -2.285   2.685  0.00  0.00     0.071 A 
ATOM      3  N   UNL d   1       2.896   0.668   0.865  0.00  0.00    -0.270 NA
ATOM      4  N   UNL d   1       1.865  -1.056  -0.452  0.00  0.00    -0.270 NA
ATOM      5  C   UNL d   1       3.228  -0.622   1.376  0.00  0.00     0.032 A 
ATOM      6  C   UNL d   1       2.611  -1.622   0.630  0.00  0.00     0.033 A 
ATOM      7  C   UNL d   1       4.127  -0.926   2.376  0.00  0.00     0.043 A 
ATOM      8  C   UNL d   1       3.708  -3.286   1.922  0.00  0.00     0.051 A 
ATOM      9  C   UNL d   1       2.860  -2.957   0.857  0.00  0.00     0.050 A 
ATOM     10 CL   UNL d   1       3.923  -4.968   2.259  0.00  0.00    -0.083 Cl
ATOM     11  H   UNL d   1       3.641   0.951   0.234  0.00  0.00     0.129 HD
ATOM     12  H   UNL d   1       2.536  -0.997  -1.226  0.00  0.00     0.129 HD
ENDROOT
BRANCH   1  13
ATOM     13  C   UNL d   1       1.313   1.316  -0.981  0.00  0.00     0.010 A 
ATOM     14  C   UNL d   1       0.582   0.955  -2.133  0.00  0.00     0.096 A 
ATOM     15  C   UNL d   1       0.132   1.930  -3.038  0.00  0.00     0.069 A 
ATOM     16 CL   UNL d   1      -0.761   1.500  -4.454  0.00  0.00    -0.081 Cl
ATOM     17  C   UNL d   1       0.372   3.280  -2.799  0.00  0.00     0.050 A 
ATOM     18  C   UNL d   1       1.069   3.654  -1.657  0.00  0.00     0.036 A 
ATOM     19  C   UNL d   1       1.534   2.690  -0.758  0.00  0.00     0.036 A 
ATOM     20 CL   UNL d   1       1.332   5.322  -1.328  0.00  0.00    -0.084 Cl
BRANCH  14  21
ATOM     21  O   UNL d   1       0.260  -0.354  -2.398  0.00  0.00    -0.358 OA
ATOM     22  H   UNL d   1       0.567  -0.935  -1.670  0.00  0.00     0.217 HD
ENDBRANCH  14  21
ENDBRANCH   1  13
BRANCH   2  23
ATOM     23  C   UNL d   1       5.260  -2.646   3.833  0.00  0.00     0.419 C 
ATOM     24  F   UNL d   1       5.878  -1.561   4.385  0.00  0.00    -0.166 F 
ATOM     25  F   UNL d   1       4.596  -3.244   4.861  0.00  0.00    -0.166 F 
ATOM     26  F   UNL d   1       6.268  -3.489   3.479  0.00  0.00    -0.166 F 
ENDBRANCH   2  23
TORSDOF 3
