REMARK  4 active torsions:
REMARK  status: ('A' for Active; 'I' for Inactive)
REMARK    1  A    between atoms: C_4  and  C_1 
REMARK    2  A    between atoms: C_3  and  C_2 
REMARK    3  A    between atoms: N_13  and  C_4 
REMARK    4  A    between atoms: O_15  and  C_5 
ROOT
ATOM      1  C   UNL d   1      -0.668   1.140   0.002  0.00  0.00     0.083 C 
ATOM      2  C   UNL d   1       0.396   0.814   0.767  0.00  0.00     0.040 C 
ATOM      3  C   UNL d   1      -1.221   2.461   0.031  0.00  0.00     0.102 C 
ATOM      4  N   UNL d   1      -1.681   3.526   0.035  0.00  0.00    -0.191 NA
ENDROOT
BRANCH   1   5
ATOM      5  C   UNL d   1      -1.291   0.090  -0.891  0.00  0.00     0.115 C 
ATOM      6  S   UNL d   1      -0.861  -1.527  -1.050  0.00  0.00    -0.059 SA
BRANCH   5   7
ATOM      7  N   UNL d   1      -2.344   0.499  -1.663  0.00  0.00    -0.389 N 
ATOM      8  H   UNL d   1      -2.730   1.437  -1.683  0.00  0.00     0.157 HD
ATOM      9  H   UNL d   1      -2.791  -0.183  -2.268  0.00  0.00     0.157 HD
ENDBRANCH   5   7
ENDBRANCH   1   5
BRANCH   2  10
ATOM     10  C   UNL d   1       1.076   1.733   1.692  0.00  0.00     0.002 A 
ATOM     11  C   UNL d   1       0.692   1.865   3.037  0.00  0.00     0.097 A 
ATOM     12  C   UNL d   1       1.348   2.784   3.867  0.00  0.00     0.069 A 
ATOM     13 CL   UNL d   1       0.897   2.982   5.522  0.00  0.00    -0.081 Cl
ATOM     14  C   UNL d   1       2.395   3.560   3.371  0.00  0.00     0.050 A 
ATOM     15  C   UNL d   1       2.783   3.417   2.042  0.00  0.00     0.036 A 
ATOM     16  C   UNL d   1       2.132   2.513   1.202  0.00  0.00     0.038 A 
ATOM     17 CL   UNL d   1       4.081   4.365   1.428  0.00  0.00    -0.084 Cl
BRANCH  11  18
ATOM     18  O   UNL d   1      -0.321   1.109   3.570  0.00  0.00    -0.358 OA
ATOM     19  H   UNL d   1      -0.559   0.384   2.971  0.00  0.00     0.217 HD
ENDBRANCH  11  18
ENDBRANCH   2  10
TORSDOF 4
