REMARK  3 active torsions:
REMARK  status: ('A' for Active; 'I' for Inactive)
REMARK    1  A    between atoms: C_12  and  C_3 
REMARK    2  A    between atoms: C_11  and  C_4 
REMARK    3  A    between atoms: O_20  and  C_17 
ROOT
ATOM      1  C   UNL d   1      -0.687   1.245  -0.009  0.00  0.00     0.087 A 
ATOM      2  C   UNL d   1      -0.779  -1.227  -0.051  0.00  0.00     0.125 A 
ATOM      3  C   UNL d   1      -1.433  -0.037  -0.030  0.00  0.00     0.024 A 
ATOM      4  C   UNL d   1       0.666   1.224   0.013  0.00  0.00     0.102 A 
ATOM      5  N   UNL d   1       1.307  -0.004  -0.017  0.00  0.00    -0.318 N 
ATOM      6  C   UNL d   1       0.707  -1.226  -0.050  0.00  0.00     0.267 A 
ATOM      7  C   UNL d   1      -1.439   2.456  -0.053  0.00  0.00     0.103 C 
ATOM      8  C   UNL d   1      -1.424  -2.498  -0.080  0.00  0.00     0.106 C 
ATOM      9  N   UNL d   1      -2.043   3.446  -0.098  0.00  0.00    -0.191 NA
ATOM     10  N   UNL d   1      -1.979  -3.515  -0.106  0.00  0.00    -0.191 NA
ATOM     11  O   UNL d   1       1.370  -2.259  -0.075  0.00  0.00    -0.266 OA
ATOM     12  H   UNL d   1       2.328   0.006  -0.049  0.00  0.00     0.169 HD
ENDROOT
BRANCH   3  13
ATOM     13  C   UNL d   1      -2.917  -0.077  -0.032  0.00  0.00    -0.022 A 
ATOM     14  C   UNL d   1      -3.619  -0.120   1.178  0.00  0.00     0.015 A 
ATOM     15  C   UNL d   1      -5.010  -0.241   1.172  0.00  0.00     0.037 A 
ATOM     16  C   UNL d   1      -5.717  -0.296  -0.031  0.00  0.00     0.068 A 
ATOM     17  C   UNL d   1      -5.021  -0.232  -1.238  0.00  0.00     0.037 A 
ATOM     18  C   UNL d   1      -3.626  -0.122  -1.240  0.00  0.00     0.015 A 
BRANCH  16  19
ATOM     19  O   UNL d   1      -7.065  -0.480   0.102  0.00  0.00    -0.356 OA
ATOM     20  C   UNL d   1      -7.879   0.005  -0.958  0.00  0.00     0.210 C 
ENDBRANCH  16  19
ENDBRANCH   3  13
BRANCH   4  21
ATOM     21  C   UNL d   1       1.655   2.370   0.023  0.00  0.00     0.173 C 
ATOM     22  O   UNL d   1       2.819   2.108  -0.308  0.00  0.00    -0.291 OA
ATOM     23  C   UNL d   1       1.311   3.763   0.468  0.00  0.00     0.098 C 
ENDBRANCH   4  21
TORSDOF 3
