REMARK  2 active torsions:
REMARK  status: ('A' for Active; 'I' for Inactive)
REMARK    1  A    between atoms: C_10  and  N_8 
REMARK    2  A    between atoms: C_9  and  C_10 
ROOT
ATOM      1  S   UNL d   1       0.192   1.119  -0.032  0.00  0.00    -0.039 SA
ATOM      2  C   UNL d   1       1.571   0.084  -0.017  0.00  0.00     0.161 A 
ATOM      3  N   UNL d   1       1.260  -1.196  -0.026  0.00  0.00    -0.279 N 
ATOM      4  HN  UNL d   1       1.953  -1.945  -0.021  1.00  0.00     0.189 HD
ATOM      5  N   UNL d   1      -0.104  -1.417  -0.042  0.00  0.00    -0.296 N 
ATOM      6  HN  UNL d   1      -0.532  -2.343  -0.047  1.00  0.00     0.187 HD
ATOM      7  C   UNL d   1      -0.783  -0.292  -0.050  0.00  0.00     0.066 A 
ATOM      8  N   UNL d   1       2.811   0.612  -0.003  0.00  0.00    -0.369 N 
ATOM      9  C   UNL d   1      -2.263  -0.192  -0.072  0.00  0.00     0.078 C 
ATOM     10  H   UNL d   1       2.927   1.614   0.046  0.00  0.00     0.161 HD
ENDROOT
BRANCH   8  11
ATOM     11  C   UNL d   1       3.983  -0.245   0.014  0.00  0.00     0.130 C 
BRANCH  11  12
ATOM     12  C   UNL d   1       5.300   0.574  -0.009  0.00  0.00    -0.035 C 
ATOM     13  C   UNL d   1       5.417   1.463   1.242  0.00  0.00     0.016 C 
ATOM     14  C   UNL d   1       6.492  -0.403  -0.024  0.00  0.00     0.016 C 
ATOM     15  C   UNL d   1       5.378   1.448  -1.274  0.00  0.00     0.016 C 
ENDBRANCH  11  12
ENDBRANCH   8  11
TORSDOF 2
