REMARK  5 active torsions:
REMARK  status: ('A' for Active; 'I' for Inactive)
REMARK       I    between atoms: C_8  and  N_7 
REMARK    1  A    between atoms: C_11  and  C_8 
REMARK    2  A    between atoms: C_12  and  C_11 
REMARK    3  A    between atoms: C_21  and  C_12 
REMARK    4  A    between atoms: C_13  and  C_21 
REMARK    5  A    between atoms: O_23  and  C_13 
ROOT
ATOM      1  C   UNL d   1      -3.064   0.068   0.321  0.00  0.00     0.148 A 
ATOM      2  N   UNL d   1      -2.372   0.284  -0.778  0.00  0.00    -0.336 N 
ATOM      3  HN  UNL d   1      -2.786   0.524  -1.678  1.00  0.00     0.168 HD
ATOM      4  S   UNL d   1      -2.077  -0.322   1.690  0.00  0.00    -0.052 SA
ATOM      5  N   UNL d   1      -4.423   0.179   0.373  0.00  0.00    -0.358 N 
ATOM      6  C   UNL d   1      -0.651  -0.177   0.745  0.00  0.00     0.036 A 
ATOM      7  N   UNL d   1      -7.004  -0.841  -0.337  0.00  0.00    -0.349 N 
ATOM      8  C   UNL d   1      -8.378  -0.710  -0.235  0.00  0.00     0.220 C 
ATOM      9  C   UNL d   1      -1.015   0.145  -0.560  0.00  0.00     0.051 A 
ATOM     10  C   UNL d   1       0.693  -0.336   1.127  0.00  0.00     0.045 A 
ATOM     11  C   UNL d   1      -5.260  -0.431   1.412  0.00  0.00     0.145 C 
ATOM     12  C   UNL d   1      -5.157   0.764  -0.764  0.00  0.00     0.145 C 
ATOM     13  C   UNL d   1      -6.127  -0.271  -1.376  0.00  0.00     0.145 C 
ATOM     14  C   UNL d   1      -6.257  -1.428   0.785  0.00  0.00     0.145 C 
ATOM     15  O   UNL d   1      -8.958  -1.040   0.806  0.00  0.00    -0.273 OA
ATOM     16  C   UNL d   1      -0.003   0.304  -1.529  0.00  0.00     0.032 A 
ATOM     17  C   UNL d   1       1.675  -0.167   0.146  0.00  0.00     0.035 A 
ATOM     18  C   UNL d   1       1.340   0.145  -1.167  0.00  0.00     0.026 A 
ATOM     19 CL   UNL d   1       3.333  -0.351   0.574  0.00  0.00    -0.084 Cl
ENDROOT
BRANCH   8  20
ATOM     20  C   UNL d   1      -9.183  -0.231  -1.444  0.00  0.00     0.112 C 
BRANCH  20  21
ATOM     21  C   UNL d   1     -10.591   0.379  -1.145  0.00  0.00    -0.030 C 
ATOM     22  C   UNL d   1     -11.236   0.799  -2.489  0.00  0.00     0.016 C 
ATOM     23  C   UNL d   1     -11.563  -0.649  -0.516  0.00  0.00     0.016 C 
BRANCH  21  24
ATOM     24  C   UNL d   1     -10.514   1.589  -0.176  0.00  0.00     0.119 C 
BRANCH  24  25
ATOM     25  C   UNL d   1      -9.618   2.740  -0.583  0.00  0.00     0.140 C 
ATOM     26  O   UNL d   1      -9.036   2.860  -1.649  0.00  0.00    -0.650 OA
BRANCH  25  27
ATOM     27  O   UNL d   1      -9.523   3.675   0.393  0.00  0.00    -0.776 OA
ATOM     28  H   UNL d   1     -10.033   3.456   1.197  0.00  0.00     0.167 HD
ENDBRANCH  25  27
ENDBRANCH  24  25
ENDBRANCH  21  24
ENDBRANCH  20  21
ENDBRANCH   8  20
TORSDOF 5
