REMARK  4 active torsions:
REMARK  status: ('A' for Active; 'I' for Inactive)
REMARK    1  A    between atoms: C_10  and  N_1 
REMARK    2  A    between atoms: C_9  and  C_2 
REMARK    3  A    between atoms: N_7  and  C_8 
REMARK    4  A    between atoms: C_17  and  C_10 
ROOT
ATOM      1  N   UNL d   1      -0.083  -1.267  -0.013  0.00  0.00    -0.256 N 
ATOM      2  C   UNL d   1       1.098  -0.561  -0.097  0.00  0.00     0.143 A 
ATOM      3  N   UNL d   1      -0.597   0.794  -0.084  0.00  0.00    -0.007 NA
ATOM      4  N   UNL d   1      -1.128  -0.413  -0.021  0.00  0.00    -0.004 NA
ATOM      5  N   UNL d   1       0.767   0.721  -0.148  0.00  0.00    -0.270 N 
ATOM      6  HN  UNL d   1       1.411   1.508  -0.221  1.00  0.00     0.185 HD
ENDROOT
BRANCH   2   7
ATOM      7  C   UNL d   1       2.480  -1.049  -0.146  0.00  0.00     0.010 A 
ATOM      8  C   UNL d   1       3.438  -0.268  -0.822  0.00  0.00     0.018 A 
ATOM      9  C   UNL d   1       4.795  -0.613  -0.826  0.00  0.00     0.037 A 
ATOM     10  C   UNL d   1       5.210  -1.761  -0.147  0.00  0.00     0.102 A 
ATOM     11  C   UNL d   1       4.275  -2.566   0.513  0.00  0.00     0.037 A 
ATOM     12  C   UNL d   1       2.922  -2.201   0.519  0.00  0.00     0.018 A 
BRANCH  10  13
ATOM     13  N   UNL d   1       6.637  -2.105  -0.093  0.00  0.00    -0.116 N 
ATOM     14  O   UNL d   1       6.961  -3.112   0.552  0.00  0.00    -0.532 OA
ATOM     15  O   UNL d   1       7.431  -1.367  -0.692  0.00  0.00    -0.532 OA
ENDBRANCH  10  13
ENDBRANCH   2   7
BRANCH   1  16
ATOM     16  C   UNL d   1      -0.352  -2.692  -0.025  0.00  0.00     0.186 C 
BRANCH  16  17
ATOM     17  C   UNL d   1      -0.343  -3.325   1.351  0.00  0.00    -0.039 A 
ATOM     18  C   UNL d   1      -0.717  -2.627   2.509  0.00  0.00     0.009 A 
ATOM     19  C   UNL d   1      -0.675  -3.244   3.760  0.00  0.00     0.001 A 
ATOM     20  C   UNL d   1      -0.281  -4.576   3.870  0.00  0.00     0.000 A 
ATOM     21  C   UNL d   1       0.053  -5.295   2.727  0.00  0.00     0.001 A 
ATOM     22  C   UNL d   1       0.014  -4.680   1.474  0.00  0.00     0.009 A 
ENDBRANCH  16  17
ENDBRANCH   1  16
TORSDOF 4
