REMARK  4 active torsions:
REMARK  status: ('A' for Active; 'I' for Inactive)
REMARK    1  A    between atoms: C_7  and  C_1 
REMARK    2  A    between atoms: C_8  and  C_6 
REMARK    3  A    between atoms: O_14  and  C_7 
REMARK    4  A    between atoms: O_19  and  C_16 
ROOT
ATOM      1  C   UNL d   1      -0.492  -1.386  -0.097  0.00  0.00     0.065 C 
ATOM      2  C   UNL d   1      -1.414  -0.399  -0.014  0.00  0.00     0.027 C 
ATOM      3  C   UNL d   1       0.365   1.294   0.025  0.00  0.00     0.323 C 
ATOM      4  N   UNL d   1      -0.977   0.931   0.082  0.00  0.00    -0.308 N 
ATOM      5  N   UNL d   1       1.266   0.292  -0.104  0.00  0.00    -0.330 N 
ATOM      6  C   UNL d   1       0.979  -1.111  -0.006  0.00  0.00     0.161 C 
ATOM      7  O   UNL d   1       0.770   2.454   0.057  0.00  0.00    -0.247 OA
ATOM      8  C   UNL d   1      -2.906  -0.657  -0.004  0.00  0.00     0.069 C 
ATOM      9  C   UNL d   1      -1.896   2.064   0.078  0.00  0.00     0.161 C 
ATOM     10  H   UNL d   1       2.227   0.601  -0.115  0.00  0.00     0.165 HD
ENDROOT
BRANCH   6  11
ATOM     11  C   UNL d   1       1.630  -1.666   1.256  0.00  0.00    -0.030 A 
ATOM     12  C   UNL d   1       1.014  -1.570   2.517  0.00  0.00     0.012 A 
ATOM     13  C   UNL d   1       1.559  -2.218   3.632  0.00  0.00     0.037 A 
ATOM     14  C   UNL d   1       2.746  -2.938   3.513  0.00  0.00     0.068 A 
ATOM     15  C   UNL d   1       3.393  -2.986   2.278  0.00  0.00     0.037 A 
ATOM     16  C   UNL d   1       2.850  -2.350   1.160  0.00  0.00     0.012 A 
BRANCH  14  17
ATOM     17  O   UNL d   1       3.357  -3.654   4.504  0.00  0.00    -0.356 OA
ATOM     18  C   UNL d   1       2.905  -3.424   5.833  0.00  0.00     0.210 C 
ENDBRANCH  14  17
ENDBRANCH   6  11
BRANCH   1  19
ATOM     19  C   UNL d   1      -0.896  -2.768  -0.462  0.00  0.00     0.176 C 
ATOM     20  O   UNL d   1      -1.726  -3.003  -1.330  0.00  0.00    -0.646 OA
BRANCH  19  21
ATOM     21  O   UNL d   1      -0.264  -3.761   0.182  0.00  0.00    -0.773 OA
ATOM     22  H   UNL d   1       0.300  -3.538   0.945  0.00  0.00     0.167 HD
ENDBRANCH  19  21
ENDBRANCH   1  19
TORSDOF 4
