REMARK  4 active torsions:
REMARK  status: ('A' for Active; 'I' for Inactive)
REMARK    1  A    between atoms: C_7  and  C_1 
REMARK    2  A    between atoms: C_8  and  C_3 
REMARK    3  A    between atoms: O_13  and  C_7 
REMARK    4  A    between atoms: C_19  and  O_13 
ROOT
ATOM      1  C   UNL d   1       1.437   1.056   0.045  0.00  0.00     0.066 C 
ATOM      2  C   UNL d   1       1.367  -0.295   0.003  0.00  0.00     0.024 C 
ATOM      3  C   UNL d   1       0.182   1.897  -0.066  0.00  0.00     0.161 C 
ATOM      4  C   UNL d   1      -1.070  -0.244  -0.020  0.00  0.00     0.321 C 
ATOM      5  N   UNL d   1       0.124  -0.886  -0.099  0.00  0.00    -0.312 N 
ATOM      6  N   UNL d   1      -1.013   1.097   0.146  0.00  0.00    -0.330 N 
ATOM      7  O   UNL d   1      -2.137  -0.846  -0.054  0.00  0.00    -0.247 OA
ATOM      8  C   UNL d   1       2.493  -1.296   0.036  0.00  0.00     0.069 C 
ATOM      9  H   UNL d   1       0.049  -1.896  -0.157  0.00  0.00     0.170 HD
ATOM     10  H   UNL d   1      -1.913   1.556   0.183  0.00  0.00     0.165 HD
ENDROOT
BRANCH   3  11
ATOM     11  C   UNL d   1       0.101   3.097   0.865  0.00  0.00    -0.031 A 
ATOM     12  C   UNL d   1      -0.063   4.389   0.338  0.00  0.00     0.011 A 
ATOM     13  C   UNL d   1      -0.095   5.502   1.179  0.00  0.00     0.024 A 
ATOM     14  C   UNL d   1       0.025   5.329   2.556  0.00  0.00     0.034 A 
ATOM     15  C   UNL d   1       0.158   4.053   3.099  0.00  0.00     0.024 A 
ATOM     16 CL   UNL d   1       0.017   6.702   3.592  0.00  0.00    -0.084 Cl
ATOM     17  C   UNL d   1       0.191   2.939   2.258  0.00  0.00     0.011 A 
ENDBRANCH   3  11
BRANCH   1  18
ATOM     18  C   UNL d   1       2.748   1.747   0.178  0.00  0.00     0.293 C 
ATOM     19  O   UNL d   1       3.736   1.249   0.701  0.00  0.00    -0.259 OA
BRANCH  18  20
ATOM     20  O   UNL d   1       2.713   3.000  -0.339  0.00  0.00    -0.318 OA
BRANCH  20  21
ATOM     21  C   UNL d   1       3.929   3.760  -0.202  0.00  0.00     0.174 C 
ATOM     22  C   UNL d   1       4.163   4.226   1.228  0.00  0.00     0.034 C 
ENDBRANCH  20  21
ENDBRANCH  18  20
ENDBRANCH   1  18
TORSDOF 4
