REMARK  6 active torsions:
REMARK  status: ('A' for Active; 'I' for Inactive)
REMARK    1  A    between atoms: C_2  and  C_1 
REMARK    2  A    between atoms: C_3  and  C_1 
REMARK    3  A    between atoms: N_6  and  C_4 
REMARK    4  A    between atoms: C_5  and  C_11 
REMARK    5  A    between atoms: O_10  and  C_5 
REMARK    6  A    between atoms: C_11  and  N_6 
ROOT
ATOM      1  C   UNL d   1       1.008   0.219   0.019  0.00  0.00     0.065 C 
ATOM      2  C   UNL d   1       2.343   0.185  -0.145  0.00  0.00     0.076 C 
ENDROOT
BRANCH   2   3
ATOM      3  N   UNL d   1       3.182   1.068  -0.801  0.00  0.00    -0.292 NA
ATOM      4  H   UNL d   1       3.823   0.545  -1.413  0.00  0.00     0.127 HD
BRANCH   3   5
ATOM      5  C   UNL d   1       4.030   2.033  -0.061  0.00  0.00     0.202 C 
BRANCH   5   6
ATOM      6  C   UNL d   1       5.094   2.592  -1.006  0.00  0.00     0.271 C 
ATOM      7  O   UNL d   1       5.425   2.042  -2.054  0.00  0.00    -0.264 OA
BRANCH   6   8
ATOM      8  O   UNL d   1       5.634   3.741  -0.523  0.00  0.00    -0.326 OA
ATOM      9  C   UNL d   1       6.603   4.325  -1.399  0.00  0.00     0.213 C 
ENDBRANCH   6   8
ENDBRANCH   5   6
ENDBRANCH   3   5
ENDBRANCH   2   3
BRANCH   1  10
ATOM     10  C   UNL d   1       0.119   1.313  -0.465  0.00  0.00     0.160 C 
ATOM     11  O   UNL d   1      -0.976   1.483   0.078  0.00  0.00    -0.293 OA
ATOM     12  C   UNL d   1       0.529   2.212  -1.605  0.00  0.00     0.097 C 
ENDBRANCH   1  10
BRANCH   1  13
ATOM     13  C   UNL d   1       0.425  -0.970   0.724  0.00  0.00     0.160 C 
ATOM     14  O   UNL d   1       1.080  -1.593   1.563  0.00  0.00    -0.293 OA
ATOM     15  C   UNL d   1      -0.954  -1.447   0.335  0.00  0.00     0.097 C 
ENDBRANCH   1  13
TORSDOF 6
