REMARK  6 active torsions:
REMARK  status: ('A' for Active; 'I' for Inactive)
REMARK    1  A    between atoms: C_13  and  N_1 
REMARK    2  A    between atoms: S_11  and  C_2 
REMARK    3  A    between atoms: C_4  and  S_11 
REMARK    4  A    between atoms: N_9  and  C_5 
REMARK    5  A    between atoms: N_10  and  C_6 
REMARK    6  A    between atoms: C_14  and  C_16 
ROOT
ATOM      1  N   UNL d   1       2.325  -0.774  -0.005  0.00  0.00    -0.257 N 
ATOM      2  C   UNL d   1       2.305   0.618  -0.039  0.00  0.00     0.160 C 
ATOM      3  C   UNL d   1       1.130  -1.481   0.194  0.00  0.00     0.266 C 
ATOM      4  N   UNL d   1       1.222   1.323  -0.036  0.00  0.00    -0.335 N 
ATOM      5  HN  UNL d   1       1.267   2.341  -0.051  1.00  0.00     0.168 HD
ATOM      6  C   UNL d   1      -0.117  -0.709   0.114  0.00  0.00     0.059 A 
ATOM      7  C   UNL d   1      -0.013   0.669  -0.014  0.00  0.00     0.050 A 
ATOM      8  O   UNL d   1       1.049  -2.683   0.445  0.00  0.00    -0.267 OA
ATOM      9  C   UNL d   1      -1.365  -1.346   0.145  0.00  0.00     0.019 A 
ATOM     10  C   UNL d   1      -1.183   1.423  -0.117  0.00  0.00     0.030 A 
ATOM     11  C   UNL d   1      -2.526  -0.585   0.036  0.00  0.00     0.001 A 
ATOM     12  C   UNL d   1      -2.435   0.801  -0.096  0.00  0.00     0.002 A 
ENDROOT
BRANCH   2  13
ATOM     13  S   UNL d   1       3.789   1.560  -0.057  0.00  0.00    -0.048 SA
BRANCH  13  14
ATOM     14  C   UNL d   1       4.159   1.887  -1.779  0.00  0.00     0.074 A 
ATOM     15  C   UNL d   1       3.304   2.529  -2.693  0.00  0.00     0.123 A 
ATOM     16  C   UNL d   1       3.653   2.751  -4.048  0.00  0.00     0.053 A 
ATOM     17  C   UNL d   1       4.905   2.362  -4.540  0.00  0.00     0.052 A 
ATOM     18  C   UNL d   1       5.803   1.775  -3.646  0.00  0.00     0.053 A 
ATOM     19  C   UNL d   1       5.429   1.557  -2.301  0.00  0.00     0.123 A 
BRANCH  15  20
ATOM     20  N   UNL d   1       2.032   3.105  -2.290  0.00  0.00    -0.114 N 
ATOM     21  O   UNL d   1       2.071   4.053  -1.498  0.00  0.00    -0.532 OA
ATOM     22  O   UNL d   1       1.026   2.672  -2.869  0.00  0.00    -0.532 OA
ENDBRANCH  15  20
BRANCH  17  23
ATOM     23  C   UNL d   1       5.269   2.594  -5.991  0.00  0.00     0.417 C 
ATOM     24  F   UNL d   1       6.531   2.192  -6.298  0.00  0.00    -0.166 F 
ATOM     25  F   UNL d   1       4.440   1.926  -6.836  0.00  0.00    -0.166 F 
ATOM     26  F   UNL d   1       5.193   3.906  -6.338  0.00  0.00    -0.166 F 
ENDBRANCH  17  23
BRANCH  19  27
ATOM     27  N   UNL d   1       6.472   1.001  -1.452  0.00  0.00    -0.114 N 
ATOM     28  O   UNL d   1       6.962   1.744  -0.596  0.00  0.00    -0.532 OA
ATOM     29  O   UNL d   1       6.838  -0.153  -1.714  0.00  0.00    -0.532 OA
ENDBRANCH  19  27
ENDBRANCH  13  14
ENDBRANCH   2  13
BRANCH   1  30
ATOM     30  C   UNL d   1       3.514  -1.567  -0.070  0.00  0.00     0.051 A 
ATOM     31  C   UNL d   1       3.666  -2.554  -1.072  0.00  0.00    -0.033 A 
ATOM     32  C   UNL d   1       4.776  -3.416  -1.024  0.00  0.00     0.028 A 
ATOM     33  C   UNL d   1       2.676  -2.773  -2.188  0.00  0.00     0.050 C 
ATOM     34  C   UNL d   1       5.726  -3.292  -0.013  0.00  0.00     0.011 A 
ATOM     35  C   UNL d   1       5.589  -2.312   0.964  0.00  0.00     0.021 A 
ATOM     36 BR   UNL d   1       7.188  -4.488   0.047  0.00  0.00    -0.051 Br
ATOM     37  C   UNL d   1       4.485  -1.456   0.940  0.00  0.00     0.032 A 
ENDBRANCH   1  30
TORSDOF 6
