REMARK  3 active torsions:
REMARK  status: ('A' for Active; 'I' for Inactive)
REMARK    1  A    between atoms: C_7  and  C_3 
REMARK    2  A    between atoms: N_17  and  C_4 
REMARK    3  A    between atoms: C_10  and  C_6 
ROOT
ATOM      1  C   UNL d   1      -0.433   1.367  -0.121  0.00  0.00     0.074 A 
ATOM      2  C   UNL d   1      -0.856  -1.128  -0.079  0.00  0.00     0.083 A 
ATOM      3  C   UNL d   1       0.877   1.064  -0.135  0.00  0.00     0.129 A 
ATOM      4  C   UNL d   1       0.477  -1.310  -0.060  0.00  0.00     0.139 A 
ATOM      5  O   UNL d   1       1.352  -0.234  -0.059  0.00  0.00    -0.294 OA
ATOM      6  C   UNL d   1      -1.477   0.262  -0.063  0.00  0.00     0.137 A 
ATOM      7  C   UNL d   1      -0.911   2.709  -0.226  0.00  0.00     0.099 C 
ATOM      8  C   UNL d   1      -1.738  -2.249  -0.134  0.00  0.00     0.100 C 
ATOM      9  N   UNL d   1      -1.358   3.777  -0.308  0.00  0.00    -0.192 NA
ATOM     10  N   UNL d   1      -2.445  -3.167  -0.207  0.00  0.00    -0.191 NA
ENDROOT
BRANCH   3  11
ATOM     11  C   UNL d   1       1.909   2.041  -0.279  0.00  0.00     0.110 A 
ATOM     12  O   UNL d   1       1.811   3.344   0.159  0.00  0.00    -0.320 OA
ATOM     13  C   UNL d   1       2.928   4.014  -0.209  0.00  0.00     0.142 A 
ATOM     14  C   UNL d   1       3.793   3.175  -0.861  0.00  0.00     0.027 A 
ATOM     15  C   UNL d   1       3.158   1.911  -0.883  0.00  0.00     0.042 A 
ENDBRANCH   3  11
BRANCH   6  16
ATOM     16  C   UNL d   1      -2.547   0.429  -1.112  0.00  0.00     0.067 A 
ATOM     17  O   UNL d   1      -2.150   0.314  -2.412  0.00  0.00    -0.326 OA
ATOM     18  C   UNL d   1      -3.251   0.514  -3.179  0.00  0.00     0.142 A 
ATOM     19  C   UNL d   1      -4.351   0.754  -2.390  0.00  0.00     0.027 A 
ATOM     20  C   UNL d   1      -3.899   0.699  -1.051  0.00  0.00     0.036 A 
ENDBRANCH   6  16
BRANCH   4  21
ATOM     21  N   UNL d   1       1.122  -2.524  -0.046  0.00  0.00    -0.282 NA
ATOM     22  H   UNL d   1       0.606  -3.308  -0.439  0.00  0.00     0.126 HD
ATOM     23  H   UNL d   1       2.077  -2.464  -0.390  0.00  0.00     0.126 HD
ENDBRANCH   4  21
TORSDOF 3
