REMARK  4 active torsions:
REMARK  status: ('A' for Active; 'I' for Inactive)
REMARK    1  A    between atoms: C_7  and  C_1 
REMARK    2  A    between atoms: N_10  and  C_4 
REMARK    3  A    between atoms: C_9  and  C_5 
REMARK    4  A    between atoms: N_11  and  C_7 
ROOT
ATOM      1  C   UNL d   1      -0.231  -1.289   0.016  0.00  0.00     0.123 A 
ATOM      2  N   UNL d   1       1.079  -0.822  -0.055  0.00  0.00    -0.330 N 
ATOM      3  HN  UNL d   1       1.936  -1.372  -0.131  1.00  0.00     0.168 HD
ATOM      4  C   UNL d   1      -1.082  -0.200   0.099  0.00  0.00     0.173 A 
ATOM      5  C   UNL d   1       0.963   0.490  -0.002  0.00  0.00     0.161 A 
ATOM      6  O   UNL d   1      -0.328   0.935   0.087  0.00  0.00    -0.274 OA
ENDROOT
BRANCH   5   7
ATOM      7  C   UNL d   1       2.023   1.493  -0.031  0.00  0.00     0.015 A 
ATOM      8  C   UNL d   1       3.350   1.076  -0.230  0.00  0.00     0.016 A 
ATOM      9  C   UNL d   1       4.399   1.996  -0.247  0.00  0.00     0.001 A 
ATOM     10  C   UNL d   1       4.135   3.351  -0.063  0.00  0.00     0.000 A 
ATOM     11  C   UNL d   1       2.824   3.784   0.131  0.00  0.00     0.001 A 
ATOM     12  C   UNL d   1       1.773   2.861   0.145  0.00  0.00     0.016 A 
ENDBRANCH   5   7
BRANCH   1  13
ATOM     13  C   UNL d   1      -0.495  -2.715  -0.012  0.00  0.00     0.125 C 
ATOM     14  S   UNL d   1      -2.023  -3.357   0.045  0.00  0.00    -0.058 SA
BRANCH  13  15
ATOM     15  N   UNL d   1       0.614  -3.510  -0.100  0.00  0.00    -0.388 N 
ATOM     16  H   UNL d   1       1.531  -3.078  -0.135  0.00  0.00     0.157 HD
ATOM     17  H   UNL d   1       0.532  -4.518  -0.125  0.00  0.00     0.157 HD
ENDBRANCH  13  15
ENDBRANCH   1  13
BRANCH   4  18
ATOM     18  N   UNL d   1      -2.408  -0.022   0.182  0.00  0.00    -0.378 N 
ATOM     19  H   UNL d   1      -3.035  -0.802  -0.005  0.00  0.00     0.158 HD
ATOM     20  H   UNL d   1      -2.803   0.894   0.003  0.00  0.00     0.158 HD
ENDBRANCH   4  18
TORSDOF 4
