REMARK  2 active torsions:
REMARK  status: ('A' for Active; 'I' for Inactive)
REMARK    1  A    between atoms: C_3  and  N_1 
REMARK    2  A    between atoms: C_6  and  C_2 
ROOT
ATOM      1  N   UNL d   1      -0.672  -1.186   0.201  0.00  0.00    -0.299 N 
ATOM      2  C   UNL d   1       0.697  -1.434  -0.236  0.00  0.00     0.190 C 
ATOM      3  S   UNL d   1       1.541   0.167  -0.317  0.00  0.00    -0.129 SA
ATOM      4  C   UNL d   1      -1.076   0.150   0.238  0.00  0.00     0.235 C 
ATOM      5  C   UNL d   1       0.015   1.102  -0.194  0.00  0.00     0.179 C 
ATOM      6  O   UNL d   1      -2.198   0.567   0.515  0.00  0.00    -0.272 OA
ENDROOT
BRANCH   1   7
ATOM      7  C   UNL d   1      -1.558  -2.270   0.488  0.00  0.00     0.039 A 
ATOM      8  C   UNL d   1      -2.546  -2.146   1.477  0.00  0.00     0.038 A 
ATOM      9  C   UNL d   1      -3.365  -3.228   1.848  0.00  0.00    -0.043 A 
ATOM     10  C   UNL d   1      -4.357  -3.043   2.963  0.00  0.00     0.049 C 
ATOM     11  C   UNL d   1      -3.215  -4.447   1.174  0.00  0.00     0.017 A 
ATOM     12  C   UNL d   1      -2.252  -4.581   0.173  0.00  0.00     0.022 A 
ATOM     13 BR   UNL d   1      -4.283  -5.963   1.575  0.00  0.00    -0.051 Br
ATOM     14  C   UNL d   1      -1.425  -3.506  -0.157  0.00  0.00     0.031 A 
ENDBRANCH   1   7
BRANCH   2  15
ATOM     15  C   UNL d   1       1.466  -2.393   0.645  0.00  0.00    -0.010 A 
ATOM     16  C   UNL d   1       2.221  -3.416   0.075  0.00  0.00     0.097 A 
ATOM     17  N   UNL d   1       2.884  -4.361   0.779  0.00  0.00    -0.375 N 
ATOM     18  C   UNL d   1       2.809  -4.281   2.124  0.00  0.00     0.087 A 
ATOM     19  HN  UNL d   1       3.415  -5.099   0.316  1.00  0.00     0.164 HD
ATOM     20  C   UNL d   1       2.114  -3.292   2.797  0.00  0.00     0.018 A 
ATOM     21  C   UNL d   1       1.440  -2.333   2.046  0.00  0.00     0.013 A 
ENDBRANCH   2  15
TORSDOF 2
