REMARK  6 active torsions:
REMARK  status: ('A' for Active; 'I' for Inactive)
REMARK       I    between atoms: N_2  and  C_1 
REMARK    1  A    between atoms: C_11  and  C_1 
REMARK    2  A    between atoms: C_9  and  N_2 
REMARK    3  A    between atoms: C_3  and  C_4 
REMARK    4  A    between atoms: O_10  and  C_11 
REMARK    5  A    between atoms: C_12  and  O_10 
REMARK    6  A    between atoms: O_20  and  C_13 
ROOT
ATOM      1  C   UNL d   1       0.986   0.057  -0.083  0.00  0.00     0.246 C 
ATOM      2  N   UNL d   1       0.377  -0.572  -1.164  0.00  0.00    -0.325 N 
ATOM      3  O   UNL d   1       0.408   0.639   0.832  0.00  0.00    -0.271 OA
ATOM      4  H   UNL d   1       0.969  -1.151  -1.749  0.00  0.00     0.169 HD
ENDROOT
BRANCH   1   5
ATOM      5  C   UNL d   1       2.513  -0.018  -0.106  0.00  0.00     0.278 C 
BRANCH   5   6
ATOM      6  O   UNL d   1       3.026  -1.223   0.437  0.00  0.00    -0.342 OA
BRANCH   6   7
ATOM      7  C   UNL d   1       3.286  -1.275   1.779  0.00  0.00     0.069 A 
ATOM      8  C   UNL d   1       2.972  -0.306   2.733  0.00  0.00     0.039 A 
ATOM      9  C   UNL d   1       3.310  -0.496   4.084  0.00  0.00     0.039 A 
ATOM     10  C   UNL d   1       3.966  -1.655   4.493  0.00  0.00     0.068 A 
ATOM     11  C   UNL d   1       4.261  -2.632   3.541  0.00  0.00     0.039 A 
ATOM     12  C   UNL d   1       3.925  -2.443   2.197  0.00  0.00     0.039 A 
BRANCH  10  13
ATOM     13  O   UNL d   1       4.370  -1.954   5.763  0.00  0.00    -0.356 OA
ATOM     14  C   UNL d   1       4.133  -0.978   6.769  0.00  0.00     0.210 C 
ENDBRANCH  10  13
ENDBRANCH   6   7
ENDBRANCH   5   6
ENDBRANCH   1   5
BRANCH   2  15
ATOM     15  C   UNL d   1      -0.999  -0.542  -1.489  0.00  0.00     0.034 A 
ATOM     16  C   UNL d   1      -1.919   0.272  -0.826  0.00  0.00     0.030 A 
ATOM     17  C   UNL d   1      -3.267   0.285  -1.202  0.00  0.00     0.017 A 
ATOM     18  C   UNL d   1      -3.718  -0.512  -2.256  0.00  0.00     0.009 A 
ATOM     19  C   UNL d   1      -2.811  -1.345  -2.917  0.00  0.00     0.017 A 
ATOM     20  C   UNL d   1      -1.457  -1.352  -2.537  0.00  0.00     0.030 A 
BRANCH  18  21
ATOM     21  C   UNL d   1      -5.161  -0.429  -2.617  0.00  0.00     0.155 C 
ATOM     22  O   UNL d   1      -5.985  -0.132  -1.748  0.00  0.00    -0.293 OA
ATOM     23  C   UNL d   1      -5.588  -0.650  -4.041  0.00  0.00     0.096 C 
ENDBRANCH  18  21
ENDBRANCH   2  15
TORSDOF 6
