REMARK  5 active torsions:
REMARK  status: ('A' for Active; 'I' for Inactive)
REMARK    1  A    between atoms: N_2  and  S_1 
REMARK    2  A    between atoms: C_3  and  S_1 
REMARK    3  A    between atoms: N_8  and  N_2 
REMARK    4  A    between atoms: C_15  and  N_8 
REMARK    5  A    between atoms: C_18  and  C_10 
ROOT
ATOM      1  N   UNL d   1       2.245  -1.821  -1.194  0.00  0.00    -0.222 N 
ATOM      2  H   UNL d   1       3.008  -2.232  -1.732  0.00  0.00     0.200 HD
ENDROOT
BRANCH   1   3
ATOM      3  S   UNL d   1       2.721  -0.710  -0.013  0.00  0.00     0.276 S 
ATOM      4  O   UNL d   1       1.693   0.300   0.090  0.00  0.00    -0.199 OA
ATOM      5  O   UNL d   1       4.113  -0.395  -0.238  0.00  0.00    -0.199 OA
BRANCH   3   6
ATOM      6  C   UNL d   1       2.642  -1.717   1.455  0.00  0.00     0.082 A 
ATOM      7  C   UNL d   1       1.795  -1.356   2.506  0.00  0.00     0.050 A 
ATOM      8  C   UNL d   1       1.740  -2.157   3.650  0.00  0.00     0.057 A 
ATOM      9 CL   UNL d   1       0.681  -1.663   4.923  0.00  0.00    -0.083 Cl
ATOM     10  C   UNL d   1       2.528  -3.313   3.739  0.00  0.00     0.055 A 
ATOM     11  C   UNL d   1       3.372  -3.665   2.679  0.00  0.00     0.027 A 
ATOM     12 CL   UNL d   1       2.509  -4.344   5.124  0.00  0.00    -0.083 Cl
ATOM     13  C   UNL d   1       3.436  -2.866   1.536  0.00  0.00     0.027 A 
ENDBRANCH   3   6
ENDBRANCH   1   3
BRANCH   1  14
ATOM     14  N   UNL d   1       0.887  -2.343  -1.234  0.00  0.00    -0.291 N 
ATOM     15  H   UNL d   1       0.193  -1.840  -0.679  0.00  0.00     0.187 HD
BRANCH  14  16
ATOM     16  C   UNL d   1       0.520  -3.597  -1.741  0.00  0.00     0.048 A 
ATOM     17  C   UNL d   1       1.430  -4.428  -2.398  0.00  0.00     0.031 A 
ATOM     18  C   UNL d   1       1.057  -5.700  -2.837  0.00  0.00     0.010 A 
ATOM     19  C   UNL d   1      -0.248  -6.176  -2.648  0.00  0.00    -0.055 A 
ATOM     20  C   UNL d   1      -1.172  -5.331  -2.021  0.00  0.00     0.010 A 
ATOM     21  C   UNL d   1      -0.792  -4.056  -1.579  0.00  0.00     0.031 A 
BRANCH  19  22
ATOM     22  C   UNL d   1      -0.652  -7.566  -3.104  0.00  0.00     0.010 C 
ATOM     23  C   UNL d   1      -0.484  -7.728  -4.618  0.00  0.00     0.015 C 
ATOM     24  C   UNL d   1       0.133  -8.651  -2.359  0.00  0.00     0.015 C 
ENDBRANCH  19  22
ENDBRANCH  14  16
ENDBRANCH   1  14
TORSDOF 5
