REMARK  4 active torsions:
REMARK  status: ('A' for Active; 'I' for Inactive)
REMARK    1  A    between atoms: C_4  and  C_1 
REMARK    2  A    between atoms: O_15  and  C_2 
REMARK    3  A    between atoms: C_5  and  C_4 
REMARK    4  A    between atoms: C_8  and  C_5 
ROOT
ATOM      1  C   UNL d   1       1.801  -0.786   0.018  0.00  0.00     0.063 A 
ATOM      2  C   UNL d   1       0.618  -1.159   0.544  0.00  0.00     0.091 A 
ATOM      3  C   UNL d   1       1.889   0.487  -0.741  0.00  0.00     0.298 A 
ATOM      4  O   UNL d   1       0.775   1.318  -0.741  0.00  0.00    -0.274 OA
ATOM      5  C   UNL d   1      -0.560  -0.301   0.474  0.00  0.00     0.032 A 
ATOM      6  C   UNL d   1      -0.439   0.931  -0.154  0.00  0.00     0.092 A 
ATOM      7  O   UNL d   1       2.913   0.828  -1.325  0.00  0.00    -0.259 OA
ATOM      8  C   UNL d   1      -1.804  -0.653   1.009  0.00  0.00     0.017 A 
ATOM      9  C   UNL d   1      -1.507   1.822  -0.247  0.00  0.00     0.038 A 
ATOM     10  C   UNL d   1      -2.890   0.224   0.916  0.00  0.00     0.001 A 
ATOM     11  C   UNL d   1      -2.740   1.463   0.294  0.00  0.00     0.003 A 
ENDROOT
BRANCH   1  12
ATOM     12  C   UNL d   1       3.049  -1.647   0.174  0.00  0.00     0.098 C 
ATOM     13  C   UNL d   1       4.396  -0.927   0.264  0.00  0.00     0.023 C 
BRANCH  12  14
ATOM     14  C   UNL d   1       3.058  -2.735  -0.912  0.00  0.00     0.169 C 
ATOM     15  O   UNL d   1       2.265  -2.740  -1.851  0.00  0.00    -0.292 OA
BRANCH  14  16
ATOM     16  C   UNL d   1       3.946  -3.918  -0.735  0.00  0.00     0.032 A 
ATOM     17  C   UNL d   1       4.659  -4.477  -1.803  0.00  0.00     0.048 A 
ATOM     18  C   UNL d   1       5.393  -5.657  -1.611  0.00  0.00     0.031 A 
ATOM     19 CL   UNL d   1       4.724  -3.758  -3.372  0.00  0.00    -0.083 Cl
ATOM     20  C   UNL d   1       5.431  -6.285  -0.358  0.00  0.00    -0.060 A 
ATOM     21  C   UNL d   1       4.722  -5.721   0.704  0.00  0.00     0.008 A 
ATOM     22  C   UNL d   1       6.192  -7.566  -0.177  0.00  0.00     0.048 C 
ATOM     23  C   UNL d   1       3.981  -4.552   0.518  0.00  0.00     0.017 A 
ENDBRANCH  14  16
ENDBRANCH  12  14
ENDBRANCH   1  12
BRANCH   2  24
ATOM     24  O   UNL d   1       0.432  -2.370   1.181  0.00  0.00    -0.359 OA
ATOM     25  H   UNL d   1       0.751  -3.060   0.571  0.00  0.00     0.217 HD
ENDBRANCH   2  24
TORSDOF 4
