REMARK  7 active torsions:
REMARK  status: ('A' for Active; 'I' for Inactive)
REMARK    1  A    between atoms: C_5  and  C_1 
REMARK    2  A    between atoms: C_7  and  C_2 
REMARK    3  A    between atoms: O_18  and  C_7 
REMARK    4  A    between atoms: O_25  and  C_9 
REMARK    5  A    between atoms: C_10  and  C_11 
REMARK    6  A    between atoms: N_22  and  C_11 
REMARK    7  A    between atoms: N_12  and  O_18 
ROOT
ATOM      1  C   UNL d   1      -1.608  -1.185  -0.220  0.00  0.00     0.320 C 
ATOM      2  O   UNL d   1      -2.151  -0.119  -0.493  0.00  0.00    -0.257 OA
ENDROOT
BRANCH   1   3
ATOM      3  C   UNL d   1      -0.167  -1.310  -0.104  0.00  0.00     0.102 A 
ATOM      4  C   UNL d   1       0.666  -2.314   0.489  0.00  0.00     0.087 A 
ATOM      5  N   UNL d   1       1.960  -1.961   0.398  0.00  0.00    -0.259 N 
ATOM      6  O   UNL d   1       1.999  -0.776  -0.288  0.00  0.00    -0.241 OA
ATOM      7  HN  UNL d   1       2.758  -2.477   0.768  1.00  0.00     0.195 HD
ATOM      8  C   UNL d   1       0.739  -0.383  -0.592  0.00  0.00     0.091 A 
ATOM      9  C   UNL d   1       0.650   0.876  -1.360  0.00  0.00     0.080 C 
BRANCH   4  10
ATOM     10  C   UNL d   1       0.339  -3.572   1.161  0.00  0.00     0.037 A 
ATOM     11  C   UNL d   1       0.841  -4.796   0.667  0.00  0.00     0.048 A 
ATOM     12 CL   UNL d   1       1.716  -4.919  -0.826  0.00  0.00    -0.083 Cl
ATOM     13  C   UNL d   1       0.629  -5.996   1.359  0.00  0.00     0.025 A 
ATOM     14  C   UNL d   1      -0.106  -6.004   2.539  0.00  0.00     0.003 A 
ATOM     15  C   UNL d   1      -0.626  -4.810   3.032  0.00  0.00     0.025 A 
ATOM     16  C   UNL d   1      -0.395  -3.600   2.360  0.00  0.00     0.048 A 
ATOM     17 CL   UNL d   1      -1.018  -2.168   3.107  0.00  0.00    -0.083 Cl
ENDBRANCH   4  10
ENDBRANCH   1   3
BRANCH   1  18
ATOM     18  O   UNL d   1      -2.270  -2.378  -0.026  0.00  0.00    -0.193 OA
BRANCH  18  19
ATOM     19  N   UNL d   1      -3.667  -2.149  -0.011  0.00  0.00    -0.246 N 
ATOM     20  C   UNL d   1      -4.341  -3.258   0.007  0.00  0.00     0.109 C 
ATOM     21  HN  UNL d   1      -4.094  -1.223  -0.015  1.00  0.00     0.196 HD
BRANCH  20  22
ATOM     22  C   UNL d   1      -5.838  -3.174   0.069  0.00  0.00     0.006 A 
ATOM     23  C   UNL d   1      -6.505  -2.006  -0.325  0.00  0.00     0.036 A 
ATOM     24  C   UNL d   1      -7.902  -1.947  -0.267  0.00  0.00     0.046 A 
ATOM     25 BR   UNL d   1      -8.751  -0.337  -0.813  0.00  0.00    -0.048 Br
ATOM     26  C   UNL d   1      -8.649  -3.047   0.179  0.00  0.00     0.102 A 
ATOM     27  C   UNL d   1      -7.972  -4.195   0.615  0.00  0.00     0.046 A 
ATOM     28  C   UNL d   1      -6.578  -4.260   0.549  0.00  0.00     0.036 A 
ATOM     29 BR   UNL d   1      -8.882  -5.688   1.358  0.00  0.00    -0.048 Br
BRANCH  26  30
ATOM     30  O   UNL d   1     -10.013  -2.940   0.272  0.00  0.00    -0.353 OA
ATOM     31  C   UNL d   1     -10.686  -3.674  -0.753  0.00  0.00     0.210 C 
ENDBRANCH  26  30
ENDBRANCH  20  22
BRANCH  20  32
ATOM     32  N   UNL d   1      -3.747  -4.500  -0.042  0.00  0.00    -0.286 NA
ATOM     33  H   UNL d   1      -4.249  -5.202  -0.576  0.00  0.00     0.125 HD
ATOM     34  H   UNL d   1      -2.773  -4.448  -0.320  0.00  0.00     0.125 HD
ENDBRANCH  20  32
ENDBRANCH  18  19
ENDBRANCH   1  18
TORSDOF 7
