REMARK  2 active torsions:
REMARK  status: ('A' for Active; 'I' for Inactive)
REMARK    1  A    between atoms: N_2  and  C_1 
REMARK    2  A    between atoms: C_8  and  C_3 
ROOT
ATOM      1  C   UNL d   1       1.823  -0.027  -0.470  0.00  0.00     0.183 C 
ATOM      2  C   UNL d   1       1.076   1.252  -0.080  0.00  0.00     0.146 C 
ATOM      3  N   UNL d   1      -0.370   1.098   0.005  0.00  0.00    -0.350 N 
ATOM      4  C   UNL d   1      -1.018  -0.065   0.303  0.00  0.00     0.218 C 
ATOM      5  C   UNL d   1       1.238  -1.239   0.252  0.00  0.00     0.043 C 
ATOM      6  O   UNL d   1      -2.193  -0.041   0.657  0.00  0.00    -0.274 OA
ATOM      7  C   UNL d   1      -0.272  -1.362   0.078  0.00  0.00     0.105 C 
ATOM      8  H   UNL d   1      -0.928   1.918   0.223  0.00  0.00     0.163 HD
ENDROOT
BRANCH   2   9
ATOM      9  C   UNL d   1       1.510   2.518  -0.810  0.00  0.00    -0.033 A 
ATOM     10  C   UNL d   1       0.634   3.246  -1.633  0.00  0.00     0.011 A 
ATOM     11  C   UNL d   1       1.049   4.429  -2.254  0.00  0.00     0.024 A 
ATOM     12  C   UNL d   1       2.351   4.885  -2.079  0.00  0.00     0.034 A 
ATOM     13  C   UNL d   1       3.244   4.166  -1.289  0.00  0.00     0.024 A 
ATOM     14 CL   UNL d   1       2.859   6.343  -2.836  0.00  0.00    -0.084 Cl
ATOM     15  C   UNL d   1       2.825   2.993  -0.655  0.00  0.00     0.011 A 
ENDBRANCH   2   9
BRANCH   1  16
ATOM     16  N   UNL d   1       1.799  -0.272  -1.958  0.00  0.00    -0.148 N 
ATOM     17  O   UNL d   1       0.745  -0.075  -2.576  0.00  0.00    -0.536 OA
ATOM     18  O   UNL d   1       2.844  -0.708  -2.454  0.00  0.00    -0.536 OA
ENDBRANCH   1  16
TORSDOF 2
