REMARK  1 active torsions:
REMARK  status: ('A' for Active; 'I' for Inactive)
REMARK    1  A    between atoms: C_3  and  N_1 
ROOT
ATOM      1  C   UNL d   1       2.485  -2.619  -0.357  0.00  0.00     0.117 C 
ATOM      2  C   UNL d   1       2.627  -3.823  -1.351  0.00  0.00     0.019 C 
ATOM      3  C   UNL d   1       1.114  -4.591   0.145  0.00  0.00    -0.007 C 
ATOM      4  C   UNL d   1       3.376  -4.913  -0.538  0.00  0.00     0.018 C 
ATOM      5  C   UNL d   1       1.613  -3.265   0.772  0.00  0.00     0.033 C 
ATOM      6  C   UNL d   1       1.149  -4.263  -1.370  0.00  0.00     0.012 C 
ATOM      7  C   UNL d   1       2.184  -5.668   0.077  0.00  0.00     0.001 C 
ATOM      8  C   UNL d   1       4.205  -6.116  -0.819  0.00  0.00    -0.025 C 
ATOM      9  C   UNL d   1       3.989  -7.005   0.179  0.00  0.00    -0.030 C 
ATOM     10  C   UNL d   1       2.844  -6.563   1.092  0.00  0.00     0.032 C 
ENDROOT
BRANCH   1  11
ATOM     11  N   UNL d   1       1.895  -1.439  -0.991  0.00  0.00    -0.245 N 
ATOM     12  C   UNL d   1       2.426  -0.603  -1.952  0.00  0.00     0.210 A 
ATOM     13  N   UNL d   1       1.387   0.238  -2.262  0.00  0.00    -0.259 N 
ATOM     14  S   UNL d   1       3.929  -0.554  -2.637  0.00  0.00    -0.038 SA
ATOM     15  N   UNL d   1       0.296  -0.085  -1.523  0.00  0.00    -0.226 N 
ATOM     16  H   UNL d   1       1.366   0.972  -2.953  0.00  0.00     0.191 HD
ATOM     17  N   UNL d   1       0.584  -1.065  -0.776  0.00  0.00    -0.223 N 
ATOM     18  HN  UNL d   1      -0.609   0.384  -1.564  1.00  0.00     0.210 HD
ATOM     19  HN  UNL d   1      -0.054  -1.510  -0.116  1.00  0.00     0.210 HD
ENDBRANCH   1  11
TORSDOF 1
