REMARK  1 active torsions:
REMARK  status: ('A' for Active; 'I' for Inactive)
REMARK    1  A    between atoms: C_8  and  C_1 
ROOT
ATOM      1  C   UNL d   1      -1.239  -0.760   0.001  0.00  0.00     0.144 A 
ATOM      2  N   UNL d   1      -1.014   0.161  -0.953  0.00  0.00    -0.269 N 
ATOM      3  HN  UNL d   1      -1.563   0.394  -1.780  1.00  0.00     0.190 HD
ATOM      4  N   UNL d   1      -0.254  -0.774   0.962  0.00  0.00    -0.266 N 
ATOM      5  HN  UNL d   1      -0.210  -1.383   1.779  1.00  0.00     0.186 HD
ATOM      6  N   UNL d   1       0.627   0.157   0.624  0.00  0.00    -0.003 NA
ATOM      7  N   UNL d   1       0.140   0.687  -0.508  0.00  0.00    -0.221 N 
ATOM      8  C   UNL d   1       0.826   1.743  -1.201  0.00  0.00     0.197 C 
ENDROOT
BRANCH   1   9
ATOM      9  C   UNL d   1      -2.389  -1.653   0.031  0.00  0.00     0.014 A 
ATOM     10  C   UNL d   1      -3.352  -1.614  -0.988  0.00  0.00     0.039 A 
ATOM     11  C   UNL d   1      -4.449  -2.475  -0.953  0.00  0.00     0.036 A 
ATOM     12 CL   UNL d   1      -5.620  -2.416  -2.213  0.00  0.00    -0.084 Cl
ATOM     13  C   UNL d   1      -4.607  -3.382   0.091  0.00  0.00     0.047 A 
ATOM     14  C   UNL d   1      -3.654  -3.422   1.105  0.00  0.00     0.036 A 
ATOM     15  C   UNL d   1      -2.551  -2.568   1.082  0.00  0.00     0.039 A 
ATOM     16 CL   UNL d   1      -3.839  -4.539   2.401  0.00  0.00    -0.084 Cl
ENDBRANCH   1   9
TORSDOF 1
