REMARK  3 active torsions:
REMARK  status: ('A' for Active; 'I' for Inactive)
REMARK       I    between atoms: N_2  and  C_1 
REMARK       I    between atoms: N_12  and  C_1 
REMARK    1  A    between atoms: C_8  and  N_4 
REMARK    2  A    between atoms: C_10  and  C_9 
REMARK    3  A    between atoms: C_13  and  C_11 
ROOT
ATOM      1  C   UNL d   1       0.922   0.078   0.193  0.00  0.00     0.163 C 
ATOM      2  N   UNL d   1       0.173   0.805   1.085  0.00  0.00    -0.277 N 
ATOM      3  HN  UNL d   1      -0.843   0.738   1.156  1.00  0.00     0.189 HD
ATOM      4  N   UNL d   1       0.868   1.558   1.801  0.00  0.00    -0.310 N 
ATOM      5  HN  UNL d   1       1.880   1.632   1.704  1.00  0.00     0.186 HD
ATOM      6  N   UNL d   1       0.272  -0.602  -0.691  0.00  0.00    -0.375 N 
ATOM      7  HN  UNL d   1       0.667  -1.178  -1.435  1.00  0.00     0.158 HD
ATOM      8  N   UNL d   1       2.279   0.042   0.158  0.00  0.00    -0.273 NA
ATOM      9  H   UNL d   1      -0.723  -0.446  -0.494  0.00  0.00     0.158 HD
ATOM     10  H   UNL d   1       2.712   0.884   0.513  0.00  0.00     0.127 HD
ATOM     11  H   UNL d   1       2.621  -0.264  -0.744  0.00  0.00     0.127 HD
ENDROOT
BRANCH   4  12
ATOM     12  C   UNL d   1       0.157   2.275   2.726  0.00  0.00     0.107 C 
ATOM     13  C   UNL d   1       0.754   3.050   3.642  0.00  0.00     0.019 C 
BRANCH  13  14
ATOM     14  C   UNL d   1       0.033   3.797   4.650  0.00  0.00     0.002 C 
ATOM     15  C   UNL d   1       0.657   4.546   5.573  0.00  0.00     0.011 C 
BRANCH  15  16
ATOM     16  C   UNL d   1      -0.010   5.295   6.651  0.00  0.00    -0.036 A 
ATOM     17  C   UNL d   1      -1.209   4.869   7.238  0.00  0.00     0.011 A 
ATOM     18  C   UNL d   1      -1.771   5.574   8.307  0.00  0.00     0.001 A 
ATOM     19  C   UNL d   1      -1.135   6.707   8.808  0.00  0.00     0.000 A 
ATOM     20  C   UNL d   1       0.061   7.138   8.240  0.00  0.00     0.001 A 
ATOM     21  C   UNL d   1       0.621   6.434   7.171  0.00  0.00     0.011 A 
ENDBRANCH  15  16
ENDBRANCH  13  14
ENDBRANCH   4  12
TORSDOF 3
