REMARK  6 active torsions:
REMARK  status: ('A' for Active; 'I' for Inactive)
REMARK    1  A    between atoms: N_4  and  C_1 
REMARK    2  A    between atoms: C_8  and  C_2 
REMARK    3  A    between atoms: C_3  and  C_5 
REMARK       I    between atoms: C_5  and  N_4 
REMARK    4  A    between atoms: O_19  and  C_8 
REMARK    5  A    between atoms: C_17  and  C_9 
REMARK    6  A    between atoms: C_25  and  O_19 
ROOT
ATOM      1  C   UNL d   1       3.701   0.429   1.509  0.00  0.00     0.113 C 
ATOM      2  C   UNL d   1       4.857  -0.026   2.039  0.00  0.00     0.039 C 
ATOM      3  C   UNL d   1       3.282   1.775   1.628  0.00  0.00     0.105 C 
ATOM      4  N   UNL d   1       2.929   2.882   1.681  0.00  0.00    -0.191 NA
ENDROOT
BRANCH   1   5
ATOM      5  C   UNL d   1       2.829  -0.596   0.838  0.00  0.00     0.267 C 
ATOM      6  N   UNL d   1       1.545  -0.186   0.482  0.00  0.00    -0.316 N 
ATOM      7  H   UNL d   1       1.304   0.804   0.470  0.00  0.00     0.170 HD
ATOM      8  O   UNL d   1       3.302  -1.714   0.633  0.00  0.00    -0.267 OA
BRANCH   6   9
ATOM      9  C   UNL d   1       0.623  -1.020  -0.154  0.00  0.00     0.093 C 
ATOM     10  C   UNL d   1      -0.484  -0.676  -0.927  0.00  0.00     0.079 C 
ATOM     11  C   UNL d   1      -0.886  -1.832  -1.720  0.00  0.00    -0.036 C 
ATOM     12  C   UNL d   1      -1.716  -1.830  -2.962  0.00  0.00     0.050 C 
ATOM     13  C   UNL d   1      -0.391  -3.001  -1.175  0.00  0.00     0.059 C 
ATOM     14  S   UNL d   1       0.697  -2.708   0.089  0.00  0.00    -0.083 SA
BRANCH  10  15
ATOM     15  C   UNL d   1      -1.048   0.679  -0.971  0.00  0.00     0.296 C 
ATOM     16  O   UNL d   1      -0.570   1.618  -0.345  0.00  0.00    -0.259 OA
BRANCH  15  17
ATOM     17  O   UNL d   1      -2.209   0.740  -1.685  0.00  0.00    -0.318 OA
BRANCH  17  18
ATOM     18  C   UNL d   1      -3.025   1.915  -1.553  0.00  0.00     0.174 C 
ATOM     19  C   UNL d   1      -2.531   3.054  -2.423  0.00  0.00     0.034 C 
ENDBRANCH  17  18
ENDBRANCH  15  17
ENDBRANCH  10  15
ENDBRANCH   6   9
ENDBRANCH   1   5
BRANCH   2  20
ATOM     20  C   UNL d   1       5.742   0.700   2.955  0.00  0.00    -0.035 A 
ATOM     21  C   UNL d   1       5.819   0.224   4.268  0.00  0.00     0.013 A 
ATOM     22  C   UNL d   1       6.610   0.870   5.219  0.00  0.00     0.023 A 
ATOM     23  C   UNL d   1       7.346   2.003   4.859  0.00  0.00     0.044 A 
ATOM     24  C   UNL d   1       8.151   2.674   5.837  0.00  0.00     0.099 C 
ATOM     25  C   UNL d   1       7.292   2.469   3.540  0.00  0.00     0.023 A 
ATOM     26  N   UNL d   1       8.803   3.213   6.630  0.00  0.00    -0.191 NA
ATOM     27  C   UNL d   1       6.497   1.822   2.587  0.00  0.00     0.013 A 
ENDBRANCH   2  20
TORSDOF 6
