REMARK  3 active torsions:
REMARK  status: ('A' for Active; 'I' for Inactive)
REMARK    1  A    between atoms: N_11  and  C_3 
REMARK    2  A    between atoms: N_19  and  C_6 
REMARK    3  A    between atoms: C_16  and  N_11 
ROOT
ATOM      1  N   UNL d   1      -3.764   1.359  -1.264  0.00  0.00    -0.166 N 
ATOM      2  HN  UNL d   1      -4.467   0.624  -1.350  1.00  0.00     0.187 HD
ATOM      3  C   UNL d   1      -2.642   1.174  -0.576  0.00  0.00     0.685 A 
ATOM      4  N   UNL d   1      -1.716   2.115  -0.418  0.00  0.00    -0.188 N 
ATOM      5  HN  UNL d   1      -0.868   1.967   0.129  1.00  0.00     0.185 HD
ATOM      6  C   UNL d   1      -3.924   2.540  -1.833  0.00  0.00     0.170 A 
ATOM      7  N   UNL d   1      -3.071   3.544  -1.740  0.00  0.00    -0.328 N 
ATOM      8  HN  UNL d   1      -3.233   4.453  -2.175  1.00  0.00     0.169 HD
ATOM      9  C   UNL d   1      -1.983   3.265  -1.031  0.00  0.00     0.200 A 
ENDROOT
BRANCH   3  10
ATOM     10  N   UNL d   1      -2.403  -0.036   0.075  0.00  0.00    -0.192 N 
ATOM     11  H   UNL d   1      -1.564   0.014   0.633  0.00  0.00     0.184 HD
BRANCH  10  12
ATOM     12  C   UNL d   1      -3.044  -1.280  -0.020  0.00  0.00     0.052 A 
ATOM     13  C   UNL d   1      -3.917  -1.607  -1.068  0.00  0.00     0.069 A 
ATOM     14  C   UNL d   1      -4.568  -2.821  -1.043  0.00  0.00     0.107 A 
ATOM     15  O   UNL d   1      -5.435  -3.274  -1.989  0.00  0.00    -0.323 OA
ATOM     16  C   UNL d   1      -4.396  -3.715  -0.016  0.00  0.00     0.105 A 
ATOM     17  C   UNL d   1      -5.775  -4.565  -1.446  0.00  0.00     0.352 A 
ATOM     18  O   UNL d   1      -5.137  -4.842  -0.181  0.00  0.00    -0.323 OA
ATOM     19  C   UNL d   1      -3.557  -3.440   1.039  0.00  0.00     0.042 A 
ATOM     20  C   UNL d   1      -2.881  -2.213   1.033  0.00  0.00     0.033 A 
ENDBRANCH  10  12
ENDBRANCH   3  10
BRANCH   6  21
ATOM     21  N   UNL d   1      -5.093   2.743  -2.536  0.00  0.00    -0.273 NA
ATOM     22  H   UNL d   1      -5.800   2.094  -2.214  0.00  0.00     0.127 HD
ATOM     23  H   UNL d   1      -5.336   3.723  -2.543  0.00  0.00     0.127 HD
ENDBRANCH   6  21
TORSDOF 3
