REMARK  2 active torsions:
REMARK  status: ('A' for Active; 'I' for Inactive)
REMARK    1  A    between atoms: C_13  and  C_7 
REMARK    2  A    between atoms: C_14  and  C_8 
ROOT
ATOM      1  N   UNL d   1       1.073   1.387   0.077  0.00  0.00    -0.356 N 
ATOM      2  HN  UNL d   1       1.005   2.405   0.047  1.00  0.00     0.166 HD
ATOM      3  N   UNL d   1       1.260  -1.412   0.113  0.00  0.00    -0.356 N 
ATOM      4  HN  UNL d   1       1.328  -2.430   0.110  1.00  0.00     0.166 HD
ATOM      5  C   UNL d   1      -0.019   0.621   0.089  0.00  0.00     0.060 A 
ATOM      6  C   UNL d   1       0.052  -0.783   0.109  0.00  0.00     0.060 A 
ATOM      7  C   UNL d   1       2.272   0.766   0.104  0.00  0.00     0.032 A 
ATOM      8  C   UNL d   1       2.378  -0.628   0.122  0.00  0.00     0.032 A 
ATOM      9  C   UNL d   1      -1.242   1.270   0.114  0.00  0.00     0.039 A 
ATOM     10  C   UNL d   1      -1.161  -1.479   0.140  0.00  0.00     0.039 A 
ATOM     11  C   UNL d   1      -2.452   0.578   0.184  0.00  0.00    -0.054 A 
ATOM     12  C   UNL d   1      -2.416  -0.824   0.200  0.00  0.00    -0.054 A 
ATOM     13  C   UNL d   1      -3.721   1.375   0.287  0.00  0.00     0.049 C 
ATOM     14  C   UNL d   1      -3.663  -1.660   0.292  0.00  0.00     0.049 C 
ENDROOT
BRANCH   7  15
ATOM     15  C   UNL d   1       3.439   1.714   0.087  0.00  0.00     0.054 C 
ATOM     16  C   UNL d   1       3.765   2.151  -1.332  0.00  0.00     0.011 C 
ENDBRANCH   7  15
BRANCH   8  17
ATOM     17  C   UNL d   1       3.743  -1.282   0.181  0.00  0.00     0.054 C 
ATOM     18  C   UNL d   1       3.796  -2.798   0.218  0.00  0.00     0.011 C 
ENDBRANCH   8  17
TORSDOF 2
