REMARK  3 active torsions:
REMARK  status: ('A' for Active; 'I' for Inactive)
REMARK    1  A    between atoms: C_7  and  C_3 
REMARK    2  A    between atoms: O_17  and  C_13 
REMARK    3  A    between atoms: O_20  and  C_15 
ROOT
ATOM      1  C   UNL d   1       1.283   0.325   0.020  0.00  0.00     0.058 C 
ATOM      2  C   UNL d   1      -1.279   0.337   0.008  0.00  0.00     0.058 C 
ATOM      3  C   UNL d   1       0.006   1.152  -0.136  0.00  0.00     0.110 C 
ATOM      4  N   UNL d   1      -0.007  -1.667  -0.037  0.00  0.00    -0.361 N 
ATOM      5  C   UNL d   1      -1.229  -1.015   0.019  0.00  0.00     0.023 C 
ATOM      6  C   UNL d   1       1.220  -1.028   0.036  0.00  0.00     0.023 C 
ATOM      7  C   UNL d   1      -2.512   1.046   0.131  0.00  0.00     0.098 C 
ATOM      8  C   UNL d   1       2.522   1.022   0.145  0.00  0.00     0.098 C 
ATOM      9  N   UNL d   1       3.523   1.593   0.268  0.00  0.00    -0.192 NA
ATOM     10  N   UNL d   1      -3.510   1.625   0.256  0.00  0.00    -0.192 NA
ATOM     11  C   UNL d   1      -2.466  -1.876   0.080  0.00  0.00     0.069 C 
ATOM     12  C   UNL d   1       2.448  -1.899   0.121  0.00  0.00     0.069 C 
ATOM     13  H   UNL d   1      -0.012  -2.683   0.029  0.00  0.00     0.165 HD
ENDROOT
BRANCH   3  14
ATOM     14  C   UNL d   1       0.021   1.898  -1.472  0.00  0.00    -0.041 A 
ATOM     15  C   UNL d   1       0.083   3.301  -1.497  0.00  0.00     0.047 A 
ATOM     16  C   UNL d   1       0.134   4.014  -2.708  0.00  0.00     0.102 A 
ATOM     17  C   UNL d   1       0.102   3.300  -3.919  0.00  0.00     0.101 A 
ATOM     18  C   UNL d   1       0.033   1.900  -3.891  0.00  0.00     0.040 A 
ATOM     19  C   UNL d   1      -0.003   1.203  -2.687  0.00  0.00     0.011 A 
BRANCH  16  20
ATOM     20  O   UNL d   1       0.221   5.379  -2.756  0.00  0.00    -0.353 OA
ATOM     21  C   UNL d   1       0.262   6.100  -1.532  0.00  0.00     0.210 C 
ENDBRANCH  16  20
BRANCH  17  22
ATOM     22  O   UNL d   1       0.128   3.780  -5.203  0.00  0.00    -0.353 OA
ATOM     23  C   UNL d   1       0.211   5.181  -5.410  0.00  0.00     0.210 C 
ENDBRANCH  17  22
ENDBRANCH   3  14
TORSDOF 3
