REMARK  4 active torsions:
REMARK  status: ('A' for Active; 'I' for Inactive)
REMARK    1  A    between atoms: C_6  and  C_1 
REMARK    2  A    between atoms: C_12  and  C_3 
REMARK    3  A    between atoms: S_15  and  C_5 
REMARK       I    between atoms: N_7  and  C_6 
REMARK    4  A    between atoms: C_9  and  N_7 
ROOT
ATOM      1  C   UNL d   1       1.118  -0.860   0.086  0.00  0.00     0.086 C 
ATOM      2  C   UNL d   1      -0.580   0.732   0.285  0.00  0.00     0.081 C 
ATOM      3  C   UNL d   1      -0.266  -0.681   0.126  0.00  0.00     0.019 C 
ATOM      4  S   UNL d   1       1.847   0.628  -0.409  0.00  0.00    -0.075 SA
ATOM      5  C   UNL d   1       0.478   1.553  -0.000  0.00  0.00     0.063 C 
ATOM      6  C   UNL d   1      -1.883   1.267   0.644  0.00  0.00     0.102 C 
ATOM      7  N   UNL d   1      -2.938   1.680   0.920  0.00  0.00    -0.191 NA
ENDROOT
BRANCH   3   8
ATOM      8  C   UNL d   1      -1.317  -1.712   0.207  0.00  0.00    -0.023 C 
ATOM      9  C   UNL d   1      -2.534  -1.429  -0.449  0.00  0.00     0.014 C 
ATOM     10  C   UNL d   1      -3.740  -1.914   0.056  0.00  0.00     0.024 C 
ATOM     11  C   UNL d   1      -3.719  -2.793   1.129  0.00  0.00     0.034 C 
ATOM     12  C   UNL d   1      -2.501  -3.269   1.622  0.00  0.00     0.024 C 
ATOM     13 CL   UNL d   1      -5.192  -3.229   1.901  0.00  0.00    -0.084 Cl
ATOM     14  C   UNL d   1      -1.292  -2.730   1.161  0.00  0.00     0.014 C 
ENDBRANCH   3   8
BRANCH   5  15
ATOM     15  S   UNL d   1       0.380   3.316  -0.056  0.00  0.00    -0.126 SA
ATOM     16  C   UNL d   1       2.076   3.872   0.107  0.00  0.00     0.096 C 
ENDBRANCH   5  15
BRANCH   1  17
ATOM     17  C   UNL d   1       1.937  -2.073   0.102  0.00  0.00     0.264 C 
ATOM     18  N   UNL d   1       3.098  -2.228   0.868  0.00  0.00    -0.320 N 
ATOM     19  H   UNL d   1       3.328  -3.221   0.857  0.00  0.00     0.169 HD
ATOM     20  O   UNL d   1       1.601  -3.080  -0.532  0.00  0.00    -0.267 OA
BRANCH  18  21
ATOM     21  C   UNL d   1       3.482  -1.585   2.071  0.00  0.00     0.074 C 
ATOM     22  C   UNL d   1       3.744  -2.395   3.190  0.00  0.00     0.146 C 
ATOM     23  C   UNL d   1       4.048  -1.853   4.437  0.00  0.00     0.086 C 
ATOM     24  F   UNL d   1       3.675  -3.729   3.068  0.00  0.00    -0.204 F 
ATOM     25  C   UNL d   1       4.141  -0.477   4.560  0.00  0.00     0.119 C 
ATOM     26  C   UNL d   1       4.013   0.343   3.446  0.00  0.00     0.044 C 
ATOM     27  F   UNL d   1       4.385   0.069   5.757  0.00  0.00    -0.206 F 
ATOM     28  C   UNL d   1       3.712  -0.217   2.198  0.00  0.00     0.036 C 
ENDBRANCH  18  21
ENDBRANCH   1  17
TORSDOF 4
