REMARK  3 active torsions:
REMARK  status: ('A' for Active; 'I' for Inactive)
REMARK    1  A    between atoms: C_2  and  C_1 
REMARK       I    between atoms: N_6  and  C_1 
REMARK    2  A    between atoms: C_3  and  C_4 
REMARK       I    between atoms: C_4  and  N_5 
REMARK    3  A    between atoms: N_5  and  C_7 
ROOT
ATOM      1  C   UNL d   1      -0.232   1.003  -1.168  0.00  0.00     0.059 A 
ATOM      2  C   UNL d   1       0.464   0.834  -2.382  0.00  0.00     0.050 A 
ATOM      3  C   UNL d   1      -1.370   1.833  -1.141  0.00  0.00     0.019 A 
ATOM      4  C   UNL d   1      -0.066   1.431  -3.544  0.00  0.00     0.030 A 
ATOM      5  C   UNL d   1      -1.893   2.386  -2.306  0.00  0.00     0.001 A 
ATOM      6  C   UNL d   1      -1.247   2.169  -3.515  0.00  0.00     0.002 A 
ENDROOT
BRANCH   1   7
ATOM      7  C   UNL d   1       0.265   0.531   0.150  0.00  0.00     0.256 C 
ATOM      8  N   UNL d   1      -0.606  -0.160   1.009  0.00  0.00    -0.346 N 
ATOM      9  C   UNL d   1      -1.917  -0.717   0.642  0.00  0.00     0.136 C 
ATOM     10  C   UNL d   1      -0.056  -0.694   2.259  0.00  0.00     0.136 C 
ATOM     11  C   UNL d   1      -1.864  -2.219   0.366  0.00  0.00     0.093 C 
ATOM     12  S   UNL d   1      -1.312  -3.152   1.832  0.00  0.00    -0.166 SA
ATOM     13  C   UNL d   1       0.213  -2.200   2.178  0.00  0.00     0.093 C 
ATOM     14  O   UNL d   1       1.418   0.834   0.455  0.00  0.00    -0.267 OA
ENDBRANCH   1   7
BRANCH   2  15
ATOM     15  N   UNL d   1       1.704   0.190  -2.584  0.00  0.00    -0.322 N 
ATOM     16  C   UNL d   1       2.253  -0.878  -1.882  0.00  0.00     0.277 C 
ATOM     17  O   UNL d   1       1.594  -1.581  -1.115  0.00  0.00    -0.268 OA
ATOM     18  H   UNL d   1       2.200   0.444  -3.433  0.00  0.00     0.169 HD
BRANCH  16  19
ATOM     19  C   UNL d   1       3.760  -1.139  -2.187  0.00  0.00     0.269 C 
ATOM     20 CL   UNL d   1       4.197  -0.482  -3.809  0.00  0.00    -0.073 Cl
ATOM     21 CL   UNL d   1       4.750  -0.330  -0.952  0.00  0.00    -0.073 Cl
ATOM     22 CL   UNL d   1       4.083  -2.891  -2.204  0.00  0.00    -0.073 Cl
ENDBRANCH  16  19
ENDBRANCH   2  15
TORSDOF 3
