REMARK  5 active torsions:
REMARK  status: ('A' for Active; 'I' for Inactive)
REMARK    1  A    between atoms: C_2  and  S_1 
REMARK    2  A    between atoms: N_5  and  S_1 
REMARK    3  A    between atoms: C_3  and  C_6 
REMARK    4  A    between atoms: C_4  and  C_7 
REMARK    5  A    between atoms: C_8  and  N_5 
ROOT
ATOM      1  C   UNL d   1       2.482   1.250  -4.138  0.00  0.00     0.050 A 
ATOM      2  C   UNL d   1       0.142   1.040  -4.812  0.00  0.00     0.050 A 
ATOM      3  C   UNL d   1       0.888   0.125  -2.692  0.00  0.00     0.044 A 
ATOM      4  C   UNL d   1       1.454   1.477  -5.066  0.00  0.00     0.032 A 
ATOM      5  C   UNL d   1      -0.127   0.347  -3.620  0.00  0.00     0.046 A 
ATOM      6  C   UNL d   1       2.182   0.574  -2.946  0.00  0.00     0.046 A 
ENDROOT
BRANCH   3   7
ATOM      7  N   UNL d   1       0.582  -0.457  -1.441  0.00  0.00    -0.281 N 
ATOM      8  H   UNL d   1       0.632   0.102  -0.589  0.00  0.00     0.179 HD
BRANCH   7   9
ATOM      9  S   UNL d   1       0.534  -2.117  -1.218  0.00  0.00     0.265 S 
ATOM     10  O   UNL d   1       0.280  -2.355   0.188  0.00  0.00    -0.200 OA
ATOM     11  O   UNL d   1      -0.336  -2.670  -2.231  0.00  0.00    -0.200 OA
BRANCH   9  12
ATOM     12  C   UNL d   1       2.183  -2.669  -1.557  0.00  0.00     0.103 A 
ATOM     13  C   UNL d   1       2.360  -3.632  -2.564  0.00  0.00     0.050 A 
ATOM     14  C   UNL d   1       3.640  -4.079  -2.879  0.00  0.00     0.035 A 
ATOM     15 CL   UNL d   1       3.857  -5.255  -4.114  0.00  0.00    -0.084 Cl
ATOM     16  C   UNL d   1       4.749  -3.577  -2.202  0.00  0.00     0.025 A 
ATOM     17  C   UNL d   1       4.570  -2.633  -1.186  0.00  0.00     0.027 A 
ATOM     18  C   UNL d   1       3.288  -2.184  -0.849  0.00  0.00     0.057 A 
ATOM     19 CL   UNL d   1       3.185  -1.021   0.423  0.00  0.00    -0.083 Cl
ENDBRANCH   9  12
ENDBRANCH   7   9
ENDBRANCH   3   7
BRANCH   2  20
ATOM     20  C   UNL d   1      -0.980   1.349  -5.777  0.00  0.00     0.417 C 
ATOM     21  F   UNL d   1      -0.571   2.062  -6.864  0.00  0.00    -0.166 F 
ATOM     22  F   UNL d   1      -1.577   0.231  -6.266  0.00  0.00    -0.166 F 
ATOM     23  F   UNL d   1      -1.966   2.088  -5.200  0.00  0.00    -0.166 F 
ENDBRANCH   2  20
BRANCH   1  24
ATOM     24  C   UNL d   1       3.886   1.751  -4.376  0.00  0.00     0.417 C 
ATOM     25  F   UNL d   1       4.026   2.456  -5.531  0.00  0.00    -0.166 F 
ATOM     26  F   UNL d   1       4.312   2.574  -3.378  0.00  0.00    -0.166 F 
ATOM     27  F   UNL d   1       4.793   0.738  -4.437  0.00  0.00    -0.166 F 
ENDBRANCH   1  24
TORSDOF 5
