REMARK  5 active torsions:
REMARK  status: ('A' for Active; 'I' for Inactive)
REMARK    1  A    between atoms: O_5  and  C_1 
REMARK    2  A    between atoms: C_8  and  O_5 
REMARK    3  A    between atoms: C_18  and  C_8 
REMARK    4  A    between atoms: C_11  and  O_14 
REMARK    5  A    between atoms: O_14  and  C_18 
ROOT
ATOM      1  C   UNL d   1      -2.887   1.429   2.669  0.00  0.00     0.114 A 
ATOM      2  C   UNL d   1      -1.530   1.189   2.915  0.00  0.00     0.047 A 
ATOM      3  C   UNL d   1      -3.861   0.879   3.515  0.00  0.00     0.047 A 
ATOM      4  N   UNL d   1      -1.395  -1.225   7.111  0.00  0.00    -0.191 NA
ATOM      5  C   UNL d   1      -1.724  -0.727   6.114  0.00  0.00     0.099 C 
ATOM      6  C   UNL d   1      -2.126  -0.077   4.902  0.00  0.00     0.047 A 
ATOM      7  C   UNL d   1      -3.482   0.133   4.634  0.00  0.00     0.044 A 
ATOM      8  C   UNL d   1      -1.156   0.422   4.024  0.00  0.00     0.044 A 
ATOM      9 BR   UNL d   1      -0.135   1.978   1.903  0.00  0.00    -0.048 Br
ATOM     10 BR   UNL d   1      -5.711   1.194   3.234  0.00  0.00    -0.048 Br
ENDROOT
BRANCH   1  11
ATOM     11  O   UNL d   1      -3.316   2.441   1.782  0.00  0.00    -0.274 OA
BRANCH  11  12
ATOM     12  C   UNL d   1      -3.082   2.414   0.407  0.00  0.00     0.288 C 
ATOM     13  O   UNL d   1      -2.587   1.510  -0.241  0.00  0.00    -0.262 OA
BRANCH  12  14
ATOM     14  C   UNL d   1      -3.547   3.767  -0.136  0.00  0.00     0.287 C 
BRANCH  14  15
ATOM     15  O   UNL d   1      -4.969   3.743  -0.139  0.00  0.00    -0.340 OA
BRANCH  15  16
ATOM     16  C   UNL d   1      -5.629   4.940  -0.231  0.00  0.00     0.091 A 
ATOM     17  C   UNL d   1      -6.819   4.964  -0.973  0.00  0.00     0.069 A 
ATOM     18  C   UNL d   1      -7.599   6.119  -1.037  0.00  0.00     0.050 A 
ATOM     19 CL   UNL d   1      -7.365   3.569  -1.835  0.00  0.00    -0.081 Cl
ATOM     20  C   UNL d   1      -7.199   7.255  -0.343  0.00  0.00     0.035 A 
ATOM     21  C   UNL d   1      -6.024   7.244   0.409  0.00  0.00     0.026 A 
ATOM     22 CL   UNL d   1      -8.165   8.677  -0.394  0.00  0.00    -0.084 Cl
ATOM     23  C   UNL d   1      -5.241   6.086   0.469  0.00  0.00     0.040 A 
ENDBRANCH  15  16
ENDBRANCH  14  15
ENDBRANCH  12  14
ENDBRANCH  11  12
ENDBRANCH   1  11
TORSDOF 5
