REMARK  4 active torsions:
REMARK  status: ('A' for Active; 'I' for Inactive)
REMARK    1  A    between atoms: C_2  and  N_1 
REMARK    2  A    between atoms: C_6  and  C_3 
REMARK    3  A    between atoms: O_9  and  C_4 
REMARK    4  A    between atoms: O_10  and  C_8 
ROOT
ATOM      1  C   UNL d   1      -0.842  -0.830  -3.858  0.00  0.00     0.111 A 
ATOM      2  C   UNL d   1       0.228  -1.573  -3.308  0.00  0.00     0.002 A 
ATOM      3  C   UNL d   1      -1.455  -1.317  -5.039  0.00  0.00     0.102 A 
ATOM      4  C   UNL d   1       0.015  -3.243  -5.079  0.00  0.00     0.004 A 
ATOM      5  C   UNL d   1       0.638  -2.773  -3.932  0.00  0.00     0.014 A 
ATOM      6  C   UNL d   1      -1.033  -2.518  -5.626  0.00  0.00     0.040 A 
ENDROOT
BRANCH   2   7
ATOM      7  C   UNL d   1       0.995  -1.249  -2.100  0.00  0.00     0.038 C 
ATOM      8  C   UNL d   1       2.180  -0.634  -2.193  0.00  0.00     0.168 C 
BRANCH   8   9
ATOM      9  N   UNL d   1       2.969  -0.414  -1.005  0.00  0.00    -0.127 N 
ATOM     10  O   UNL d   1       3.985   0.274  -1.156  0.00  0.00    -0.532 OA
ATOM     11  O   UNL d   1       2.599  -0.922   0.061  0.00  0.00    -0.532 OA
ENDBRANCH   8   9
ENDBRANCH   2   7
BRANCH   1  12
ATOM     12  O   UNL d   1      -1.405   0.310  -3.356  0.00  0.00    -0.352 OA
ATOM     13  C   UNL d   1      -0.895   0.969  -2.213  0.00  0.00     0.210 C 
ENDBRANCH   1  12
BRANCH   3  14
ATOM     14  O   UNL d   1      -2.529  -0.768  -5.701  0.00  0.00    -0.353 OA
ATOM     15  C   UNL d   1      -2.610   0.651  -5.741  0.00  0.00     0.210 C 
ENDBRANCH   3  14
TORSDOF 4
