REMARK  3 active torsions:
REMARK  status: ('A' for Active; 'I' for Inactive)
REMARK    1  A    between atoms: C_3  and  N_1 
REMARK    2  A    between atoms: C_6  and  C_2 
REMARK    3  A    between atoms: O_18  and  C_9 
ROOT
ATOM      1  N   UNL d   1      -0.585  -1.100   0.338  0.00  0.00    -0.296 N 
ATOM      2  C   UNL d   1       0.808  -1.282  -0.043  0.00  0.00     0.190 C 
ATOM      3  S   UNL d   1       1.596   0.343   0.099  0.00  0.00    -0.129 SA
ATOM      4  C   UNL d   1      -1.075   0.208   0.252  0.00  0.00     0.235 C 
ATOM      5  C   UNL d   1       0.026   1.219   0.021  0.00  0.00     0.179 C 
ATOM      6  O   UNL d   1      -2.251   0.549   0.291  0.00  0.00    -0.272 OA
ENDROOT
BRANCH   1   7
ATOM      7  C   UNL d   1      -1.484  -2.206   0.405  0.00  0.00     0.073 A 
ATOM      8  C   UNL d   1      -1.407  -3.214  -0.571  0.00  0.00     0.056 A 
ATOM      9  C   UNL d   1      -2.292  -4.293  -0.555  0.00  0.00     0.036 A 
ATOM     10 CL   UNL d   1      -2.206  -5.478  -1.801  0.00  0.00    -0.084 Cl
ATOM     11  C   UNL d   1      -3.257  -4.402   0.438  0.00  0.00     0.026 A 
ATOM     12  C   UNL d   1      -3.348  -3.411   1.414  0.00  0.00     0.041 A 
ATOM     13  C   UNL d   1      -2.469  -2.320   1.407  0.00  0.00     0.095 A 
BRANCH  13  14
ATOM     14  O   UNL d   1      -2.684  -1.410   2.409  0.00  0.00    -0.354 OA
ATOM     15  C   UNL d   1      -1.585  -1.268   3.300  0.00  0.00     0.210 C 
ENDBRANCH  13  14
ENDBRANCH   1   7
BRANCH   2  16
ATOM     16  C   UNL d   1       1.533  -2.335   0.762  0.00  0.00    -0.010 A 
ATOM     17  C   UNL d   1       2.045  -3.469   0.137  0.00  0.00     0.097 A 
ATOM     18  N   UNL d   1       2.642  -4.498   0.782  0.00  0.00    -0.375 N 
ATOM     19  C   UNL d   1       2.744  -4.399   2.123  0.00  0.00     0.087 A 
ATOM     20  HN  UNL d   1       2.997  -5.310   0.278  1.00  0.00     0.164 HD
ATOM     21  C   UNL d   1       2.292  -3.310   2.847  0.00  0.00     0.018 A 
ATOM     22  C   UNL d   1       1.687  -2.265   2.154  0.00  0.00     0.013 A 
ENDBRANCH   2  16
TORSDOF 3
