REMARK  3 active torsions:
REMARK  status: ('A' for Active; 'I' for Inactive)
REMARK    1  A    between atoms: C_7  and  N_1 
REMARK    2  A    between atoms: S_12  and  C_2 
REMARK    3  A    between atoms: C_16  and  S_12 
ROOT
ATOM      1  C   UNL d   1       3.116   4.022   0.992  0.00  0.00    -0.107 C 
ATOM      2  C   UNL d   1       4.024   4.804   1.032  0.00  0.00     0.013 C 
ATOM      3  C   UNL d   1       1.997   3.070   0.926  0.00  0.00     0.175 C 
ENDROOT
BRANCH   3   4
ATOM      4  S   UNL d   1       2.560   1.448   0.346  0.00  0.00    -0.080 SA
BRANCH   4   5
ATOM      5  C   UNL d   1       1.046   0.616   0.212  0.00  0.00     0.171 A 
ATOM      6  N   UNL d   1       0.981  -0.730   0.001  0.00  0.00    -0.241 N 
ATOM      7  C   UNL d   1      -0.362  -0.989  -0.193  0.00  0.00     0.347 A 
ATOM      8  N   UNL d   1      -1.003   0.240  -0.058  0.00  0.00    -0.249 N 
ATOM      9  O   UNL d   1      -0.935  -2.050  -0.382  0.00  0.00    -0.245 OA
ATOM     10  N   UNL d   1      -0.102   1.232   0.196  0.00  0.00    -0.275 N 
ATOM     11  H   UNL d   1      -2.002   0.391  -0.095  0.00  0.00     0.192 HD
ATOM     12  HN  UNL d   1      -0.285   2.225   0.339  1.00  0.00     0.189 HD
BRANCH   6  13
ATOM     13  C   UNL d   1       1.957  -1.740   0.124  0.00  0.00     0.048 A 
ATOM     14  C   UNL d   1       2.890  -1.723   1.169  0.00  0.00     0.054 A 
ATOM     15  C   UNL d   1       3.780  -2.786   1.334  0.00  0.00     0.036 A 
ATOM     16 CL   UNL d   1       4.863  -2.788   2.671  0.00  0.00    -0.084 Cl
ATOM     17  C   UNL d   1       3.776  -3.860   0.448  0.00  0.00     0.024 A 
ATOM     18  C   UNL d   1       2.865  -3.879  -0.605  0.00  0.00     0.004 A 
ATOM     19  C   UNL d   1       1.950  -2.834  -0.754  0.00  0.00     0.030 A 
ENDBRANCH   6  13
ENDBRANCH   4   5
ENDBRANCH   3   4
TORSDOF 3
