REMARK  6 active torsions:
REMARK  status: ('A' for Active; 'I' for Inactive)
REMARK    1  A    between atoms: N_2  and  S_1 
REMARK    2  A    between atoms: C_4  and  S_1 
REMARK    3  A    between atoms: C_3  and  N_2 
REMARK    4  A    between atoms: O_5  and  C_7 
REMARK    5  A    between atoms: C_6  and  O_5 
REMARK       I    between atoms: C_12  and  N_13 
REMARK    6  A    between atoms: N_13  and  C_19 
ROOT
ATOM      1  N   UNL d   1      -0.021  -1.133   0.894  0.00  0.00    -0.278 N 
ATOM      2  H   UNL d   1      -0.084  -0.680   1.802  0.00  0.00     0.179 HD
ENDROOT
BRANCH   1   3
ATOM      3  S   UNL d   1      -0.211  -0.148  -0.460  0.00  0.00     0.263 S 
ATOM      4  O   UNL d   1       1.013  -0.117  -1.226  0.00  0.00    -0.200 OA
ATOM      5  O   UNL d   1      -0.814   1.079   0.035  0.00  0.00    -0.200 OA
BRANCH   3   6
ATOM      6  C   UNL d   1      -1.441  -0.994  -1.425  0.00  0.00     0.080 A 
ATOM      7  C   UNL d   1      -2.723  -0.473  -1.591  0.00  0.00     0.027 A 
ATOM      8  C   UNL d   1      -3.686  -1.224  -2.280  0.00  0.00     0.031 A 
ATOM      9  C   UNL d   1      -3.379  -2.503  -2.772  0.00  0.00     0.034 A 
ATOM     10  C   UNL d   1      -2.073  -2.976  -2.649  0.00  0.00     0.031 A 
ATOM     11  C   UNL d   1      -1.098  -2.210  -2.015  0.00  0.00     0.027 A 
BRANCH   9  12
ATOM     12  N   UNL d   1      -4.413  -3.254  -3.371  0.00  0.00    -0.328 N 
ATOM     13  C   UNL d   1      -4.351  -4.587  -3.748  0.00  0.00     0.218 C 
ATOM     14  O   UNL d   1      -3.402  -5.350  -3.588  0.00  0.00    -0.274 OA
ATOM     15  C   UNL d   1      -5.608  -5.085  -4.407  0.00  0.00     0.117 C 
ATOM     16  H   UNL d   1      -5.302  -2.783  -3.479  0.00  0.00     0.169 HD
ENDBRANCH   9  12
ENDBRANCH   3   6
ENDBRANCH   1   3
BRANCH   1  17
ATOM     17  C   UNL d   1       0.600  -2.407   0.760  0.00  0.00     0.076 C 
ATOM     18  C   UNL d   1      -0.168  -3.586   0.785  0.00  0.00     0.103 C 
ATOM     19  C   UNL d   1       0.436  -4.795   0.415  0.00  0.00     0.039 C 
ATOM     20  C   UNL d   1       1.812  -4.852   0.182  0.00  0.00     0.003 C 
ATOM     21  C   UNL d   1       2.584  -3.697   0.272  0.00  0.00     0.002 C 
ATOM     22  C   UNL d   1       1.976  -2.471   0.543  0.00  0.00     0.033 C 
BRANCH  18  23
ATOM     23  O   UNL d   1      -1.502  -3.467   1.133  0.00  0.00    -0.307 OA
BRANCH  23  24
ATOM     24  C   UNL d   1      -2.197  -4.589   1.527  0.00  0.00     0.098 A 
ATOM     25  C   UNL d   1      -1.816  -5.449   2.570  0.00  0.00     0.069 A 
ATOM     26  C   UNL d   1      -2.569  -6.595   2.844  0.00  0.00     0.050 A 
ATOM     27 CL   UNL d   1      -0.453  -5.144   3.591  0.00  0.00    -0.081 Cl
ATOM     28  C   UNL d   1      -3.746  -6.833   2.139  0.00  0.00     0.035 A 
ATOM     29  C   UNL d   1      -4.180  -5.939   1.163  0.00  0.00     0.026 A 
ATOM     30 CL   UNL d   1      -4.683  -8.231   2.497  0.00  0.00    -0.084 Cl
ATOM     31  C   UNL d   1      -3.403  -4.820   0.853  0.00  0.00     0.041 A 
ENDBRANCH  23  24
ENDBRANCH  18  23
ENDBRANCH   1  17
TORSDOF 6
