REMARK  6 active torsions:
REMARK  status: ('A' for Active; 'I' for Inactive)
REMARK    1  A    between atoms: C_11  and  N_9 
REMARK    2  A    between atoms: C_16  and  C_11 
REMARK    3  A    between atoms: C_20  and  C_16 
REMARK    4  A    between atoms: O_26  and  C_16 
REMARK    5  A    between atoms: O_17  and  C_20 
REMARK    6  A    between atoms: C_18  and  O_17 
ROOT
ATOM      1  C   UNL d   1       0.136  -0.636   0.325  0.00  0.00     0.145 A 
ATOM      2  C   UNL d   1       0.226   0.720   0.418  0.00  0.00     0.149 A 
ATOM      3  N   UNL d   1      -1.065  -1.291   0.430  0.00  0.00    -0.287 N 
ATOM      4  N   UNL d   1      -2.090   0.832   0.829  0.00  0.00    -0.269 N 
ATOM      5  C   UNL d   1      -2.226  -0.562   0.697  0.00  0.00     0.332 A 
ATOM      6  C   UNL d   1      -0.900   1.552   0.671  0.00  0.00     0.282 A 
ATOM      7  N   UNL d   1       1.351  -1.209   0.122  0.00  0.00    -0.336 N 
ATOM      8  HN  UNL d   1       1.564  -2.201   0.021  1.00  0.00     0.168 HD
ATOM      9  N   UNL d   1       1.552   1.009   0.215  0.00  0.00    -0.333 N 
ATOM     10  C   UNL d   1       2.194  -0.196   0.084  0.00  0.00     0.185 A 
ATOM     11  O   UNL d   1      -3.319  -1.122   0.810  0.00  0.00    -0.246 OA
ATOM     12  O   UNL d   1      -0.822   2.775   0.753  0.00  0.00    -0.265 OA
ATOM     13  C   UNL d   1      -1.162  -2.731   0.289  0.00  0.00     0.163 C 
ATOM     14  C   UNL d   1      -3.273   1.611   1.142  0.00  0.00     0.164 C 
ENDROOT
BRANCH   9  15
ATOM     15  C   UNL d   1       2.121   2.347   0.126  0.00  0.00     0.164 C 
BRANCH  15  16
ATOM     16  C   UNL d   1       3.646   2.421  -0.077  0.00  0.00     0.160 C 
BRANCH  16  17
ATOM     17  C   UNL d   1       4.119   3.857  -0.355  0.00  0.00     0.209 C 
BRANCH  17  18
ATOM     18  O   UNL d   1       3.526   4.320  -1.565  0.00  0.00    -0.349 OA
BRANCH  18  19
ATOM     19  C   UNL d   1       3.857   5.578  -1.985  0.00  0.00     0.069 A 
ATOM     20  C   UNL d   1       4.742   6.453  -1.354  0.00  0.00     0.038 A 
ATOM     21  C   UNL d   1       4.983   7.721  -1.896  0.00  0.00     0.022 A 
ATOM     22  C   UNL d   1       4.340   8.111  -3.070  0.00  0.00     0.011 A 
ATOM     23  C   UNL d   1       3.459   7.244  -3.709  0.00  0.00     0.022 A 
ATOM     24 BR   UNL d   1       4.663   9.826  -3.795  0.00  0.00    -0.051 Br
ATOM     25  C   UNL d   1       3.222   5.979  -3.165  0.00  0.00     0.038 A 
ENDBRANCH  18  19
ENDBRANCH  17  18
ENDBRANCH  16  17
BRANCH  16  26
ATOM     26  O   UNL d   1       4.334   1.916   1.074  0.00  0.00    -0.392 OA
ATOM     27  H   UNL d   1       4.065   2.433   1.855  0.00  0.00     0.210 HD
ENDBRANCH  16  26
ENDBRANCH  15  16
ENDBRANCH   9  15
TORSDOF 6
