REMARK  5 active torsions:
REMARK  status: ('A' for Active; 'I' for Inactive)
REMARK    1  A    between atoms: C_16  and  C_1 
REMARK    2  A    between atoms: C_3  and  N_11 
REMARK    3  A    between atoms: N_8  and  C_3 
REMARK    4  A    between atoms: C_15  and  N_8 
REMARK    5  A    between atoms: N_11  and  C_16 
ROOT
ATOM      1  C   UNL d   1      -0.214  -5.198   0.109  0.00  0.00     0.172 C 
ATOM      2  S   UNL d   1       1.036  -6.219   0.545  0.00  0.00    -0.041 SA
ENDROOT
BRANCH   1   3
ATOM      3  N   UNL d   1      -0.112  -3.844  -0.062  0.00  0.00    -0.363 N 
ATOM      4  H   UNL d   1      -0.974  -3.323   0.057  0.00  0.00     0.162 HD
BRANCH   3   5
ATOM      5  C   UNL d   1       1.119  -3.082  -0.036  0.00  0.00     0.162 C 
BRANCH   5   6
ATOM      6  C   UNL d   1       0.831  -1.613  -0.097  0.00  0.00    -0.022 A 
ATOM      7  C   UNL d   1       0.335  -0.964  -1.212  0.00  0.00     0.060 A 
ATOM      8  S   UNL d   1       0.250   0.725  -1.017  0.00  0.00    -0.101 SA
ATOM      9  C   UNL d   1       0.877   0.647   0.582  0.00  0.00     0.015 A 
ATOM     10  C   UNL d   1       1.099  -0.676   0.980  0.00  0.00    -0.011 A 
ATOM     11  C   UNL d   1       1.156   1.735   1.434  0.00  0.00     0.019 A 
ATOM     12  C   UNL d   1       1.572  -0.891   2.301  0.00  0.00     0.013 A 
ATOM     13  C   UNL d   1       1.838   0.185   3.154  0.00  0.00     0.001 A 
ATOM     14  C   UNL d   1       1.645   1.486   2.718  0.00  0.00     0.001 A 
ENDBRANCH   5   6
ENDBRANCH   3   5
ENDBRANCH   1   3
BRANCH   1  15
ATOM     15  N   UNL d   1      -1.462  -5.741  -0.034  0.00  0.00    -0.333 N 
ATOM     16  H   UNL d   1      -1.564  -6.654   0.393  0.00  0.00     0.168 HD
BRANCH  15  17
ATOM     17  C   UNL d   1      -2.576  -5.254  -0.747  0.00  0.00     0.037 A 
ATOM     18  C   UNL d   1      -3.835  -5.761  -0.410  0.00  0.00     0.069 A 
ATOM     19  C   UNL d   1      -4.933  -5.236  -1.060  0.00  0.00     0.107 A 
ATOM     20  O   UNL d   1      -6.231  -5.554  -0.810  0.00  0.00    -0.323 OA
ATOM     21  C   UNL d   1      -4.809  -4.287  -2.048  0.00  0.00     0.105 A 
ATOM     22  C   UNL d   1      -6.909  -4.633  -1.691  0.00  0.00     0.352 A 
ATOM     23  O   UNL d   1      -6.011  -3.890  -2.541  0.00  0.00    -0.323 OA
ATOM     24  C   UNL d   1      -3.580  -3.826  -2.457  0.00  0.00     0.042 A 
ATOM     25  C   UNL d   1      -2.453  -4.320  -1.798  0.00  0.00     0.032 A 
ENDBRANCH  15  17
ENDBRANCH   1  15
TORSDOF 5
