REMARK  7 active torsions:
REMARK  status: ('A' for Active; 'I' for Inactive)
REMARK    1  A    between atoms: C_5  and  N_12 
REMARK    2  A    between atoms: C_6  and  C_8 
REMARK    3  A    between atoms: C_24  and  N_16 
REMARK    4  A    between atoms: N_17  and  C_26 
REMARK    5  A    between atoms: C_23  and  C_24 
REMARK    6  A    between atoms: C_26  and  C_23 
REMARK    7  A    between atoms: O_39  and  C_23 
ROOT
ATOM      1  C   UNL d   1      -8.987  -0.147   1.231  0.00  0.00     0.174 C 
ENDROOT
BRANCH   1   2
ATOM      2  C   UNL d   1      -7.899   0.626   0.426  0.00  0.00     0.305 C 
BRANCH   2   3
ATOM      3  N   UNL d   1      -7.022  -0.202  -0.419  0.00  0.00     0.094 N 
ATOM      4  C   UNL d   1      -7.731  -0.809  -1.573  0.00  0.00     0.292 C 
ATOM      5  C   UNL d   1      -8.038   0.154  -2.738  0.00  0.00     0.155 C 
ATOM      6  N   UNL d   1      -6.805   0.810  -3.204  0.00  0.00    -0.358 N 
ATOM      7  C   UNL d   1      -6.198   0.308  -4.317  0.00  0.00     0.148 C 
ATOM      8  C   UNL d   1      -6.078   1.502  -2.133  0.00  0.00     0.155 C 
ATOM      9  N   UNL d   1      -6.662  -0.744  -4.958  0.00  0.00    -0.336 N 
ATOM     10  S   UNL d   1      -4.834   1.038  -5.098  0.00  0.00    -0.052 SA
ATOM     11  C   UNL d   1      -6.042  -0.909  -6.178  0.00  0.00     0.051 A 
ATOM     12  HN  UNL d   1      -7.390  -1.361  -4.596  1.00  0.00     0.168 HD
ATOM     13  C   UNL d   1      -6.388  -1.875  -7.146  0.00  0.00     0.032 A 
ATOM     14  C   UNL d   1      -5.020  -0.006  -6.456  0.00  0.00     0.036 A 
ATOM     15  C   UNL d   1      -5.738  -1.878  -8.384  0.00  0.00     0.026 A 
ATOM     16  C   UNL d   1      -4.733  -0.954  -8.645  0.00  0.00     0.035 A 
ATOM     17  C   UNL d   1      -4.338  -0.014  -7.687  0.00  0.00     0.045 A 
ATOM     18 CL   UNL d   1      -3.967  -0.956 -10.189  0.00  0.00    -0.084 Cl
ATOM     19  C   UNL d   1      -5.846   0.559  -0.920  0.00  0.00     0.292 C 
ENDBRANCH   2   3
ENDBRANCH   1   2
BRANCH   1  20
ATOM     20  C   UNL d   1      -8.387  -1.256   2.147  0.00  0.00     0.305 C 
BRANCH  20  21
ATOM     21  N   UNL d   1      -9.354  -2.025   2.999  0.00  0.00     0.092 N 
ATOM     22  C   UNL d   1     -10.283  -2.799   2.120  0.00  0.00     0.292 C 
ATOM     23  C   UNL d   1     -11.405  -3.638   2.782  0.00  0.00     0.154 C 
ATOM     24  N   UNL d   1     -10.941  -4.547   3.831  0.00  0.00    -0.364 N 
ATOM     25  C   UNL d   1     -10.684  -3.858   5.103  0.00  0.00     0.126 C 
ATOM     26  C   UNL d   1      -9.258  -3.330   5.187  0.00  0.00     0.050 C 
ATOM     27  C   UNL d   1      -8.586  -2.958   3.859  0.00  0.00     0.274 C 
BRANCH  24  28
ATOM     28  C   UNL d   1     -10.481  -5.843   3.700  0.00  0.00     0.125 A 
ATOM     29  N   UNL d   1     -10.149  -6.449   4.878  0.00  0.00    -0.350 N 
ATOM     30  C   UNL d   1      -9.722  -7.734   4.912  0.00  0.00     0.106 A 
ATOM     31  HN  UNL d   1     -10.223  -5.923   5.749  1.00  0.00     0.166 HD
ATOM     32  C   UNL d   1      -9.566  -8.518   3.792  0.00  0.00     0.065 A 
ATOM     33  C   UNL d   1      -9.871  -7.920   2.572  0.00  0.00     0.045 A 
ATOM     34  C   UNL d   1     -10.336  -6.589   2.515  0.00  0.00     0.078 A 
ATOM     35 CL   UNL d   1     -10.648  -6.030   0.910  0.00  0.00    -0.080 Cl
BRANCH  32  36
ATOM     36  C   UNL d   1      -9.097  -9.930   3.922  0.00  0.00     0.418 C 
ATOM     37  F   UNL d   1      -9.010 -10.584   2.731  0.00  0.00    -0.166 F 
ATOM     38  F   UNL d   1      -7.861 -10.019   4.486  0.00  0.00    -0.166 F 
ATOM     39  F   UNL d   1      -9.918 -10.682   4.701  0.00  0.00    -0.166 F 
ENDBRANCH  32  36
ENDBRANCH  24  28
ENDBRANCH  20  21
ENDBRANCH   1  20
BRANCH   1  40
ATOM     40  O   UNL d   1      -9.719   0.816   2.005  0.00  0.00    -0.392 OA
ATOM     41  H   UNL d   1      -9.189   1.014   2.797  0.00  0.00     0.210 HD
ENDBRANCH   1  40
TORSDOF 7
