REMARK  6 active torsions:
REMARK  status: ('A' for Active; 'I' for Inactive)
REMARK    1  A    between atoms: C_2  and  N_1 
REMARK    2  A    between atoms: C_3  and  C_6 
REMARK    3  A    between atoms: C_5  and  N_7 
REMARK       I    between atoms: N_7  and  C_9 
REMARK    4  A    between atoms: S_11  and  C_8 
REMARK    5  A    between atoms: C_9  and  C_21 
REMARK    6  A    between atoms: C_21  and  S_11 
ROOT
ATOM      1  S   UNL d   1      -1.000   1.163  -1.722  0.00  0.00    -0.118 SA
ENDROOT
BRANCH   1   2
ATOM      2  C   UNL d   1       0.061  -0.249  -1.391  0.00  0.00     0.034 A 
ATOM      3  C   UNL d   1       0.374  -0.718  -0.107  0.00  0.00     0.120 A 
ATOM      4  C   UNL d   1       1.463  -1.574   0.123  0.00  0.00     0.053 A 
ATOM      5  C   UNL d   1       2.238  -2.015  -0.958  0.00  0.00     0.050 A 
ATOM      6  C   UNL d   1       1.844  -1.659  -2.259  0.00  0.00     0.017 A 
ATOM      7  C   UNL d   1       0.773  -0.782  -2.472  0.00  0.00     0.022 A 
BRANCH   3   8
ATOM      8  N   UNL d   1      -0.408  -0.299   1.040  0.00  0.00    -0.114 N 
ATOM      9  O   UNL d   1       0.195   0.320   1.927  0.00  0.00    -0.532 OA
ATOM     10  O   UNL d   1      -1.601  -0.617   1.061  0.00  0.00    -0.532 OA
ENDBRANCH   3   8
BRANCH   5  11
ATOM     11  C   UNL d   1       3.498  -2.824  -0.746  0.00  0.00     0.417 C 
ATOM     12  F   UNL d   1       3.845  -2.946   0.564  0.00  0.00    -0.166 F 
ATOM     13  F   UNL d   1       3.398  -4.088  -1.234  0.00  0.00    -0.166 F 
ATOM     14  F   UNL d   1       4.574  -2.263  -1.366  0.00  0.00    -0.166 F 
ENDBRANCH   5  11
ENDBRANCH   1   2
BRANCH   1  15
ATOM     15  C   UNL d   1       0.223   2.448  -1.293  0.00  0.00     0.182 C 
BRANCH  15  16
ATOM     16  C   UNL d   1      -0.181   3.885  -1.558  0.00  0.00     0.231 C 
ATOM     17  N   UNL d   1      -1.464   4.098  -2.019  0.00  0.00    -0.326 N 
ATOM     18  H   UNL d   1      -2.107   3.340  -1.829  0.00  0.00     0.169 HD
ATOM     19  O   UNL d   1       0.635   4.776  -1.313  0.00  0.00    -0.272 OA
BRANCH  17  20
ATOM     20  C   UNL d   1      -2.013   5.391  -2.203  0.00  0.00     0.046 A 
ATOM     21  C   UNL d   1      -1.356   6.373  -2.981  0.00  0.00    -0.035 A 
ATOM     22  C   UNL d   1      -1.912   7.661  -3.081  0.00  0.00     0.009 A 
ATOM     23  C   UNL d   1      -0.090   6.130  -3.762  0.00  0.00     0.050 C 
ATOM     24  C   UNL d   1      -3.122   7.966  -2.471  0.00  0.00     0.001 A 
ATOM     25  C   UNL d   1      -3.798   6.984  -1.757  0.00  0.00     0.009 A 
ATOM     26  C   UNL d   1      -3.263   5.689  -1.613  0.00  0.00    -0.035 A 
ATOM     27  C   UNL d   1      -4.051   4.735  -0.754  0.00  0.00     0.050 C 
ENDBRANCH  17  20
ENDBRANCH  15  16
ENDBRANCH   1  15
TORSDOF 6
