REMARK  4 active torsions:
REMARK  status: ('A' for Active; 'I' for Inactive)
REMARK    1  A    between atoms: N_7  and  C_1 
REMARK    2  A    between atoms: C_10  and  N_4 
REMARK    3  A    between atoms: C_9  and  C_6 
REMARK       I    between atoms: C_8  and  N_7 
REMARK    4  A    between atoms: C_16  and  C_8 
ROOT
ATOM      1  C   UNL d   1      -0.463  -1.226  -0.033  0.00  0.00     0.132 A 
ATOM      2  N   UNL d   1       0.938   0.524   0.368  0.00  0.00    -0.291 N 
ATOM      3  HN  UNL d   1       1.761   1.062   0.638  1.00  0.00     0.187 HD
ATOM      4  N   UNL d   1       0.855  -0.821   0.162  0.00  0.00    -0.240 N 
ATOM      5  C   UNL d   1      -1.207  -0.068  -0.091  0.00  0.00     0.082 A 
ATOM      6  C   UNL d   1      -0.297   0.984   0.140  0.00  0.00     0.069 A 
ENDROOT
BRANCH   1   7
ATOM      7  N   UNL d   1      -0.892  -2.546  -0.133  0.00  0.00    -0.311 N 
ATOM      8  C   UNL d   1      -1.863  -2.886  -1.061  0.00  0.00     0.227 C 
ATOM      9  O   UNL d   1      -2.388  -2.062  -1.827  0.00  0.00    -0.273 OA
ATOM     10  H   UNL d   1      -0.328  -3.282   0.276  0.00  0.00     0.170 HD
BRANCH   8  11
ATOM     11  C   UNL d   1      -2.195  -4.383  -1.167  0.00  0.00     0.078 C 
ATOM     12  C   UNL d   1      -3.715  -4.718  -1.177  0.00  0.00     0.014 C 
ATOM     13  C   UNL d   1      -3.353  -6.055  -0.513  0.00  0.00     0.002 C 
ATOM     14  C   UNL d   1      -2.100  -5.345   0.047  0.00  0.00     0.014 C 
ENDBRANCH   8  11
ENDBRANCH   1   7
BRANCH   4  15
ATOM     15  C   UNL d   1       2.047  -1.598   0.069  0.00  0.00     0.058 A 
ATOM     16  C   UNL d   1       3.220  -1.129   0.680  0.00  0.00     0.033 A 
ATOM     17  C   UNL d   1       4.396  -1.883   0.613  0.00  0.00     0.020 A 
ATOM     18  C   UNL d   1       4.413  -3.090  -0.083  0.00  0.00     0.006 A 
ATOM     19  C   UNL d   1       3.266  -3.545  -0.729  0.00  0.00     0.020 A 
ATOM     20  I   UNL d   1       6.161  -4.207  -0.182  0.00  0.00    -0.045 I 
ATOM     21  C   UNL d   1       2.086  -2.797  -0.659  0.00  0.00     0.033 A 
ENDBRANCH   4  15
BRANCH   6  22
ATOM     22  C   UNL d   1      -0.632   2.449   0.148  0.00  0.00     0.033 A 
ATOM     23  S   UNL d   1      -2.223   3.074   0.061  0.00  0.00    -0.100 SA
ATOM     24  C   UNL d   1      -1.666   4.690   0.131  0.00  0.00     0.050 A 
ATOM     25  C   UNL d   1      -0.292   4.757   0.191  0.00  0.00     0.008 A 
ATOM     26  C   UNL d   1       0.306   3.460   0.206  0.00  0.00     0.021 A 
ENDBRANCH   6  22
TORSDOF 4
