REMARK  5 active torsions:
REMARK  status: ('A' for Active; 'I' for Inactive)
REMARK    1  A    between atoms: C_9  and  C_1 
REMARK    2  A    between atoms: O_5  and  C_2 
REMARK    3  A    between atoms: C_4  and  O_5 
REMARK    4  A    between atoms: C_7  and  C_4 
REMARK    5  A    between atoms: O_13  and  C_9 
ROOT
ATOM      1  C   UNL d   1       2.119  -1.041  -0.007  0.00  0.00     0.115 C 
ATOM      2  C   UNL d   1       0.892  -1.641   0.221  0.00  0.00     0.114 C 
ATOM      3  S   UNL d   1       1.958   0.655  -0.146  0.00  0.00    -0.081 SA
ATOM      4  C   UNL d   1      -0.177  -0.682   0.436  0.00  0.00     0.017 A 
ATOM      5  C   UNL d   1       0.269   0.611   0.144  0.00  0.00     0.019 A 
ATOM      6  C   UNL d   1      -1.549  -0.816   0.789  0.00  0.00     0.015 A 
ATOM      7  C   UNL d   1      -0.608   1.717   0.103  0.00  0.00     0.020 A 
ATOM      8  C   UNL d   1      -2.411   0.285   0.800  0.00  0.00     0.001 A 
ATOM      9  C   UNL d   1      -1.950   1.535   0.428  0.00  0.00     0.001 A 
ENDROOT
BRANCH   2  10
ATOM     10  O   UNL d   1       0.777  -2.976   0.023  0.00  0.00    -0.272 OA
BRANCH  10  11
ATOM     11  C   UNL d   1      -0.177  -3.716   0.628  0.00  0.00     0.300 C 
ATOM     12  O   UNL d   1      -0.619  -3.599   1.756  0.00  0.00    -0.259 OA
BRANCH  11  13
ATOM     13  C   UNL d   1      -0.770  -4.605  -0.407  0.00  0.00     0.061 A 
ATOM     14  C   UNL d   1      -0.027  -5.319  -1.354  0.00  0.00     0.050 A 
ATOM     15 CL   UNL d   1       1.696  -5.441  -1.320  0.00  0.00    -0.083 Cl
ATOM     16  C   UNL d   1      -0.685  -6.014  -2.376  0.00  0.00     0.025 A 
ATOM     17  C   UNL d   1      -2.079  -6.018  -2.445  0.00  0.00     0.002 A 
ATOM     18  C   UNL d   1      -2.824  -5.343  -1.481  0.00  0.00     0.001 A 
ATOM     19  C   UNL d   1      -2.175  -4.642  -0.464  0.00  0.00     0.019 A 
ENDBRANCH  11  13
ENDBRANCH  10  11
ENDBRANCH   2  10
BRANCH   1  20
ATOM     20  C   UNL d   1       3.445  -1.611  -0.190  0.00  0.00     0.302 C 
ATOM     21  O   UNL d   1       4.445  -1.008  -0.565  0.00  0.00    -0.259 OA
BRANCH  20  22
ATOM     22  O   UNL d   1       3.450  -2.934   0.145  0.00  0.00    -0.322 OA
ATOM     23  C   UNL d   1       4.711  -3.582  -0.020  0.00  0.00     0.213 C 
ENDBRANCH  20  22
ENDBRANCH   1  20
TORSDOF 5
