REMARK  6 active torsions:
REMARK  status: ('A' for Active; 'I' for Inactive)
REMARK    1  A    between atoms: C_10  and  N_1 
REMARK    2  A    between atoms: O_14  and  C_6 
REMARK    3  A    between atoms: C_15  and  C_10 
REMARK    4  A    between atoms: O_19  and  C_15 
REMARK    5  A    between atoms: C_20  and  C_15 
REMARK    6  A    between atoms: S_18  and  C_20 
ROOT
ATOM      1  N   UNL d   1       2.376   0.650   0.022  0.00  0.00    -0.253 N 
ATOM      2  N   UNL d   1       2.379  -0.729   0.013  0.00  0.00    -0.274 N 
ATOM      3  HN  UNL d   1       3.251  -1.258   0.028  1.00  0.00     0.189 HD
ATOM      4  C   UNL d   1       1.224   1.431  -0.071  0.00  0.00     0.273 A 
ATOM      5  C   UNL d   1      -0.069   0.710  -0.045  0.00  0.00     0.050 A 
ATOM      6  C   UNL d   1       1.236  -1.320  -0.014  0.00  0.00     0.166 A 
ATOM      7  C   UNL d   1      -0.071  -0.679  -0.015  0.00  0.00     0.034 A 
ATOM      8  C   UNL d   1      -1.280   1.411  -0.014  0.00  0.00     0.043 A 
ATOM      9  C   UNL d   1      -1.274  -1.392   0.036  0.00  0.00     0.042 A 
ATOM     10  C   UNL d   1      -2.489   0.707   0.048  0.00  0.00     0.056 A 
ATOM     11  C   UNL d   1      -2.485  -0.696   0.071  0.00  0.00     0.056 A 
ATOM     12  O   UNL d   1       1.240   2.655  -0.153  0.00  0.00    -0.266 OA
ATOM     13 CL   UNL d   1      -3.939  -1.623   0.154  0.00  0.00    -0.083 Cl
ATOM     14 CL   UNL d   1      -3.951   1.626   0.108  0.00  0.00    -0.083 Cl
ENDROOT
BRANCH   1  15
ATOM     15  C   UNL d   1       3.685   1.296   0.124  0.00  0.00     0.184 C 
BRANCH  15  16
ATOM     16  C   UNL d   1       4.330   1.564  -1.248  0.00  0.00     0.147 C 
BRANCH  16  17
ATOM     17  O   UNL d   1       3.547   2.486  -2.030  0.00  0.00    -0.393 OA
ATOM     18  H   UNL d   1       2.931   2.959  -1.434  0.00  0.00     0.210 HD
ENDBRANCH  16  17
BRANCH  16  19
ATOM     19  C   UNL d   1       5.739   2.168  -1.123  0.00  0.00     0.107 C 
BRANCH  19  20
ATOM     20  S   UNL d   1       6.931   1.073  -0.279  0.00  0.00    -0.171 SA
ATOM     21  C   UNL d   1       8.355   2.187  -0.244  0.00  0.00     0.089 C 
ENDBRANCH  19  20
ENDBRANCH  16  19
ENDBRANCH  15  16
ENDBRANCH   1  15
BRANCH   6  22
ATOM     22  O   UNL d   1       1.200  -2.658  -0.029  0.00  0.00    -0.344 OA
ATOM     23  H   UNL d   1       2.119  -2.978  -0.025  0.00  0.00     0.219 HD
ENDBRANCH   6  22
TORSDOF 6
