REMARK  4 active torsions:
REMARK  status: ('A' for Active; 'I' for Inactive)
REMARK    1  A    between atoms: N_3  and  C_1 
REMARK    2  A    between atoms: C_4  and  C_2 
REMARK    3  A    between atoms: O_14  and  C_6 
REMARK    4  A    between atoms: O_15  and  C_7 
ROOT
ATOM      1  C   UNL d   1       1.441  -0.293   0.035  0.00  0.00     0.137 A 
ATOM      2  C   UNL d   1      -0.837  -1.225   0.035  0.00  0.00     0.083 A 
ATOM      3  C   UNL d   1       0.566  -1.397   0.033  0.00  0.00     0.058 A 
ATOM      4  C   UNL d   1       0.958   1.009  -0.009  0.00  0.00     0.103 A 
ATOM      5  C   UNL d   1      -1.334   0.083   0.012  0.00  0.00     0.086 A 
ATOM      6  C   UNL d   1      -0.435   1.171  -0.005  0.00  0.00     0.076 A 
ENDROOT
BRANCH   2   7
ATOM      7  C   UNL d   1      -1.696  -2.460   0.140  0.00  0.00     0.420 C 
ATOM      8  F   UNL d   1      -0.969  -3.604   0.305  0.00  0.00    -0.166 F 
ATOM      9  F   UNL d   1      -2.555  -2.430   1.194  0.00  0.00    -0.166 F 
ATOM     10  F   UNL d   1      -2.450  -2.681  -0.972  0.00  0.00    -0.166 F 
ENDBRANCH   2   7
BRANCH   5  11
ATOM     11  O   UNL d   1      -2.634   0.487   0.136  0.00  0.00    -0.355 OA
ATOM     12  C   UNL d   1      -3.642  -0.208  -0.585  0.00  0.00     0.210 C 
ENDBRANCH   5  11
BRANCH   1  13
ATOM     13  N   UNL d   1       2.849  -0.595   0.194  0.00  0.00    -0.113 N 
ATOM     14  O   UNL d   1       3.373  -1.283  -0.689  0.00  0.00    -0.532 OA
ATOM     15  O   UNL d   1       3.409  -0.181   1.218  0.00  0.00    -0.532 OA
ENDBRANCH   1  13
BRANCH   4  16
ATOM     16  O   UNL d   1       1.637   2.191   0.012  0.00  0.00    -0.353 OA
ATOM     17  C   UNL d   1       2.897   2.271  -0.646  0.00  0.00     0.210 C 
ENDBRANCH   4  16
TORSDOF 4
