REMARK  2 active torsions:
REMARK  status: ('A' for Active; 'I' for Inactive)
REMARK    1  A    between atoms: N_7  and  S_1 
REMARK    2  A    between atoms: C_13  and  N_7 
ROOT
ATOM      1  C   UNL d   1       3.695  -4.511   1.998  0.00  0.00     0.072 A 
ATOM      2  C   UNL d   1       2.487  -3.757   2.014  0.00  0.00     0.014 A 
ATOM      3  N   UNL d   1       2.033  -5.877   2.555  0.00  0.00    -0.364 N 
ATOM      4  C   UNL d   1       3.384  -5.813   2.329  0.00  0.00     0.112 A 
ATOM      5  C   UNL d   1       5.001  -4.033   1.672  0.00  0.00     0.102 C 
ATOM      6  N   UNL d   1       6.058  -3.641   1.392  0.00  0.00    -0.191 NA
ATOM      7  C   UNL d   1       1.460  -4.638   2.361  0.00  0.00     0.043 A 
ATOM      8  C   UNL d   1       2.163  -2.409   1.754  0.00  0.00     0.039 A 
ATOM      9  C   UNL d   1       0.825  -2.006   1.819  0.00  0.00     0.023 A 
ATOM     10  C   UNL d   1       0.122  -4.237   2.466  0.00  0.00     0.032 A 
ATOM     11  C   UNL d   1      -0.177  -2.898   2.190  0.00  0.00     0.027 A 
ATOM     12  H   UNL d   1       1.524  -6.711   2.816  0.00  0.00     0.165 HD
ENDROOT
BRANCH   9  13
ATOM     13  N   UNL d   1       0.483  -0.655   1.515  0.00  0.00    -0.186 NA
ATOM     14  H   UNL d   1       0.986  -0.263   0.716  0.00  0.00     0.145 HD
BRANCH  13  15
ATOM     15  S   UNL d   1       0.539   0.473   2.775  0.00  0.00     0.210 S 
ATOM     16  O   UNL d   1       0.967   1.709   2.154  0.00  0.00    -0.211 OA
ATOM     17  O   UNL d   1       1.231  -0.075   3.919  0.00  0.00    -0.211 OA
ATOM     18  C   UNL d   1      -1.189   0.640   3.162  0.00  0.00     0.180 C 
ENDBRANCH  13  15
ENDBRANCH   9  13
TORSDOF 2
