REMARK  15 active torsions:
REMARK  status: ('A' for Active; 'I' for Inactive)
REMARK    1  A    between atoms: C_7  and  C_3 
REMARK    2  A    between atoms: N_8  and  C_4 
REMARK    3  A    between atoms: C_9  and  C_5 
REMARK    4  A    between atoms: C_12  and  C_9 
REMARK    5  A    between atoms: C_22  and  C_12 
REMARK    6  A    between atoms: C_13  and  C_14 
REMARK    7  A    between atoms: C_14  and  C_21 
REMARK    8  A    between atoms: C_15  and  C_23 
REMARK    9  A    between atoms: C_16  and  C_15 
REMARK   10  A    between atoms: C_17  and  C_16 
REMARK   11  A    between atoms: C_18  and  C_17 
REMARK   12  A    between atoms: C_19  and  C_18 
REMARK   13  A    between atoms: C_20  and  C_19 
REMARK   14  A    between atoms: C_21  and  C_20 
REMARK   15  A    between atoms: C_23  and  C_22 
ROOT
ATOM      1  N   UNL d   1       0.042  -4.065  -0.060  0.00  0.00    -0.335 N 
ATOM      2  HN  UNL d   1       0.817  -4.664  -0.345  1.00  0.00     0.168 HD
ATOM      3  C   UNL d   1      -1.301  -4.339  -0.306  0.00  0.00     0.057 A 
ATOM      4  C   UNL d   1       0.176  -2.936   0.587  0.00  0.00     0.143 A 
ATOM      5  C   UNL d   1      -2.177  -3.369   0.166  0.00  0.00     0.014 A 
ATOM      6  S   UNL d   1      -1.275  -2.100   0.909  0.00  0.00    -0.057 SA
ENDROOT
BRANCH   5   7
ATOM      7  C   UNL d   1      -3.671  -3.275   0.186  0.00  0.00     0.048 C 
BRANCH   7   8
ATOM      8  C   UNL d   1      -4.197  -2.395  -0.953  0.00  0.00     0.005 C 
BRANCH   8   9
ATOM      9  C   UNL d   1      -5.723  -2.342  -0.993  0.00  0.00     0.000 C 
BRANCH   9  10
ATOM     10  C   UNL d   1      -6.308  -1.609   0.216  0.00  0.00     0.000 C 
BRANCH  10  11
ATOM     11  C   UNL d   1      -7.819  -1.411   0.126  0.00  0.00     0.000 C 
BRANCH  11  12
ATOM     12  C   UNL d   1      -8.591  -2.730   0.137  0.00  0.00     0.000 C 
BRANCH  12  13
ATOM     13  C   UNL d   1     -10.094  -2.472   0.164  0.00  0.00     0.000 C 
BRANCH  13  14
ATOM     14  C   UNL d   1     -10.880  -3.780   0.139  0.00  0.00     0.000 C 
BRANCH  14  15
ATOM     15  C   UNL d   1     -12.380  -3.495   0.144  0.00  0.00     0.000 C 
BRANCH  15  16
ATOM     16  C   UNL d   1     -13.194  -4.785   0.115  0.00  0.00     0.000 C 
BRANCH  16  17
ATOM     17  C   UNL d   1     -14.689  -4.473   0.119  0.00  0.00     0.000 C 
BRANCH  17  18
ATOM     18  C   UNL d   1     -15.524  -5.751   0.095  0.00  0.00    -0.000 C 
BRANCH  18  19
ATOM     19  C   UNL d   1     -17.017  -5.429   0.102  0.00  0.00    -0.005 C 
ATOM     20  C   UNL d   1     -17.856  -6.696   0.079  0.00  0.00     0.005 C 
ENDBRANCH  18  19
ENDBRANCH  17  18
ENDBRANCH  16  17
ENDBRANCH  15  16
ENDBRANCH  14  15
ENDBRANCH  13  14
ENDBRANCH  12  13
ENDBRANCH  11  12
ENDBRANCH  10  11
ENDBRANCH   9  10
ENDBRANCH   8   9
ENDBRANCH   7   8
ENDBRANCH   5   7
BRANCH   3  21
ATOM     21  C   UNL d   1      -1.670  -5.610  -0.938  0.00  0.00    -0.008 A 
ATOM     22  C   UNL d   1      -0.850  -6.731  -0.723  0.00  0.00     0.014 A 
ATOM     23  C   UNL d   1      -1.178  -7.979  -1.262  0.00  0.00     0.001 A 
ATOM     24  C   UNL d   1      -2.330  -8.126  -2.029  0.00  0.00     0.000 A 
ATOM     25  C   UNL d   1      -3.136  -7.021  -2.280  0.00  0.00     0.001 A 
ATOM     26  C   UNL d   1      -2.799  -5.770  -1.751  0.00  0.00     0.014 A 
ENDBRANCH   3  21
BRANCH   4  27
ATOM     27  N   UNL d   1       1.361  -2.444   0.979  0.00  0.00    -0.380 N 
ATOM     28  H   UNL d   1       2.176  -2.833   0.518  0.00  0.00     0.158 HD
ATOM     29  H   UNL d   1       1.422  -1.455   1.185  0.00  0.00     0.158 HD
ENDBRANCH   4  27
TORSDOF 15
