REMARK  1 active torsions:
REMARK  status: ('A' for Active; 'I' for Inactive)
REMARK       I    between atoms: C_7  and  N_1 
REMARK    1  A    between atoms: C_9  and  C_5 
ROOT
ATOM      1  N   UNL d   1       0.352  -1.631  -0.084  0.00  0.00    -0.274 N 
ATOM      2  C   UNL d   1       0.802   0.771   0.135  0.00  0.00     0.105 C 
ATOM      3  C   UNL d   1       1.258  -0.663   0.353  0.00  0.00     0.277 C 
ATOM      4  N   UNL d   1      -0.546   1.019   0.011  0.00  0.00    -0.321 N 
ATOM      5  C   UNL d   1       1.639   1.816   0.021  0.00  0.00     0.054 C 
ATOM      6  C   UNL d   1      -1.516   0.066  -0.014  0.00  0.00     0.240 C 
ATOM      7  C   UNL d   1       0.840  -2.894  -0.391  0.00  0.00     0.223 C 
ATOM      8  C   UNL d   1      -1.067  -1.372   0.125  0.00  0.00     0.238 C 
ATOM      9  O   UNL d   1       2.293  -0.903   0.967  0.00  0.00    -0.265 OA
ATOM     10  O   UNL d   1      -2.702   0.382  -0.076  0.00  0.00    -0.271 OA
ATOM     11  O   UNL d   1       2.036  -3.146  -0.555  0.00  0.00    -0.273 OA
ATOM     12  C   UNL d   1      -0.135  -4.036  -0.597  0.00  0.00     0.117 C 
ATOM     13  H   UNL d   1      -0.881   1.970  -0.098  0.00  0.00     0.169 HD
ENDROOT
BRANCH   5  14
ATOM     14  C   UNL d   1       3.055   1.733  -0.038  0.00  0.00     0.007 A 
ATOM     15  S   UNL d   1       3.835   1.774  -1.572  0.00  0.00    -0.102 SA
ATOM     16  C   UNL d   1       5.389   1.713  -0.865  0.00  0.00     0.050 A 
ATOM     17  C   UNL d   1       5.329   1.680   0.509  0.00  0.00     0.008 A 
ATOM     18  C   UNL d   1       3.985   1.697   0.986  0.00  0.00     0.019 A 
ENDBRANCH   5  14
TORSDOF 1
