REMARK  1 active torsions:
REMARK  status: ('A' for Active; 'I' for Inactive)
REMARK       I    between atoms: C_7  and  N_1 
REMARK    1  A    between atoms: N_6  and  C_9 
ROOT
ATOM      1  N   UNL d   1       1.948   0.007   0.011  0.00  0.00    -0.213 N 
ATOM      2  C   UNL d   1       1.164   1.139  -0.035  0.00  0.00     0.268 A 
ATOM      3  C   UNL d   1       1.166  -1.123   0.029  0.00  0.00     0.268 A 
ATOM      4  C   UNL d   1      -0.230   0.698  -0.023  0.00  0.00     0.051 A 
ATOM      5  C   UNL d   1      -0.225  -0.682  -0.001  0.00  0.00     0.049 A 
ATOM      6  C   UNL d   1       3.326  -0.057  -0.128  0.00  0.00     0.229 C 
ATOM      7  C   UNL d   1      -1.404   1.431  -0.031  0.00  0.00     0.054 A 
ATOM      8  C   UNL d   1      -2.605   0.701  -0.014  0.00  0.00     0.103 A 
ATOM      9  C   UNL d   1      -1.394  -1.421   0.015  0.00  0.00     0.020 A 
ATOM     10  O   UNL d   1       1.467   2.317  -0.089  0.00  0.00    -0.267 OA
ATOM     11  O   UNL d   1       1.455  -2.299   0.153  0.00  0.00    -0.267 OA
ATOM     12  C   UNL d   1      -2.604  -0.716   0.008  0.00  0.00     0.037 A 
ATOM     13  O   UNL d   1       3.900  -0.938  -0.770  0.00  0.00    -0.273 OA
ATOM     14  C   UNL d   1       4.132   1.091   0.431  0.00  0.00     0.118 C 
ENDROOT
BRANCH   8  15
ATOM     15  N   UNL d   1      -3.889   1.419  -0.016  0.00  0.00    -0.116 N 
ATOM     16  O   UNL d   1      -3.852   2.657  -0.037  0.00  0.00    -0.532 OA
ATOM     17  O   UNL d   1      -4.925   0.743   0.006  0.00  0.00    -0.532 OA
ENDBRANCH   8  15
TORSDOF 1
