REMARK  0 active torsions:
REMARK  status: ('A' for Active; 'I' for Inactive)
ROOT
ATOM      1  C   UNL d   1      -2.253  -0.576  -0.631  0.00  0.00    -0.044 C 
ATOM      2  C   UNL d   1      -1.347   0.471  -0.335  0.00  0.00    -0.044 C 
ATOM      3  C   UNL d   1      -1.916  -1.917  -0.318  0.00  0.00    -0.044 C 
ATOM      4  C   UNL d   1      -0.091   0.174   0.254  0.00  0.00    -0.044 C 
ATOM      5  C   UNL d   1      -0.729  -2.187   0.397  0.00  0.00    -0.044 C 
ATOM      6  C   UNL d   1       0.222  -1.160   0.608  0.00  0.00    -0.044 C 
ATOM      7  C   UNL d   1      -3.565  -0.259  -1.324  0.00  0.00     0.040 C 
ATOM      8  C   UNL d   1      -2.849  -3.043  -0.725  0.00  0.00     0.040 C 
ATOM      9  C   UNL d   1      -1.737   1.922  -0.568  0.00  0.00     0.040 C 
ATOM     10  C   UNL d   1       0.931   1.283   0.440  0.00  0.00     0.040 C 
ATOM     11  C   UNL d   1      -0.454  -3.586   0.921  0.00  0.00     0.040 C 
ATOM     12  C   UNL d   1       1.554  -1.482   1.256  0.00  0.00     0.040 C 
ATOM     13  C   UNL d   1      -4.078   1.137  -1.000  0.00  0.00     0.005 C 
ATOM     14  C   UNL d   1      -2.302  -4.446  -0.485  0.00  0.00     0.005 C 
ATOM     15  C   UNL d   1      -3.016   2.156  -1.364  0.00  0.00     0.005 C 
ATOM     16  C   UNL d   1       2.166   0.920   1.257  0.00  0.00     0.005 C 
ATOM     17  C   UNL d   1      -1.667  -4.508   0.893  0.00  0.00     0.005 C 
ATOM     18  C   UNL d   1       2.645  -0.476   0.911  0.00  0.00     0.005 C 
ENDROOT
TORSDOF 0
