REMARK  4 active torsions:
REMARK  status: ('A' for Active; 'I' for Inactive)
REMARK    1  A    between atoms: C_8  and  N_2 
REMARK    2  A    between atoms: C_5  and  C_9 
REMARK    3  A    between atoms: N_10  and  C_8 
REMARK    4  A    between atoms: C_16  and  N_10 
ROOT
ATOM      1  N   UNL d   1       3.618  -2.435  -0.207  0.00  0.00    -0.275 NA
ATOM      2  H   UNL d   1       4.064  -1.722   0.370  0.00  0.00     0.129 HD
ENDROOT
BRANCH   1   3
ATOM      3  C   UNL d   1       2.156  -2.352  -0.092  0.00  0.00     0.240 C 
BRANCH   3   4
ATOM      4  N   UNL d   1       1.617  -1.001  -0.212  0.00  0.00    -0.260 N 
ATOM      5  N   UNL d   1       0.973  -0.428   0.825  0.00  0.00    -0.018 NA
ATOM      6  N   UNL d   1       0.532   0.755   0.414  0.00  0.00    -0.282 N 
ATOM      7  C   UNL d   1       0.914   0.922  -0.891  0.00  0.00     0.074 A 
ATOM      8  HN  UNL d   1       0.001   1.423   0.972  1.00  0.00     0.184 HD
ATOM      9  C   UNL d   1       0.699   1.984  -1.780  0.00  0.00     0.033 A 
ATOM     10  C   UNL d   1       1.623  -0.194  -1.319  0.00  0.00     0.078 A 
ATOM     11  C   UNL d   1       1.217   1.884  -3.078  0.00  0.00     0.002 A 
ATOM     12  C   UNL d   1       1.932   0.753  -3.480  0.00  0.00     0.002 A 
ATOM     13  C   UNL d   1       2.152  -0.318  -2.607  0.00  0.00     0.033 A 
ENDBRANCH   3   4
ENDBRANCH   1   3
BRANCH   1  14
ATOM     14  C   UNL d   1       4.215  -3.690  -0.027  0.00  0.00     0.009 A 
ATOM     15  C   UNL d   1       3.605  -4.891  -0.406  0.00  0.00     0.024 A 
ATOM     16  C   UNL d   1       4.261  -6.119  -0.255  0.00  0.00     0.018 A 
ATOM     17  C   UNL d   1       5.563  -6.175   0.253  0.00  0.00     0.048 A 
ATOM     18  C   UNL d   1       6.203  -4.973   0.578  0.00  0.00     0.018 A 
ATOM     19  C   UNL d   1       5.541  -3.749   0.422  0.00  0.00     0.024 A 
BRANCH  17  20
ATOM     20  C   UNL d   1       6.276  -7.491   0.438  0.00  0.00     0.417 C 
ATOM     21  F   UNL d   1       5.522  -8.572   0.088  0.00  0.00    -0.166 F 
ATOM     22  F   UNL d   1       7.416  -7.577  -0.301  0.00  0.00    -0.166 F 
ATOM     23  F   UNL d   1       6.650  -7.703   1.730  0.00  0.00    -0.166 F 
ENDBRANCH  17  20
ENDBRANCH   1  14
TORSDOF 4
