REMARK  4 active torsions:
REMARK  status: ('A' for Active; 'I' for Inactive)
REMARK    1  A    between atoms: C_2  and  S_1 
REMARK    2  A    between atoms: C_3  and  S_1 
REMARK    3  A    between atoms: N_11  and  C_4 
REMARK    4  A    between atoms: C_12  and  N_11 
ROOT
ATOM      1  C   UNL d   1       0.511  -0.878   1.466  0.00  0.00     0.160 C 
ATOM      2  C   UNL d   1      -0.299  -0.274   2.356  0.00  0.00     0.123 C 
ATOM      3  C   UNL d   1       1.010  -0.228   0.315  0.00  0.00     0.113 C 
ATOM      4  N   UNL d   1       1.383   0.339  -0.625  0.00  0.00    -0.191 NA
ENDROOT
BRANCH   1   5
ATOM      5  S   UNL d   1       0.838  -2.569   1.650  0.00  0.00     0.233 S 
ATOM      6  O   UNL d   1      -0.111  -3.297   0.821  0.00  0.00    -0.215 OA
ATOM      7  O   UNL d   1       0.953  -2.911   3.059  0.00  0.00    -0.215 OA
BRANCH   5   8
ATOM      8  C   UNL d   1       2.457  -2.815   0.922  0.00  0.00     0.134 A 
ATOM      9  N   UNL d   1       3.438  -2.055   1.479  0.00  0.00    -0.356 N 
ATOM     10  C   UNL d   1       4.678  -2.244   0.976  0.00  0.00     0.089 A 
ATOM     11  HN  UNL d   1       3.250  -1.386   2.226  1.00  0.00     0.166 HD
ATOM     12  C   UNL d   1       4.967  -3.124  -0.059  0.00  0.00     0.017 A 
ATOM     13  C   UNL d   1       3.928  -3.865  -0.616  0.00  0.00     0.004 A 
ATOM     14  C   UNL d   1       2.638  -3.716  -0.116  0.00  0.00     0.042 A 
ENDBRANCH   5   8
ENDBRANCH   1   5
BRANCH   2  15
ATOM     15  N   UNL d   1      -0.745   1.031   2.347  0.00  0.00    -0.364 N 
ATOM     16  H   UNL d   1      -0.423   1.610   1.572  0.00  0.00     0.165 HD
BRANCH  15  17
ATOM     17  C   UNL d   1      -1.590   1.704   3.251  0.00  0.00     0.035 A 
ATOM     18  C   UNL d   1      -2.117   1.129   4.413  0.00  0.00     0.053 A 
ATOM     19  C   UNL d   1      -2.953   1.868   5.260  0.00  0.00     0.037 A 
ATOM     20 CL   UNL d   1      -3.582   1.137   6.687  0.00  0.00    -0.084 Cl
ATOM     21  C   UNL d   1      -3.285   3.187   4.968  0.00  0.00     0.048 A 
ATOM     22  C   UNL d   1      -2.772   3.765   3.815  0.00  0.00     0.037 A 
ATOM     23  C   UNL d   1      -1.937   3.036   2.965  0.00  0.00     0.053 A 
ATOM     24 CL   UNL d   1      -3.167   5.395   3.427  0.00  0.00    -0.084 Cl
ENDBRANCH  15  17
ENDBRANCH   2  15
TORSDOF 4
