REMARK  6 active torsions:
REMARK  status: ('A' for Active; 'I' for Inactive)
REMARK    1  A    between atoms: C_3  and  S_1 
REMARK    2  A    between atoms: N_5  and  S_1 
REMARK    3  A    between atoms: S_2  and  C_3 
REMARK    4  A    between atoms: C_4  and  O_10 
REMARK    5  A    between atoms: C_11  and  N_5 
REMARK    6  A    between atoms: O_10  and  C_13 
ROOT
ATOM      1  C   UNL d   1       0.771  -0.214   2.643  0.00  0.00     0.025 A 
ATOM      2  C   UNL d   1       2.103  -0.633   2.748  0.00  0.00     0.061 A 
ATOM      3  C   UNL d   1       2.541  -1.247   3.922  0.00  0.00     0.080 A 
ATOM      4  C   UNL d   1       0.328  -0.969   4.886  0.00  0.00     0.005 A 
ATOM      5  C   UNL d   1      -0.120  -0.396   3.699  0.00  0.00     0.024 A 
ATOM      6  C   UNL d   1       1.655  -1.383   4.996  0.00  0.00     0.037 A 
ENDROOT
BRANCH   1   7
ATOM      7  N   UNL d   1       0.289   0.387   1.441  0.00  0.00    -0.185 NA
ATOM      8  H   UNL d   1       0.899   1.108   1.045  0.00  0.00     0.146 HD
BRANCH   7   9
ATOM      9  S   UNL d   1      -0.216  -0.646   0.184  0.00  0.00     0.227 S 
ATOM     10  O   UNL d   1       0.075   0.105  -1.017  0.00  0.00    -0.210 OA
ATOM     11  O   UNL d   1       0.333  -1.964   0.409  0.00  0.00    -0.210 OA
BRANCH   9  12
ATOM     12  C   UNL d   1      -1.952  -0.684   0.458  0.00  0.00     0.297 C 
BRANCH  12  13
ATOM     13  S   UNL d   1      -2.822  -1.601  -0.763  0.00  0.00     0.155 S 
ATOM     14  O   UNL d   1      -4.201  -1.663  -0.300  0.00  0.00    -0.227 OA
ATOM     15  O   UNL d   1      -2.547  -1.054  -2.080  0.00  0.00    -0.227 OA
ATOM     16  C   UNL d   1      -2.204  -3.264  -0.703  0.00  0.00     0.162 C 
ENDBRANCH  12  13
ENDBRANCH   9  12
ENDBRANCH   7   9
ENDBRANCH   1   7
BRANCH   3  17
ATOM     17  O   UNL d   1       3.794  -1.718   4.176  0.00  0.00    -0.255 OA
BRANCH  17  18
ATOM     18  C   UNL d   1       4.607  -2.163   3.101  0.00  0.00     0.530 C 
ATOM     19  F   UNL d   1       3.908  -2.478   1.992  0.00  0.00    -0.144 F 
ATOM     20  F   UNL d   1       5.516  -1.213   2.798  0.00  0.00    -0.144 F 
ATOM     21  F   UNL d   1       5.269  -3.271   3.503  0.00  0.00    -0.144 F 
ENDBRANCH  17  18
ENDBRANCH   3  17
TORSDOF 6
