REMARK  3 active torsions:
REMARK  status: ('A' for Active; 'I' for Inactive)
REMARK    1  A    between atoms: N_2  and  C_1 
REMARK    2  A    between atoms: C_3  and  O_4 
REMARK    3  A    between atoms: O_4  and  C_5 
ROOT
ATOM      1  C   UNL d   1       1.562   1.218  -0.218  0.00  0.00     0.138 A 
ATOM      2  C   UNL d   1       2.334   0.059  -0.059  0.00  0.00     0.109 A 
ATOM      3  C   UNL d   1       0.165   1.195  -0.136  0.00  0.00     0.062 A 
ATOM      4  C   UNL d   1       1.675  -1.129   0.285  0.00  0.00     0.041 A 
ATOM      5  C   UNL d   1      -0.470  -0.014   0.120  0.00  0.00     0.036 A 
ATOM      6  C   UNL d   1       0.276  -1.171   0.348  0.00  0.00     0.026 A 
ATOM      7 CL   UNL d   1      -2.187  -0.089   0.157  0.00  0.00    -0.084 Cl
ENDROOT
BRANCH   2   8
ATOM      8  O   UNL d   1       3.699   0.143  -0.238  0.00  0.00    -0.305 OA
BRANCH   8   9
ATOM      9  C   UNL d   1       4.397  -0.993  -0.590  0.00  0.00     0.119 A 
ATOM     10  C   UNL d   1       4.108  -1.762  -1.730  0.00  0.00     0.069 A 
ATOM     11 CL   UNL d   1       2.914  -1.302  -2.894  0.00  0.00    -0.081 Cl
ATOM     12  C   UNL d   1       4.811  -2.947  -1.974  0.00  0.00     0.027 A 
ATOM     13  C   UNL d   1       5.848  -3.337  -1.128  0.00  0.00     0.003 A 
ATOM     14  C   UNL d   1       6.201  -2.531  -0.048  0.00  0.00     0.027 A 
ATOM     15  C   UNL d   1       5.481  -1.362   0.218  0.00  0.00     0.069 A 
ATOM     16 CL   UNL d   1       5.962  -0.402   1.571  0.00  0.00    -0.081 Cl
ENDBRANCH   8   9
ENDBRANCH   2   8
BRANCH   1  17
ATOM     17  N   UNL d   1       2.200   2.493  -0.468  0.00  0.00    -0.113 N 
ATOM     18  O   UNL d   1       2.940   2.588  -1.453  0.00  0.00    -0.532 OA
ATOM     19  O   UNL d   1       1.919   3.417   0.309  0.00  0.00    -0.532 OA
ENDBRANCH   1  17
TORSDOF 3
