REMARK  2 active torsions:
REMARK  status: ('A' for Active; 'I' for Inactive)
REMARK    1  A    between atoms: C_12  and  C_7 
REMARK    2  A    between atoms: C_8  and  C_11 
ROOT
ATOM      1  C   UNL d   1       0.842  -0.652  -0.590  0.00  0.00     0.181 A 
ATOM      2  O   UNL d   1       0.603   0.658  -0.934  0.00  0.00    -0.272 OA
ATOM      3  N   UNL d   1       0.151  -1.007   0.480  0.00  0.00    -0.277 N 
ATOM      4  HN  UNL d   1       0.150  -1.925   0.925  1.00  0.00     0.189 HD
ATOM      5  N   UNL d   1      -0.570   0.100   0.882  0.00  0.00    -0.277 N 
ATOM      6  HN  UNL d   1      -1.203   0.160   1.680  1.00  0.00     0.189 HD
ATOM      7  C   UNL d   1      -0.280   1.061   0.030  0.00  0.00     0.174 A 
ATOM      8  C   UNL d   1       1.738  -1.523  -1.294  0.00  0.00     0.057 A 
ATOM      9  S   UNL d   1       2.644  -0.983  -2.644  0.00  0.00    -0.098 SA
ATOM     10  C   UNL d   1       2.003  -2.850  -1.011  0.00  0.00     0.024 A 
ATOM     11  C   UNL d   1       3.384  -2.511  -2.847  0.00  0.00     0.050 A 
ATOM     12  C   UNL d   1       2.952  -3.422  -1.909  0.00  0.00     0.009 A 
ENDROOT
BRANCH   7  13
ATOM     13  C   UNL d   1      -0.714   2.452  -0.005  0.00  0.00     0.017 A 
ATOM     14  C   UNL d   1      -0.311   3.320  -1.031  0.00  0.00     0.017 A 
ATOM     15  C   UNL d   1      -0.697   4.664  -1.026  0.00  0.00     0.017 A 
ATOM     16  C   UNL d   1      -1.498   5.173   0.006  0.00  0.00     0.048 A 
ATOM     17  C   UNL d   1      -1.919   4.303   1.023  0.00  0.00     0.017 A 
ATOM     18  C   UNL d   1      -1.532   2.958   1.015  0.00  0.00     0.017 A 
BRANCH  16  19
ATOM     19  C   UNL d   1      -1.894   6.629   0.037  0.00  0.00     0.417 C 
ATOM     20  F   UNL d   1      -1.399   7.349  -1.009  0.00  0.00    -0.166 F 
ATOM     21  F   UNL d   1      -3.244   6.804   0.004  0.00  0.00    -0.166 F 
ATOM     22  F   UNL d   1      -1.461   7.262   1.162  0.00  0.00    -0.166 F 
ENDBRANCH  16  19
ENDBRANCH   7  13
TORSDOF 2
