REMARK  4 active torsions:
REMARK  status: ('A' for Active; 'I' for Inactive)
REMARK    1  A    between atoms: N_7  and  C_1 
REMARK    2  A    between atoms: C_10  and  N_2 
REMARK    3  A    between atoms: C_13  and  C_6 
REMARK       I    between atoms: C_8  and  N_7 
REMARK    4  A    between atoms: C_9  and  C_8 
ROOT
ATOM      1  C   UNL d   1      -0.372  -1.172   0.302  0.00  0.00     0.132 C 
ATOM      2  N   UNL d   1       0.914  -0.734   0.001  0.00  0.00    -0.240 N 
ATOM      3  N   UNL d   1       0.954   0.615  -0.165  0.00  0.00    -0.291 N 
ATOM      4  HN  UNL d   1       1.726   1.172  -0.530  1.00  0.00     0.187 HD
ATOM      5  C   UNL d   1      -1.082  -0.034   0.606  0.00  0.00     0.082 C 
ATOM      6  C   UNL d   1      -0.244   1.053   0.258  0.00  0.00     0.062 C 
ENDROOT
BRANCH   1   7
ATOM      7  N   UNL d   1      -0.785  -2.497   0.228  0.00  0.00    -0.307 N 
ATOM      8  C   UNL d   1      -1.891  -2.967   0.904  0.00  0.00     0.259 C 
ATOM      9  O   UNL d   1      -2.527  -2.365   1.760  0.00  0.00    -0.267 OA
ATOM     10  H   UNL d   1      -0.235  -3.137  -0.337  0.00  0.00     0.170 HD
BRANCH   8  11
ATOM     11  C   UNL d   1      -2.248  -4.378   0.628  0.00  0.00     0.054 A 
ATOM     12  C   UNL d   1      -2.530  -4.855  -0.657  0.00  0.00     0.049 A 
ATOM     13 CL   UNL d   1      -2.429  -3.865  -2.068  0.00  0.00    -0.083 Cl
ATOM     14  C   UNL d   1      -2.942  -6.181  -0.828  0.00  0.00     0.025 A 
ATOM     15  C   UNL d   1      -3.068  -7.029   0.275  0.00  0.00     0.002 A 
ATOM     16  C   UNL d   1      -2.774  -6.560   1.554  0.00  0.00     0.001 A 
ATOM     17  C   UNL d   1      -2.370  -5.236   1.733  0.00  0.00     0.019 A 
ENDBRANCH   8  11
ENDBRANCH   1   7
BRANCH   2  18
ATOM     18  C   UNL d   1       2.115  -1.502  -0.072  0.00  0.00     0.058 A 
ATOM     19  C   UNL d   1       3.239  -0.974  -0.721  0.00  0.00     0.031 A 
ATOM     20  C   UNL d   1       4.419  -1.717  -0.794  0.00  0.00     0.002 A 
ATOM     21  C   UNL d   1       4.492  -2.982  -0.208  0.00  0.00     0.000 A 
ATOM     22  C   UNL d   1       3.392  -3.498   0.470  0.00  0.00     0.002 A 
ATOM     23  C   UNL d   1       2.210  -2.759   0.547  0.00  0.00     0.031 A 
ENDBRANCH   2  18
BRANCH   6  24
ATOM     24  C   UNL d   1      -0.576   2.480   0.276  0.00  0.00    -0.008 A 
ATOM     25  C   UNL d   1       0.411   3.437   0.550  0.00  0.00     0.014 A 
ATOM     26  C   UNL d   1       0.097   4.799   0.574  0.00  0.00     0.001 A 
ATOM     27  C   UNL d   1      -1.207   5.220   0.313  0.00  0.00     0.000 A 
ATOM     28  C   UNL d   1      -2.196   4.280   0.032  0.00  0.00     0.001 A 
ATOM     29  C   UNL d   1      -1.884   2.916   0.016  0.00  0.00     0.014 A 
ENDBRANCH   6  24
TORSDOF 4
