REMARK  7 active torsions:
REMARK  status: ('A' for Active; 'I' for Inactive)
REMARK    1  A    between atoms: N_2  and  S_1 
REMARK    2  A    between atoms: C_6  and  S_1 
REMARK       I    between atoms: C_4  and  N_2 
REMARK    3  A    between atoms: C_3  and  C_5 
REMARK    4  A    between atoms: O_13  and  C_4 
REMARK    5  A    between atoms: C_11  and  O_16 
REMARK    6  A    between atoms: C_22  and  O_13 
REMARK    7  A    between atoms: O_16  and  C_23 
ROOT
ATOM      1  C   UNL d   1       2.118   0.365  -2.586  0.00  0.00     0.081 A 
ATOM      2  C   UNL d   1       3.597   2.278  -1.194  0.00  0.00     0.078 A 
ATOM      3  C   UNL d   1       2.976  -0.036  -1.563  0.00  0.00     0.040 A 
ATOM      4  C   UNL d   1       2.097   1.698  -3.004  0.00  0.00     0.040 A 
ATOM      5  C   UNL d   1       2.826   2.658  -2.294  0.00  0.00     0.040 A 
ATOM      6  C   UNL d   1       3.730   0.921  -0.880  0.00  0.00     0.040 A 
ENDROOT
BRANCH   1   7
ATOM      7  O   UNL d   1       1.310  -0.640  -3.158  0.00  0.00    -0.261 OA
BRANCH   7   8
ATOM      8  C   UNL d   1      -0.024  -0.341  -3.427  0.00  0.00     0.379 C 
ATOM      9  N   UNL d   1      -0.819  -1.389  -3.870  0.00  0.00    -0.225 N 
ATOM     10  H   UNL d   1      -1.782  -1.154  -4.082  0.00  0.00     0.184 HD
ATOM     11  O   UNL d   1      -0.546   0.756  -3.303  0.00  0.00    -0.237 OA
BRANCH   9  12
ATOM     12  S   UNL d   1      -0.493  -3.002  -3.862  0.00  0.00     0.267 S 
ATOM     13  O   UNL d   1       0.785  -3.221  -4.504  0.00  0.00    -0.200 OA
ATOM     14  O   UNL d   1      -1.693  -3.660  -4.328  0.00  0.00    -0.200 OA
BRANCH  12  15
ATOM     15  C   UNL d   1      -0.338  -3.366  -2.134  0.00  0.00     0.080 A 
ATOM     16  C   UNL d   1      -1.467  -3.289  -1.313  0.00  0.00     0.026 A 
ATOM     17  C   UNL d   1      -1.339  -3.536   0.055  0.00  0.00     0.008 A 
ATOM     18  C   UNL d   1      -0.092  -3.870   0.603  0.00  0.00    -0.062 A 
ATOM     19  C   UNL d   1       1.020  -3.989  -0.242  0.00  0.00     0.008 A 
ATOM     20  C   UNL d   1       0.042  -4.083   2.082  0.00  0.00     0.048 C 
ATOM     21  C   UNL d   1       0.900  -3.740  -1.610  0.00  0.00     0.026 A 
ENDBRANCH  12  15
ENDBRANCH   9  12
ENDBRANCH   7   8
ENDBRANCH   1   7
BRANCH   2  22
ATOM     22  O   UNL d   1       4.240   3.285  -0.507  0.00  0.00    -0.294 OA
BRANCH  22  23
ATOM     23  C   UNL d   1       4.259   3.222   0.884  0.00  0.00     0.147 A 
ATOM     24  N   UNL d   1       3.396   2.419   1.547  0.00  0.00    -0.346 N 
ATOM     25  C   UNL d   1       3.530   2.331   2.888  0.00  0.00     0.106 A 
ATOM     26  HN  UNL d   1       2.670   1.899   1.053  1.00  0.00     0.167 HD
ATOM     27  C   UNL d   1       4.482   3.027   3.616  0.00  0.00     0.063 A 
ATOM     28  C   UNL d   1       5.317   3.904   2.913  0.00  0.00     0.022 A 
ATOM     29  C   UNL d   1       5.203   4.008   1.527  0.00  0.00     0.057 A 
BRANCH  27  30
ATOM     30  C   UNL d   1       4.618   2.814   5.092  0.00  0.00     0.418 C 
ATOM     31  F   UNL d   1       3.734   1.908   5.596  0.00  0.00    -0.166 F 
ATOM     32  F   UNL d   1       5.853   2.352   5.434  0.00  0.00    -0.166 F 
ATOM     33  F   UNL d   1       4.434   3.955   5.809  0.00  0.00    -0.166 F 
ENDBRANCH  27  30
ENDBRANCH  22  23
ENDBRANCH   2  22
TORSDOF 7
