REMARK  2 active torsions:
REMARK  status: ('A' for Active; 'I' for Inactive)
REMARK    1  A    between atoms: C_3  and  C_1 
REMARK       I    between atoms: C_2  and  N_4 
REMARK       I    between atoms: N_8  and  C_2 
REMARK    2  A    between atoms: N_4  and  C_3 
ROOT
ATOM      1  C   UNL d   1      -0.346   0.903  -0.023  0.00  0.00     0.020 A 
ATOM      2  C   UNL d   1      -0.481   0.224  -1.242  0.00  0.00     0.044 A 
ATOM      3  C   UNL d   1      -0.471   0.154   1.154  0.00  0.00     0.126 A 
ATOM      4  F   UNL d   1      -0.372   0.762   2.345  0.00  0.00    -0.205 F 
ATOM      5 CL   UNL d   1      -0.386   1.044  -2.759  0.00  0.00    -0.084 Cl
ATOM      6  C   UNL d   1      -0.799  -1.885  -0.083  0.00  0.00     0.005 A 
ATOM      7  C   UNL d   1      -0.692  -1.222   1.135  0.00  0.00     0.043 A 
ATOM      8  C   UNL d   1      -0.699  -1.161  -1.270  0.00  0.00     0.024 A 
ENDROOT
BRANCH   1   9
ATOM      9  C   UNL d   1      -0.069   2.377   0.072  0.00  0.00     0.167 C 
BRANCH   9  10
ATOM     10  N   UNL d   1      -1.266   3.182   0.014  0.00  0.00    -0.339 N 
ATOM     11  C   UNL d   1      -1.166   4.543   0.093  0.00  0.00     0.315 C 
ATOM     12  O   UNL d   1      -0.098   5.143   0.136  0.00  0.00    -0.247 OA
ATOM     13  N   UNL d   1      -2.390   5.157   0.106  0.00  0.00    -0.347 N 
ATOM     14  C   UNL d   1      -2.533   6.593   0.141  0.00  0.00     0.151 C 
ATOM     15  H   UNL d   1      -3.221   4.592   0.048  0.00  0.00     0.163 HD
ATOM     16  H   UNL d   1      -2.162   2.747   0.162  0.00  0.00     0.164 HD
ENDBRANCH   9  10
ENDBRANCH   1   9
TORSDOF 2
