REMARK  4 active torsions:
REMARK  status: ('A' for Active; 'I' for Inactive)
REMARK    1  A    between atoms: C_9  and  C_3 
REMARK    2  A    between atoms: O_16  and  C_4 
REMARK    3  A    between atoms: C_18  and  C_7 
REMARK    4  A    between atoms: C_15  and  C_18 
ROOT
ATOM      1  N   UNL d   1      -0.661   1.229  -0.068  0.00  0.00    -0.322 N 
ATOM      2  HN  UNL d   1      -1.119   2.139  -0.115  1.00  0.00     0.169 HD
ATOM      3  C   UNL d   1      -1.347   0.083   0.041  0.00  0.00     0.117 A 
ATOM      4  C   UNL d   1       0.670   1.092  -0.112  0.00  0.00     0.150 A 
ATOM      5  N   UNL d   1      -0.779  -1.135   0.134  0.00  0.00    -0.345 N 
ATOM      6  HN  UNL d   1      -1.351  -1.975   0.225  1.00  0.00     0.167 HD
ATOM      7  C   UNL d   1       1.372  -0.096  -0.056  0.00  0.00     0.018 A 
ATOM      8  C   UNL d   1       0.572  -1.214   0.102  0.00  0.00     0.017 A 
ATOM      9  C   UNL d   1       1.120  -2.607   0.202  0.00  0.00     0.069 C 
ENDROOT
BRANCH   3  10
ATOM     10  C   UNL d   1      -2.822   0.144   0.082  0.00  0.00     0.010 A 
ATOM     11  C   UNL d   1      -3.596  -1.032   0.187  0.00  0.00     0.042 A 
ATOM     12  C   UNL d   1      -4.989  -0.982   0.259  0.00  0.00     0.073 A 
ATOM     13 CL   UNL d   1      -5.883  -2.447   0.402  0.00  0.00    -0.081 Cl
ATOM     14  C   UNL d   1      -5.641   0.246   0.222  0.00  0.00     0.138 A 
ATOM     15  C   UNL d   1      -4.912   1.423   0.103  0.00  0.00     0.045 A 
ATOM     16  F   UNL d   1      -6.977   0.319   0.303  0.00  0.00    -0.204 F 
ATOM     17  C   UNL d   1      -3.516   1.371   0.032  0.00  0.00     0.018 A 
ENDBRANCH   3  10
BRANCH   4  18
ATOM     18  O   UNL d   1       1.319   2.281  -0.218  0.00  0.00    -0.346 OA
ATOM     19  H   UNL d   1       0.567   2.900  -0.181  0.00  0.00     0.219 HD
ENDBRANCH   4  18
BRANCH   7  20
ATOM     20  C   UNL d   1       2.870  -0.130  -0.141  0.00  0.00     0.071 C 
BRANCH  20  21
ATOM     21  C   UNL d   1       3.634   0.027   1.148  0.00  0.00    -0.032 C 
ATOM     22  C   UNL d   1       3.150   0.120   2.395  0.00  0.00     0.007 C 
ENDBRANCH  20  21
ENDBRANCH   7  20
TORSDOF 4
