REMARK  3 active torsions:
REMARK  status: ('A' for Active; 'I' for Inactive)
REMARK    1  A    between atoms: C_7  and  C_3 
REMARK    2  A    between atoms: C_9  and  C_4 
REMARK    3  A    between atoms: C_11  and  C_12 
ROOT
ATOM      1  N   UNL d   1       1.182  -0.548   0.606  0.00  0.00    -0.349 N 
ATOM      2  HN  UNL d   1       1.895  -1.050   1.136  1.00  0.00     0.166 HD
ATOM      3  C   UNL d   1       1.202   0.813   0.352  0.00  0.00     0.050 A 
ATOM      4  C   UNL d   1       0.115  -1.106   0.069  0.00  0.00     0.084 A 
ATOM      5  S   UNL d   1      -1.010   0.013  -0.608  0.00  0.00    -0.081 SA
ATOM      6  C   UNL d   1       0.074   1.293  -0.280  0.00  0.00     0.082 A 
ENDROOT
BRANCH   4   7
ATOM      7  C   UNL d   1      -0.133  -2.557   0.031  0.00  0.00    -0.002 A 
ATOM      8  C   UNL d   1       0.406  -3.383   1.024  0.00  0.00     0.015 A 
ATOM      9  C   UNL d   1       0.213  -4.772   0.990  0.00  0.00     0.009 A 
ATOM     10  C   UNL d   1      -0.509  -5.388  -0.048  0.00  0.00    -0.051 A 
ATOM     11  C   UNL d   1      -1.035  -4.551  -1.044  0.00  0.00     0.009 A 
ATOM     12  C   UNL d   1      -0.848  -3.164  -1.006  0.00  0.00     0.015 A 
BRANCH  10  13
ATOM     13  C   UNL d   1      -0.684  -6.916  -0.086  0.00  0.00    -0.024 C 
ATOM     14  C   UNL d   1      -1.483  -7.412  -1.314  0.00  0.00     0.019 C 
ATOM     15  C   UNL d   1       0.700  -7.598  -0.136  0.00  0.00     0.019 C 
ATOM     16  C   UNL d   1      -1.438  -7.396   1.171  0.00  0.00     0.019 C 
ENDBRANCH  10  13
ENDBRANCH   4   7
BRANCH   3  17
ATOM     17  C   UNL d   1       2.342   1.657   0.723  0.00  0.00    -0.003 A 
ATOM     18  C   UNL d   1       3.680   1.218   0.641  0.00  0.00    -0.049 A 
ATOM     19  C   UNL d   1       4.716   2.095   1.028  0.00  0.00     0.014 A 
ATOM     20  C   UNL d   1       4.108  -0.153   0.181  0.00  0.00     0.049 C 
ATOM     21  C   UNL d   1       4.455   3.401   1.458  0.00  0.00    -0.061 A 
ATOM     22  C   UNL d   1       3.133   3.835   1.519  0.00  0.00     0.007 A 
ATOM     23  C   UNL d   1       5.588   4.301   1.847  0.00  0.00     0.048 C 
ATOM     24  C   UNL d   1       2.092   2.973   1.164  0.00  0.00     0.015 A 
ENDBRANCH   3  17
TORSDOF 3
