REMARK  3 active torsions:
REMARK  status: ('A' for Active; 'I' for Inactive)
REMARK    1  A    between atoms: C_3  and  C_1 
REMARK    2  A    between atoms: N_5  and  C_2 
REMARK    3  A    between atoms: O_11  and  C_3 
REMARK       I    between atoms: C_8  and  N_5 
ROOT
ATOM      1  C   UNL d   1       0.033   1.198   0.015  0.00  0.00     0.105 A 
ATOM      2  C   UNL d   1       1.349   0.801  -0.177  0.00  0.00     0.059 A 
ATOM      3  S   UNL d   1      -1.028  -0.148   0.121  0.00  0.00    -0.093 SA
ATOM      4  C   UNL d   1       1.459  -0.624  -0.227  0.00  0.00     0.038 A 
ATOM      5  C   UNL d   1       0.249  -1.259  -0.071  0.00  0.00     0.053 A 
ENDROOT
BRANCH   2   6
ATOM      6  N   UNL d   1       2.399   1.716  -0.281  0.00  0.00    -0.326 N 
ATOM      7  C   UNL d   1       3.664   1.404  -0.739  0.00  0.00     0.218 C 
ATOM      8  O   UNL d   1       3.998   0.348  -1.269  0.00  0.00    -0.274 OA
ATOM      9  C   UNL d   1       4.664   2.514  -0.549  0.00  0.00     0.117 C 
ATOM     10  H   UNL d   1       2.169   2.692  -0.095  0.00  0.00     0.169 HD
ENDBRANCH   2   6
BRANCH   1  11
ATOM     11  C   UNL d   1      -0.464   2.556   0.111  0.00  0.00     0.185 C 
ATOM     12  O   UNL d   1       0.249   3.553   0.197  0.00  0.00    -0.646 OA
BRANCH  11  13
ATOM     13  O   UNL d   1      -1.818   2.650   0.065  0.00  0.00    -0.772 OA
ATOM     14  H   UNL d   1      -2.236   1.772  -0.044  0.00  0.00     0.167 HD
ENDBRANCH  11  13
ENDBRANCH   1  11
TORSDOF 3
