REMARK  4 active torsions:
REMARK  status: ('A' for Active; 'I' for Inactive)
REMARK    1  A    between atoms: C_5  and  C_1 
REMARK    2  A    between atoms: C_9  and  C_2 
REMARK       I    between atoms: N_10  and  C_5 
REMARK    3  A    between atoms: C_8  and  C_6 
REMARK    4  A    between atoms: C_7  and  N_11 
ROOT
ATOM      1  C   UNL d   1       0.444  -2.708   0.086  0.00  0.00     0.258 C 
ATOM      2  N   UNL d   1      -0.720  -3.501   0.065  0.00  0.00    -0.346 N 
ATOM      3  N   UNL d   1      -2.773  -5.494  -0.171  0.00  0.00    -0.266 NA
ATOM      4  O   UNL d   1       1.295  -2.846   0.959  0.00  0.00    -0.267 OA
ATOM      5  C   UNL d   1      -1.680  -3.507  -1.052  0.00  0.00     0.141 C 
ATOM      6  C   UNL d   1      -0.710  -4.711   0.915  0.00  0.00     0.141 C 
ATOM      7  C   UNL d   1      -3.033  -4.159  -0.737  0.00  0.00     0.117 C 
ATOM      8  C   UNL d   1      -2.097  -5.365   1.134  0.00  0.00     0.117 C 
ENDROOT
BRANCH   1   9
ATOM      9  C   UNL d   1       0.595  -1.672  -0.925  0.00  0.00     0.092 C 
ATOM     10  C   UNL d   1       0.902  -0.278  -0.759  0.00  0.00     0.085 C 
ATOM     11  N   UNL d   1       0.812   0.345  -1.947  0.00  0.00    -0.259 N 
ATOM     12  O   UNL d   1       0.709  -0.634  -2.899  0.00  0.00    -0.241 OA
ATOM     13  HN  UNL d   1       0.819   1.352  -2.108  1.00  0.00     0.195 HD
ATOM     14  C   UNL d   1       0.649  -1.845  -2.297  0.00  0.00     0.090 C 
ATOM     15  C   UNL d   1       0.687  -2.996  -3.221  0.00  0.00     0.080 C 
BRANCH  10  16
ATOM     16  C   UNL d   1       1.247   0.489   0.447  0.00  0.00     0.015 A 
ATOM     17  C   UNL d   1       2.250   1.484   0.446  0.00  0.00     0.046 A 
ATOM     18 CL   UNL d   1       3.226   1.872  -0.936  0.00  0.00    -0.083 Cl
ATOM     19  C   UNL d   1       2.553   2.200   1.613  0.00  0.00     0.025 A 
ATOM     20  C   UNL d   1       1.884   1.923   2.801  0.00  0.00     0.002 A 
ATOM     21  C   UNL d   1       0.905   0.935   2.825  0.00  0.00     0.001 A 
ATOM     22  C   UNL d   1       0.582   0.230   1.659  0.00  0.00     0.015 A 
ENDBRANCH  10  16
ENDBRANCH   1   9
BRANCH   3  23
ATOM     23  C   UNL d   1      -3.914  -6.296  -0.189  0.00  0.00     0.097 A 
ATOM     24  C   UNL d   1      -4.253  -7.014  -1.339  0.00  0.00     0.086 A 
ATOM     25  C   UNL d   1      -5.454  -7.746  -1.343  0.00  0.00     0.021 A 
ATOM     26  C   UNL d   1      -6.260  -7.767  -0.215  0.00  0.00     0.018 A 
ATOM     27  C   UNL d   1      -5.832  -7.056   0.887  0.00  0.00     0.089 A 
ATOM     28  N   UNL d   1      -4.691  -6.332   0.919  0.00  0.00    -0.356 N 
ATOM     29  HN  UNL d   1      -4.420  -5.824   1.762  1.00  0.00     0.166 HD
BRANCH  24  30
ATOM     30  C   UNL d   1      -3.407  -7.021  -2.580  0.00  0.00     0.420 C 
ATOM     31  F   UNL d   1      -2.112  -6.619  -2.449  0.00  0.00    -0.166 F 
ATOM     32  F   UNL d   1      -3.333  -8.264  -3.145  0.00  0.00    -0.166 F 
ATOM     33  F   UNL d   1      -3.936  -6.221  -3.554  0.00  0.00    -0.166 F 
ENDBRANCH  24  30
ENDBRANCH   3  23
TORSDOF 4
