REMARK  1 active torsions:
REMARK  status: ('A' for Active; 'I' for Inactive)
REMARK    1  A    between atoms: N_11  and  C_5 
ROOT
ATOM      1  N   UNL d   1       0.038   0.499  -0.481  0.00  0.00    -0.231 N 
ATOM      2  N   UNL d   1      -1.118   1.215  -0.577  0.00  0.00    -0.276 N 
ATOM      3  HN  UNL d   1      -1.170   2.115  -1.054  1.00  0.00     0.189 HD
ATOM      4  C   UNL d   1       0.231  -0.726   0.115  0.00  0.00     0.142 A 
ATOM      5  C   UNL d   1      -2.158   0.654  -0.007  0.00  0.00     0.118 A 
ATOM      6  N   UNL d   1       2.148  -0.087  -0.689  0.00  0.00    -0.293 N 
ATOM      7  HN  UNL d   1       3.137  -0.076  -0.938  1.00  0.00     0.187 HD
ATOM      8  N   UNL d   1       1.488  -1.092  -0.010  0.00  0.00    -0.283 N 
ATOM      9  HN  UNL d   1       1.900  -1.960   0.332  1.00  0.00     0.188 HD
ATOM     10  C   UNL d   1       1.269   0.852  -0.957  0.00  0.00     0.225 A 
ATOM     11  C   UNL d   1      -0.889  -1.333   0.707  0.00  0.00     0.055 A 
ATOM     12  C   UNL d   1      -2.062  -0.691   0.671  0.00  0.00     0.053 A 
ENDROOT
BRANCH   5  13
ATOM     13  N   UNL d   1      -3.377   1.318  -0.063  0.00  0.00    -0.365 N 
ATOM     14  C   UNL d   1      -4.435   1.185   0.947  0.00  0.00     0.134 C 
ATOM     15  C   UNL d   1      -4.741   2.521   1.631  0.00  0.00     0.093 C 
ATOM     16  S   UNL d   1      -5.305   3.793   0.456  0.00  0.00    -0.166 SA
ATOM     17  C   UNL d   1      -3.909   3.664  -0.715  0.00  0.00     0.093 C 
ATOM     18  C   UNL d   1      -3.694   2.225  -1.182  0.00  0.00     0.134 C 
ENDBRANCH   5  13
TORSDOF 1
