REMARK  5 active torsions:
REMARK  status: ('A' for Active; 'I' for Inactive)
REMARK    1  A    between atoms: N_5  and  C_1 
REMARK    2  A    between atoms: C_2  and  C_3 
REMARK       I    between atoms: N_7  and  C_2 
REMARK    3  A    between atoms: C_4  and  N_7 
REMARK    4  A    between atoms: O_20  and  C_6 
REMARK    5  A    between atoms: O_21  and  C_15 
ROOT
ATOM      1  C   UNL d   1       1.338  -0.312   0.227  0.00  0.00     0.137 C 
ATOM      2  C   UNL d   1      -0.871  -1.229   0.220  0.00  0.00     0.101 C 
ATOM      3  C   UNL d   1       0.506  -1.430   0.396  0.00  0.00     0.119 C 
ATOM      4  C   UNL d   1       0.845   0.956  -0.125  0.00  0.00     0.042 C 
ATOM      5  C   UNL d   1      -1.347  -0.010  -0.303  0.00  0.00     0.086 C 
ATOM      6  C   UNL d   1      -0.505   1.094  -0.415  0.00  0.00     0.040 C 
ENDROOT
BRANCH   2   7
ATOM      7  C   UNL d   1      -1.882  -2.183   0.766  0.00  0.00     0.263 C 
ATOM      8  N   UNL d   1      -1.859  -3.457   0.251  0.00  0.00    -0.302 N 
ATOM      9  H   UNL d   1      -1.358  -3.645  -0.603  0.00  0.00     0.171 HD
ATOM     10  O   UNL d   1      -2.689  -1.734   1.568  0.00  0.00    -0.267 OA
BRANCH   8  11
ATOM     11  C   UNL d   1      -2.810  -4.400   0.578  0.00  0.00     0.168 A 
ATOM     12  S   UNL d   1      -3.460  -4.526   2.153  0.00  0.00    -0.038 SA
ATOM     13  C   UNL d   1      -4.378  -5.862   1.588  0.00  0.00     0.066 A 
ATOM     14  C   UNL d   1      -5.292  -6.601   2.496  0.00  0.00     0.078 C 
ATOM     15  N   UNL d   1      -4.168  -6.158   0.321  0.00  0.00    -0.296 N 
ATOM     16  N   UNL d   1      -3.208  -5.341  -0.249  0.00  0.00    -0.279 N 
ATOM     17  HN  UNL d   1      -4.656  -6.900  -0.180  1.00  0.00     0.187 HD
ATOM     18  HN  UNL d   1      -2.851  -5.456  -1.198  1.00  0.00     0.189 HD
ENDBRANCH   8  11
ENDBRANCH   2   7
BRANCH   3  19
ATOM     19  O   UNL d   1       0.916  -2.678   0.767  0.00  0.00    -0.352 OA
ATOM     20  C   UNL d   1       1.972  -3.242  -0.017  0.00  0.00     0.210 C 
ENDBRANCH   3  19
BRANCH   5  21
ATOM     21  O   UNL d   1      -2.624   0.159  -0.775  0.00  0.00    -0.355 OA
ATOM     22  C   UNL d   1      -2.843  -0.658  -1.932  0.00  0.00     0.210 C 
ENDBRANCH   5  21
BRANCH   1  23
ATOM     23  N   UNL d   1       2.768  -0.392   0.440  0.00  0.00    -0.113 N 
ATOM     24  O   UNL d   1       3.169  -0.683   1.572  0.00  0.00    -0.532 OA
ATOM     25  O   UNL d   1       3.486  -0.159  -0.546  0.00  0.00    -0.532 OA
ENDBRANCH   1  23
TORSDOF 5
