REMARK  3 active torsions:
REMARK  status: ('A' for Active; 'I' for Inactive)
REMARK    1  A    between atoms: C_12  and  C_6 
REMARK    2  A    between atoms: O_16  and  C_7 
REMARK    3  A    between atoms: C_13  and  C_10 
ROOT
ATOM      1  C   UNL d   1       0.006   0.647   0.046  0.00  0.00     0.047 A 
ATOM      2  N   UNL d   1       1.151   1.356   0.052  0.00  0.00    -0.335 N 
ATOM      3  HN  UNL d   1       1.140   2.373   0.136  1.00  0.00     0.168 HD
ATOM      4  C   UNL d   1       2.401  -0.710  -0.185  0.00  0.00     0.107 A 
ATOM      5  C   UNL d   1      -0.017  -0.766   0.001  0.00  0.00    -0.018 A 
ATOM      6  C   UNL d   1       1.218  -1.489  -0.125  0.00  0.00     0.008 A 
ATOM      7  C   UNL d   1       2.312   0.681  -0.058  0.00  0.00     0.164 A 
ATOM      8  C   UNL d   1      -1.249   1.453   0.066  0.00  0.00    -0.030 C 
ATOM      9  C   UNL d   1       3.705  -1.278  -0.407  0.00  0.00     0.104 C 
ATOM     10  C   UNL d   1      -1.279   2.742   0.457  0.00  0.00     0.021 C 
ATOM     11  N   UNL d   1       4.751  -1.752  -0.575  0.00  0.00    -0.191 NA
ATOM     12  C   UNL d   1      -1.364  -1.471   0.052  0.00  0.00     0.042 C 
ATOM     13  C   UNL d   1      -2.484   0.690  -0.359  0.00  0.00     0.041 C 
ATOM     14  C   UNL d   1      -2.545  -0.593   0.445  0.00  0.00     0.009 C 
ENDROOT
BRANCH   6  15
ATOM     15  C   UNL d   1       1.262  -2.997  -0.177  0.00  0.00    -0.024 A 
ATOM     16  C   UNL d   1       2.205  -3.747   0.560  0.00  0.00     0.015 A 
ATOM     17  C   UNL d   1       2.229  -5.150   0.528  0.00  0.00     0.043 A 
ATOM     18  C   UNL d   1       1.261  -5.838  -0.182  0.00  0.00     0.116 A 
ATOM     19  C   UNL d   1       0.312  -5.148  -0.913  0.00  0.00     0.043 A 
ATOM     20  F   UNL d   1       1.244  -7.176  -0.170  0.00  0.00    -0.206 F 
ATOM     21  C   UNL d   1       0.353  -3.749  -0.952  0.00  0.00     0.015 A 
ENDBRANCH   6  15
BRANCH   7  22
ATOM     22  O   UNL d   1       3.493   1.405  -0.052  0.00  0.00    -0.340 OA
ATOM     23  C   UNL d   1       3.309   2.809   0.110  0.00  0.00     0.211 C 
ENDBRANCH   7  22
BRANCH  10  24
ATOM     24  C   UNL d   1      -2.519   3.526   0.518  0.00  0.00    -0.035 A 
ATOM     25  C   UNL d   1      -3.311   3.497   1.674  0.00  0.00     0.014 A 
ATOM     26  C   UNL d   1      -4.550   4.142   1.693  0.00  0.00     0.043 A 
ATOM     27  C   UNL d   1      -4.988   4.815   0.558  0.00  0.00     0.116 A 
ATOM     28  C   UNL d   1      -4.210   4.861  -0.593  0.00  0.00     0.043 A 
ATOM     29  F   UNL d   1      -6.184   5.417   0.570  0.00  0.00    -0.206 F 
ATOM     30  C   UNL d   1      -2.971   4.215  -0.615  0.00  0.00     0.014 A 
ENDBRANCH  10  24
TORSDOF 3
