REMARK  3 active torsions:
REMARK  status: ('A' for Active; 'I' for Inactive)
REMARK    1  A    between atoms: C_7  and  N_1 
REMARK    2  A    between atoms: C_8  and  C_4 
REMARK    3  A    between atoms: C_9  and  C_6 
ROOT
ATOM      1  N   UNL d   1       0.970  -0.705  -0.047  0.00  0.00    -0.260 N 
ATOM      2  N   UNL d   1       0.960   0.638   0.181  0.00  0.00    -0.297 N 
ATOM      3  HN  UNL d   1       1.754   1.219   0.449  1.00  0.00     0.187 HD
ATOM      4  C   UNL d   1      -0.338  -1.210  -0.138  0.00  0.00     0.044 C 
ATOM      5  C   UNL d   1      -1.136  -0.075  -0.218  0.00  0.00     0.055 C 
ATOM      6  C   UNL d   1      -0.294   1.038  -0.017  0.00  0.00     0.036 C 
ENDROOT
BRANCH   1   7
ATOM      7  C   UNL d   1       2.242  -1.352  -0.112  0.00  0.00     0.056 C 
ATOM      8  C   UNL d   1       3.301  -0.875   0.674  0.00  0.00     0.033 C 
ATOM      9  C   UNL d   1       4.506  -1.597   0.744  0.00  0.00     0.021 C 
ATOM     10  C   UNL d   1       4.658  -2.765   0.014  0.00  0.00     0.011 C 
ATOM     11  C   UNL d   1       3.655  -3.188  -0.846  0.00  0.00     0.021 C 
ATOM     12 BR   UNL d   1       6.230  -3.796   0.194  0.00  0.00    -0.051 Br
ATOM     13  C   UNL d   1       2.465  -2.460  -0.931  0.00  0.00     0.033 C 
ENDBRANCH   1   7
BRANCH   4  14
ATOM     14  C   UNL d   1      -0.825  -2.669  -0.059  0.00  0.00    -0.007 C 
ATOM     15  C   UNL d   1      -0.019  -3.540   0.925  0.00  0.00     0.021 C 
ATOM     16  C   UNL d   1      -2.279  -2.709   0.503  0.00  0.00     0.021 C 
ATOM     17  C   UNL d   1      -0.935  -3.308  -1.458  0.00  0.00     0.021 C 
ENDBRANCH   4  14
BRANCH   6  18
ATOM     18  C   UNL d   1      -0.693   2.509   0.022  0.00  0.00    -0.007 C 
ATOM     19  C   UNL d   1       0.516   3.442   0.250  0.00  0.00     0.021 C 
ATOM     20  C   UNL d   1      -1.347   2.906  -1.319  0.00  0.00     0.021 C 
ATOM     21  C   UNL d   1      -1.706   2.767   1.157  0.00  0.00     0.021 C 
ENDBRANCH   6  18
TORSDOF 3
