REMARK  5 active torsions:
REMARK  status: ('A' for Active; 'I' for Inactive)
REMARK    1  A    between atoms: C_8  and  N_1 
REMARK    2  A    between atoms: C_6  and  C_7 
REMARK       I    between atoms: N_9  and  C_6 
REMARK    3  A    between atoms: C_7  and  C_8 
REMARK    4  A    between atoms: C_11  and  N_9 
REMARK    5  A    between atoms: O_20  and  C_12 
ROOT
ATOM      1  C   UNL d   1       3.829  -3.964  -0.101  0.00  0.00     0.223 C 
ATOM      2  N   UNL d   1       4.982  -4.469   0.476  0.00  0.00    -0.327 N 
ATOM      3  O   UNL d   1       3.006  -4.601  -0.755  0.00  0.00    -0.273 OA
ATOM      4  H   UNL d   1       5.515  -3.848   1.072  0.00  0.00     0.169 HD
ENDROOT
BRANCH   1   5
ATOM      5  C   UNL d   1       3.637  -2.482   0.130  0.00  0.00     0.123 C 
BRANCH   5   6
ATOM      6  C   UNL d   1       2.145  -2.157   0.162  0.00  0.00     0.138 C 
BRANCH   6   7
ATOM      7  N   UNL d   1       1.906  -0.724   0.182  0.00  0.00    -0.355 N 
ATOM      8  C   UNL d   1       1.698   0.013   1.318  0.00  0.00     0.099 A 
ATOM      9  C   UNL d   1       1.578   1.340   0.956  0.00  0.00    -0.034 A 
ATOM     10  C   UNL d   1       1.347   2.491   1.867  0.00  0.00     0.050 C 
ATOM     11  C   UNL d   1       1.708   1.397  -0.468  0.00  0.00    -0.002 A 
ATOM     12  C   UNL d   1       1.873   0.089  -0.930  0.00  0.00     0.045 A 
ATOM     13  C   UNL d   1       1.688   2.448  -1.408  0.00  0.00     0.014 A 
ATOM     14  C   UNL d   1       1.987  -0.211  -2.298  0.00  0.00     0.030 A 
ATOM     15  C   UNL d   1       1.953   0.848  -3.208  0.00  0.00     0.002 A 
ATOM     16  C   UNL d   1       1.817   2.162  -2.772  0.00  0.00     0.001 A 
ENDBRANCH   6   7
ENDBRANCH   5   6
ENDBRANCH   1   5
BRANCH   2  17
ATOM     17  C   UNL d   1       5.373  -5.827   0.482  0.00  0.00     0.034 A 
ATOM     18  C   UNL d   1       4.814  -6.791  -0.357  0.00  0.00     0.032 A 
ATOM     19  C   UNL d   1       5.167  -8.137  -0.225  0.00  0.00     0.039 A 
ATOM     20  C   UNL d   1       6.077  -8.541   0.749  0.00  0.00     0.068 A 
ATOM     21  C   UNL d   1       6.698  -7.576   1.538  0.00  0.00     0.039 A 
ATOM     22  C   UNL d   1       6.353  -6.223   1.399  0.00  0.00     0.032 A 
BRANCH  20  23
ATOM     23  O   UNL d   1       6.275  -9.891   0.821  0.00  0.00    -0.356 OA
ATOM     24  C   UNL d   1       6.873 -10.384   2.014  0.00  0.00     0.210 C 
ENDBRANCH  20  23
ENDBRANCH   2  17
TORSDOF 5
