REMARK  2 active torsions:
REMARK  status: ('A' for Active; 'I' for Inactive)
REMARK    1  A    between atoms: N_7  and  C_4 
REMARK    2  A    between atoms: C_14  and  N_7 
ROOT
ATOM      1  C   UNL d   1      -2.358  -0.738   0.111  0.00  0.00     0.103 A 
ATOM      2  C   UNL d   1      -1.229  -1.703   0.033  0.00  0.00     0.200 A 
ATOM      3  C   UNL d   1      -1.780   0.633   0.230  0.00  0.00     0.200 A 
ATOM      4  C   UNL d   1      -3.668  -1.042   0.094  0.00  0.00     0.132 C 
ATOM      5  C   UNL d   1      -0.009  -0.890   0.037  0.00  0.00     0.029 A 
ATOM      6  C   UNL d   1      -0.328   0.459   0.134  0.00  0.00     0.029 A 
ATOM      7  C   UNL d   1      -4.119  -2.406   0.079  0.00  0.00     0.118 C 
ATOM      8  N   UNL d   1      -4.564  -3.476   0.064  0.00  0.00    -0.190 NA
ATOM      9  O   UNL d   1      -2.332   1.696   0.419  0.00  0.00    -0.286 OA
ATOM     10  O   UNL d   1      -1.270  -2.911  -0.039  0.00  0.00    -0.286 OA
ATOM     11  C   UNL d   1       1.302  -1.321  -0.052  0.00  0.00     0.016 A 
ATOM     12  C   UNL d   1       0.649   1.438   0.138  0.00  0.00     0.016 A 
ATOM     13  C   UNL d   1       1.980   1.022   0.039  0.00  0.00     0.001 A 
ATOM     14  C   UNL d   1       2.304  -0.346  -0.052  0.00  0.00     0.001 A 
ENDROOT
BRANCH   4  15
ATOM     15  N   UNL d   1      -4.721  -0.134   0.117  0.00  0.00    -0.347 N 
ATOM     16  H   UNL d   1      -5.580  -0.469   0.552  0.00  0.00     0.167 HD
BRANCH  15  17
ATOM     17  C   UNL d   1      -4.980   0.821  -0.895  0.00  0.00     0.034 A 
ATOM     18  C   UNL d   1      -4.484   0.706  -2.202  0.00  0.00     0.052 A 
ATOM     19  C   UNL d   1      -4.665   1.742  -3.129  0.00  0.00     0.046 A 
ATOM     20  C   UNL d   1      -4.128   1.620  -4.452  0.00  0.00     0.099 C 
ATOM     21  C   UNL d   1      -5.350   2.900  -2.754  0.00  0.00     0.023 A 
ATOM     22  N   UNL d   1      -3.683   1.518  -5.521  0.00  0.00    -0.191 NA
ATOM     23  C   UNL d   1      -5.877   3.009  -1.468  0.00  0.00     0.004 A 
ATOM     24  C   UNL d   1      -5.702   1.971  -0.551  0.00  0.00     0.029 A 
ENDBRANCH  15  17
ENDBRANCH   4  15
TORSDOF 2
