REMARK  3 active torsions:
REMARK  status: ('A' for Active; 'I' for Inactive)
REMARK    1  A    between atoms: C_2  and  C_1 
REMARK    2  A    between atoms: C_16  and  C_8 
REMARK    3  A    between atoms: C_11  and  C_15 
ROOT
ATOM      1  C   UNL d   1      -0.307  -1.062   0.064  0.00  0.00     0.179 A 
ATOM      2  O   UNL d   1      -1.105   0.029  -0.180  0.00  0.00    -0.272 OA
ATOM      3  N   UNL d   1       0.924  -0.707   0.385  0.00  0.00    -0.277 N 
ATOM      4  HN  UNL d   1       1.697  -1.333   0.609  1.00  0.00     0.189 HD
ATOM      5  N   UNL d   1       0.967   0.670   0.361  0.00  0.00    -0.277 N 
ATOM      6  HN  UNL d   1       1.775   1.260   0.559  1.00  0.00     0.189 HD
ATOM      7  C   UNL d   1      -0.243   1.073   0.033  0.00  0.00     0.174 A 
ENDROOT
BRANCH   7   8
ATOM      8  C   UNL d   1      -0.765   2.424  -0.129  0.00  0.00     0.017 A 
ATOM      9  C   UNL d   1      -2.118   2.666  -0.407  0.00  0.00     0.017 A 
ATOM     10  C   UNL d   1      -2.593   3.972  -0.568  0.00  0.00     0.017 A 
ATOM     11  C   UNL d   1      -1.726   5.067  -0.456  0.00  0.00     0.048 A 
ATOM     12  C   UNL d   1      -0.374   4.829  -0.166  0.00  0.00     0.017 A 
ATOM     13  C   UNL d   1       0.099   3.523  -0.005  0.00  0.00     0.017 A 
BRANCH  11  14
ATOM     14  C   UNL d   1      -2.222   6.481  -0.647  0.00  0.00     0.417 C 
ATOM     15  F   UNL d   1      -3.550   6.555  -0.938  0.00  0.00    -0.166 F 
ATOM     16  F   UNL d   1      -2.038   7.253   0.459  0.00  0.00    -0.166 F 
ATOM     17  F   UNL d   1      -1.581   7.122  -1.663  0.00  0.00    -0.166 F 
ENDBRANCH  11  14
ENDBRANCH   7   8
BRANCH   1  18
ATOM     18  C   UNL d   1      -0.762  -2.466  -0.007  0.00  0.00     0.072 A 
ATOM     19  C   UNL d   1      -2.011  -2.911  -0.366  0.00  0.00     0.089 A 
ATOM     20  O   UNL d   1      -2.027  -4.271  -0.294  0.00  0.00    -0.242 OA
ATOM     21  C   UNL d   1      -3.265  -2.269  -0.799  0.00  0.00     0.080 C 
ATOM     22  N   UNL d   1      -0.786  -4.731   0.110  0.00  0.00    -0.265 N 
ATOM     23  C   UNL d   1      -0.027  -3.640   0.276  0.00  0.00     0.045 A 
ATOM     24  HN  UNL d   1      -0.507  -5.702   0.251  1.00  0.00     0.194 HD
ATOM     25  C   UNL d   1       1.384  -3.770   0.709  0.00  0.00     0.071 C 
ENDBRANCH   1  18
TORSDOF 3
