REMARK  5 active torsions:
REMARK  status: ('A' for Active; 'I' for Inactive)
REMARK    1  A    between atoms: N_5  and  C_1 
REMARK    2  A    between atoms: C_9  and  C_2 
REMARK       I    between atoms: C_8  and  N_5 
REMARK    3  A    between atoms: S_16  and  C_6 
REMARK    4  A    between atoms: C_10  and  C_8 
REMARK    5  A    between atoms: C_11  and  C_12 
ROOT
ATOM      1  C   UNL d   1      -1.963   1.328   0.365  0.00  0.00     0.138 A 
ATOM      2  C   UNL d   1      -2.308  -0.063   0.342  0.00  0.00     0.071 A 
ATOM      3  N   UNL d   1      -2.963   2.070   0.845  0.00  0.00    -0.284 N 
ATOM      4  HN  UNL d   1      -2.997   3.085   0.943  1.00  0.00     0.188 HD
ATOM      5  C   UNL d   1      -3.557  -0.109   0.927  0.00  0.00     0.100 A 
ATOM      6  N   UNL d   1      -3.909   1.184   1.168  0.00  0.00    -0.292 N 
ATOM      7  H   UNL d   1      -4.773   1.526   1.574  0.00  0.00     0.187 HD
ENDROOT
BRANCH   1   8
ATOM      8  N   UNL d   1      -0.724   1.819  -0.011  0.00  0.00    -0.307 N 
ATOM      9  C   UNL d   1      -0.372   3.153  -0.025  0.00  0.00     0.257 C 
ATOM     10  O   UNL d   1      -1.112   4.126   0.004  0.00  0.00    -0.267 OA
ATOM     11  H   UNL d   1      -0.022   1.093  -0.099  0.00  0.00     0.170 HD
BRANCH   9  12
ATOM     12  C   UNL d   1       1.100   3.390  -0.005  0.00  0.00     0.032 C 
ATOM     13  C   UNL d   1       2.003   2.545  -0.651  0.00  0.00     0.017 C 
ATOM     14  C   UNL d   1       3.370   2.657  -0.381  0.00  0.00     0.009 C 
ATOM     15  C   UNL d   1       3.859   3.592   0.552  0.00  0.00    -0.051 C 
ATOM     16  C   UNL d   1       2.949   4.537   1.056  0.00  0.00     0.009 C 
ATOM     17  C   UNL d   1       1.582   4.435   0.785  0.00  0.00     0.017 C 
BRANCH  15  18
ATOM     18  C   UNL d   1       5.314   3.514   1.052  0.00  0.00    -0.024 C 
ATOM     19  C   UNL d   1       5.523   4.243   2.401  0.00  0.00     0.019 C 
ATOM     20  C   UNL d   1       5.715   2.038   1.294  0.00  0.00     0.019 C 
ATOM     21  C   UNL d   1       6.265   4.131   0.014  0.00  0.00     0.019 C 
ENDBRANCH  15  18
ENDBRANCH   9  12
ENDBRANCH   1   8
BRANCH   2  22
ATOM     22  C   UNL d   1      -1.537  -1.191  -0.151  0.00  0.00     0.049 A 
ATOM     23  N   UNL d   1      -0.196  -1.128   0.071  0.00  0.00    -0.365 N 
ATOM     24  C   UNL d   1       0.547  -2.165  -0.383  0.00  0.00     0.088 A 
ATOM     25  HN  UNL d   1       0.229  -0.337   0.556  1.00  0.00     0.165 HD
ATOM     26  C   UNL d   1       0.031  -3.244  -1.081  0.00  0.00     0.017 A 
ATOM     27  C   UNL d   1      -1.334  -3.269  -1.332  0.00  0.00     0.004 A 
ATOM     28  C   UNL d   1      -2.133  -2.227  -0.863  0.00  0.00     0.030 A 
ENDBRANCH   2  22
BRANCH   5  29
ATOM     29  S   UNL d   1      -4.664  -1.356   1.395  0.00  0.00    -0.114 SA
ATOM     30  C   UNL d   1      -3.962  -1.836   2.994  0.00  0.00     0.097 C 
ENDBRANCH   5  29
TORSDOF 5
