REMARK  5 active torsions:
REMARK  status: ('A' for Active; 'I' for Inactive)
REMARK    1  A    between atoms: C_8  and  C_1 
REMARK    2  A    between atoms: N_7  and  C_2 
REMARK    3  A    between atoms: C_10  and  C_3 
REMARK       I    between atoms: C_9  and  N_7 
REMARK    4  A    between atoms: C_11  and  C_9 
REMARK    5  A    between atoms: O_22  and  C_19 
ROOT
ATOM      1  C   UNL d   1       1.613   0.914  -0.190  0.00  0.00     0.147 A 
ATOM      2  C   UNL d   1       0.282  -0.886  -0.027  0.00  0.00     0.138 A 
ATOM      3  C   UNL d   1       1.625  -0.511  -0.071  0.00  0.00     0.053 A 
ATOM      4  N   UNL d   1       0.353   1.377  -0.227  0.00  0.00    -0.292 N 
ATOM      5  HN  UNL d   1       0.053   2.351  -0.283  1.00  0.00     0.187 HD
ATOM      6  N   UNL d   1      -0.432   0.281  -0.176  0.00  0.00    -0.280 N 
ATOM      7  C   UNL d   1      -1.859   0.509  -0.145  0.00  0.00     0.179 C 
ENDROOT
BRANCH   2   8
ATOM      8  N   UNL d   1      -0.109  -2.213   0.155  0.00  0.00    -0.310 N 
ATOM      9  C   UNL d   1      -1.300  -2.804  -0.392  0.00  0.00     0.231 C 
ATOM     10  O   UNL d   1      -2.078  -2.109  -1.020  0.00  0.00    -0.272 OA
ATOM     11  H   UNL d   1       0.587  -2.816   0.574  0.00  0.00     0.170 HD
BRANCH   9  12
ATOM     12  C   UNL d   1      -1.417  -4.327  -0.275  0.00  0.00     0.030 C 
ATOM     13  C   UNL d   1      -0.864  -4.860   1.051  0.00  0.00     0.025 C 
ATOM     14  C   UNL d   1      -2.905  -4.714  -0.375  0.00  0.00     0.025 C 
ATOM     15  C   UNL d   1      -0.656  -4.961  -1.448  0.00  0.00     0.025 C 
ENDBRANCH   9  12
ENDBRANCH   2   8
BRANCH   3  16
ATOM     16  C   UNL d   1       2.750  -1.439  -0.123  0.00  0.00    -0.020 A 
ATOM     17  C   UNL d   1       2.704  -2.559  -0.970  0.00  0.00     0.015 A 
ATOM     18  C   UNL d   1       3.799  -3.421  -1.095  0.00  0.00     0.037 A 
ATOM     19  C   UNL d   1       4.977  -3.147  -0.409  0.00  0.00     0.068 A 
ATOM     20  C   UNL d   1       5.038  -2.026   0.421  0.00  0.00     0.037 A 
ATOM     21  C   UNL d   1       3.927  -1.192   0.588  0.00  0.00     0.015 A 
BRANCH  19  22
ATOM     22  O   UNL d   1       6.142  -3.850  -0.522  0.00  0.00    -0.356 OA
ATOM     23  C   UNL d   1       6.024  -5.220  -0.888  0.00  0.00     0.210 C 
ENDBRANCH  19  22
ENDBRANCH   3  16
BRANCH   1  24
ATOM     24  C   UNL d   1       2.802   1.844  -0.269  0.00  0.00     0.434 C 
ATOM     25  F   UNL d   1       3.828   1.308  -0.982  0.00  0.00    -0.165 F 
ATOM     26  F   UNL d   1       2.514   3.037  -0.851  0.00  0.00    -0.165 F 
ATOM     27  F   UNL d   1       3.294   2.116   0.971  0.00  0.00    -0.165 F 
ENDBRANCH   1  24
TORSDOF 5
