REMARK  4 active torsions:
REMARK  status: ('A' for Active; 'I' for Inactive)
REMARK    1  A    between atoms: N_11  and  C_1 
REMARK    2  A    between atoms: N_5  and  N_11 
REMARK    3  A    between atoms: C_10  and  N_5 
REMARK    4  A    between atoms: O_18  and  C_15 
ROOT
ATOM      1  C   UNL d   1       4.957   1.768  -0.803  0.00  0.00    -0.006 A 
ATOM      2  C   UNL d   1       5.754   0.932  -1.600  0.00  0.00    -0.043 A 
ATOM      3  C   UNL d   1       3.463   1.686  -0.877  0.00  0.00     0.036 C 
ATOM      4  C   UNL d   1       5.565   2.678   0.071  0.00  0.00     0.017 A 
ATOM      5  C   UNL d   1       7.151   1.022  -1.500  0.00  0.00     0.044 A 
ATOM      6  C   UNL d   1       7.758   1.941  -0.640  0.00  0.00     0.068 A 
ATOM      7  C   UNL d   1       6.959   2.766   0.149  0.00  0.00     0.037 A 
ATOM      8  C   UNL d   1       5.138  -0.081  -2.522  0.00  0.00     0.040 C 
ATOM      9  C   UNL d   1       2.860   0.774  -1.942  0.00  0.00     0.060 C 
ATOM     10  C   UNL d   1       3.824   0.447  -3.072  0.00  0.00     0.011 C 
ENDROOT
BRANCH   3  11
ATOM     11  N   UNL d   1       2.752   2.328   0.008  0.00  0.00    -0.302 N 
ATOM     12  HN  UNL d   1       3.195   2.886   0.737  1.00  0.00     0.186 HD
BRANCH  11  13
ATOM     13  N   UNL d   1       1.400   2.225  -0.078  0.00  0.00    -0.279 N 
ATOM     14  H   UNL d   1       0.948   2.280  -0.986  0.00  0.00     0.189 HD
BRANCH  13  15
ATOM     15  C   UNL d   1       0.535   2.220   0.967  0.00  0.00     0.163 A 
ATOM     16  N   UNL d   1      -0.767   2.130   0.789  0.00  0.00    -0.339 N 
ATOM     17  C   UNL d   1      -1.426   2.049   2.004  0.00  0.00     0.014 A 
ATOM     18  HN  UNL d   1      -1.227   2.120  -0.121  1.00  0.00     0.168 HD
ATOM     19  C   UNL d   1      -2.901   1.879   2.009  0.00  0.00     0.068 C 
ATOM     20  C   UNL d   1      -0.604   2.116   3.110  0.00  0.00     0.077 A 
ATOM     21  S   UNL d   1       1.027   2.276   2.620  0.00  0.00    -0.062 SA
ENDBRANCH  13  15
ENDBRANCH  11  13
ENDBRANCH   3  11
BRANCH   6  22
ATOM     22  O   UNL d   1       9.125   1.930  -0.671  0.00  0.00    -0.356 OA
ATOM     23  C   UNL d   1       9.796   2.869   0.160  0.00  0.00     0.210 C 
ENDBRANCH   6  22
TORSDOF 4
