REMARK  5 active torsions:
REMARK  status: ('A' for Active; 'I' for Inactive)
REMARK    1  A    between atoms: N_2  and  S_1 
REMARK    2  A    between atoms: C_3  and  S_1 
REMARK    3  A    between atoms: N_4  and  C_14 
REMARK    4  A    between atoms: O_16  and  C_5 
REMARK    5  A    between atoms: C_23  and  O_16 
ROOT
ATOM      1  C   UNL d   1       0.649   1.649  -0.741  0.00  0.00     0.078 A 
ATOM      2  C   UNL d   1      -0.377   4.050  -1.770  0.00  0.00     0.119 A 
ATOM      3  C   UNL d   1       0.611   4.053  -0.765  0.00  0.00     0.071 A 
ATOM      4  C   UNL d   1      -0.875   2.813  -2.215  0.00  0.00     0.071 A 
ATOM      5  C   UNL d   1      -0.332   1.617  -1.732  0.00  0.00     0.051 A 
ATOM      6  C   UNL d   1       1.120   2.862  -0.244  0.00  0.00     0.051 A 
ATOM      7 CL   UNL d   1      -2.233   2.651  -3.274  0.00  0.00    -0.081 Cl
ATOM      8 CL   UNL d   1       1.203   5.534  -0.091  0.00  0.00    -0.081 Cl
ENDROOT
BRANCH   1   9
ATOM      9  S   UNL d   1       1.206   0.139   0.002  0.00  0.00     0.243 S 
ATOM     10  O   UNL d   1       0.985   0.274   1.419  0.00  0.00    -0.206 OA
ATOM     11  O   UNL d   1       0.639  -0.961  -0.749  0.00  0.00    -0.206 OA
BRANCH   9  12
ATOM     12  N   UNL d   1       2.885   0.173  -0.286  0.00  0.00    -0.202 NA
ATOM     13  C   UNL d   1       3.340  -0.003  -1.702  0.00  0.00     0.139 C 
ATOM     14  C   UNL d   1       3.374  -1.489  -2.115  0.00  0.00     0.132 C 
ATOM     15  C   UNL d   1       3.964  -1.644  -3.510  0.00  0.00     0.041 C 
ATOM     16  O   UNL d   1       4.177  -2.259  -1.201  0.00  0.00    -0.379 OA
ATOM     17  C   UNL d   1       3.651  -2.171   0.138  0.00  0.00     0.132 C 
ATOM     18  C   UNL d   1       3.693  -0.711   0.619  0.00  0.00     0.139 C 
ATOM     19  C   UNL d   1       4.492  -3.064   1.040  0.00  0.00     0.041 C 
ENDBRANCH   9  12
ENDBRANCH   1   9
BRANCH   2  20
ATOM     20  O   UNL d   1      -0.894   5.282  -2.102  0.00  0.00    -0.307 OA
BRANCH  20  21
ATOM     21  C   UNL d   1      -1.129   5.663  -3.400  0.00  0.00     0.076 A 
ATOM     22  C   UNL d   1      -2.015   6.740  -3.532  0.00  0.00     0.040 A 
ATOM     23  C   UNL d   1      -2.398   7.202  -4.793  0.00  0.00     0.039 A 
ATOM     24  C   UNL d   1      -1.886   6.573  -5.933  0.00  0.00     0.103 A 
ATOM     25  C   UNL d   1      -0.966   5.523  -5.812  0.00  0.00     0.039 A 
ATOM     26  C   UNL d   1      -0.562   5.093  -4.543  0.00  0.00     0.040 A 
BRANCH  24  27
ATOM     27  N   UNL d   1      -2.323   7.016  -7.263  0.00  0.00    -0.116 N 
ATOM     28  O   UNL d   1      -3.098   7.980  -7.328  0.00  0.00    -0.532 OA
ATOM     29  O   UNL d   1      -1.887   6.399  -8.246  0.00  0.00    -0.532 OA
ENDBRANCH  24  27
ENDBRANCH  20  21
ENDBRANCH   2  20
TORSDOF 5
