REMARK  2 active torsions:
REMARK  status: ('A' for Active; 'I' for Inactive)
REMARK    1  A    between atoms: C_7  and  C_1 
REMARK    2  A    between atoms: C_8  and  C_5 
ROOT
ATOM      1  C   UNL d   1      -0.107   1.045   0.042  0.00  0.00     0.158 A 
ATOM      2  N   UNL d   1      -1.236   0.364  -0.005  0.00  0.00    -0.343 N 
ATOM      3  HN  UNL d   1      -2.189   0.727  -0.027  1.00  0.00     0.167 HD
ATOM      4  O   UNL d   1       1.021   0.262   0.044  0.00  0.00    -0.291 OA
ATOM      5  C   UNL d   1       0.545  -1.027   0.015  0.00  0.00     0.103 A 
ATOM      6  C   UNL d   1      -0.830  -0.944  -0.017  0.00  0.00     0.128 A 
ENDROOT
BRANCH   1   7
ATOM      7  C   UNL d   1       0.079   2.492   0.128  0.00  0.00     0.015 A 
ATOM      8  C   UNL d   1      -1.050   3.327   0.172  0.00  0.00     0.017 A 
ATOM      9  C   UNL d   1      -0.916   4.713   0.291  0.00  0.00     0.025 A 
ATOM     10  C   UNL d   1       0.352   5.279   0.365  0.00  0.00     0.034 A 
ATOM     11  C   UNL d   1       1.486   4.471   0.312  0.00  0.00     0.025 A 
ATOM     12 CL   UNL d   1       0.521   6.982   0.530  0.00  0.00    -0.084 Cl
ATOM     13  C   UNL d   1       1.350   3.083   0.194  0.00  0.00     0.017 A 
ENDBRANCH   1   7
BRANCH   5  14
ATOM     14  C   UNL d   1       1.515  -2.113   0.048  0.00  0.00    -0.001 A 
ATOM     15  C   UNL d   1       2.897  -1.871  -0.002  0.00  0.00     0.015 A 
ATOM     16  C   UNL d   1       3.812  -2.929   0.056  0.00  0.00     0.020 A 
ATOM     17  C   UNL d   1       3.353  -4.239   0.164  0.00  0.00     0.011 A 
ATOM     18  C   UNL d   1       1.987  -4.502   0.206  0.00  0.00     0.020 A 
ATOM     19 BR   UNL d   1       4.586  -5.667   0.259  0.00  0.00    -0.051 Br
ATOM     20  C   UNL d   1       1.075  -3.443   0.147  0.00  0.00     0.015 A 
ENDBRANCH   5  14
TORSDOF 2
