REMARK  7 active torsions:
REMARK  status: ('A' for Active; 'I' for Inactive)
REMARK    1  A    between atoms: C7_4  and  C5_3 
REMARK    2  A    between atoms: N_9  and  C7_4 
REMARK    3  A    between atoms: C_5  and  CA_6 
REMARK    4  A    between atoms: OXT_10  and  C_5 
REMARK    5  A    between atoms: CA_6  and  N_9 
REMARK    6  A    between atoms: CB_8  and  CA_6 
REMARK    7  A    between atoms: CG_11  and  CB_8 
ROOT
ATOM      1  N1  <1> d   1       1.052   0.039   0.277  0.00  0.00    -0.197 NA
ATOM      2  C2  <1> d   1       2.212   0.001   0.212  0.00  0.00     0.060 C 
ATOM      3  C5  <1> d   1       3.677  -0.046   0.134  0.00  0.00     0.153 C 
ENDROOT
BRANCH   3   4
ATOM      4  C7  <1> d   1       4.128  -0.918  -1.045  0.00  0.00     0.285 C 
BRANCH   4   5
ATOM      5  N   PHE d   1       5.590  -0.874  -1.188  0.00  0.00     0.099 N 
ATOM      6  H   PHE d   1       5.883   0.081  -1.399  0.00  0.00     0.317 HD
BRANCH   5   7
ATOM      7  CA  PHE d   1       6.126  -1.780  -2.246  0.00  0.00     0.321 C 
BRANCH   7   8
ATOM      8  C   PHE d   1       5.782  -1.251  -3.670  0.00  0.00     0.174 C 
ATOM      9  O   PHE d   1       4.924  -0.408  -3.898  0.00  0.00    -0.648 OA
BRANCH   8  10
ATOM     10  OXT PHE d   1       6.462  -1.817  -4.685  0.00  0.00    -0.775 OA
ATOM     11  HXT PHE d   1       7.114  -2.504  -4.471  0.00  0.00     0.167 HD
ENDBRANCH   8  10
ENDBRANCH   7   8
BRANCH   7  12
ATOM     12  CB  PHE d   1       7.663  -1.885  -2.071  0.00  0.00     0.085 C 
BRANCH  12  13
ATOM     13  CG  PHE d   1       8.131  -2.355  -0.711  0.00  0.00    -0.056 A 
ATOM     14  CD1 PHE d   1       7.779  -3.621  -0.225  0.00  0.00     0.007 A 
ATOM     15  CE1 PHE d   1       8.208  -4.040   1.036  0.00  0.00     0.001 A 
ATOM     16  CZ  PHE d   1       9.000  -3.200   1.818  0.00  0.00     0.000 A 
ATOM     17  CE2 PHE d   1       9.372  -1.948   1.337  0.00  0.00     0.001 A 
ATOM     18  CD2 PHE d   1       8.943  -1.528   0.076  0.00  0.00     0.007 A 
ENDBRANCH  12  13
ENDBRANCH   7  12
ENDBRANCH   5   7
ENDBRANCH   4   5
ENDBRANCH   3   4
TORSDOF 7
