REMARK  2 active torsions:
REMARK  status: ('A' for Active; 'I' for Inactive)
REMARK    1  A    between atoms: C_9  and  C_1 
REMARK    2  A    between atoms: O_13  and  C_1 
ROOT
ATOM      1  C   UNL d   1      -0.363  -1.213  -0.116  0.00  0.00     0.233 C 
ATOM      2  C   UNL d   1       2.175   1.495  -0.139  0.00  0.00     0.036 A 
ATOM      3  C   UNL d   1       0.988   0.670  -0.100  0.00  0.00     0.043 C 
ATOM      4  S   UNL d   1       3.198   1.389  -1.504  0.00  0.00    -0.087 SA
ATOM      5  C   UNL d   1       2.639   2.423   0.782  0.00  0.00    -0.031 A 
ATOM      6  N   UNL d   1      -0.112   1.044   0.486  0.00  0.00    -0.321 N 
ATOM      7  HN  UNL d   1      -0.269   1.915   0.993  1.00  0.00     0.180 HD
ATOM      8  C   UNL d   1       0.915  -0.681  -0.758  0.00  0.00     0.125 C 
ATOM      9  N   UNL d   1      -1.011   0.042   0.288  0.00  0.00    -0.198 NA
ATOM     10  C   UNL d   1       3.854   3.074   0.324  0.00  0.00    -0.012 A 
ATOM     11  C   UNL d   1       4.256   2.604  -0.927  0.00  0.00     0.016 A 
ATOM     12  C   UNL d   1       2.006   2.742   2.103  0.00  0.00     0.050 C 
ATOM     13  C   UNL d   1       4.653   4.075   0.936  0.00  0.00     0.013 A 
ATOM     14  C   UNL d   1       5.400   3.104  -1.578  0.00  0.00     0.019 A 
ATOM     15  C   UNL d   1       5.793   4.572   0.297  0.00  0.00     0.001 A 
ATOM     16  C   UNL d   1       6.160   4.093  -0.951  0.00  0.00     0.001 A 
ATOM     17  H   UNL d   1      -1.591  -0.111   1.114  0.00  0.00     0.150 HD
ENDROOT
BRANCH   1  18
ATOM     18  C   UNL d   1      -1.187  -2.112  -1.095  0.00  0.00     0.434 C 
ATOM     19  F   UNL d   1      -0.660  -2.160  -2.339  0.00  0.00    -0.166 F 
ATOM     20  F   UNL d   1      -1.194  -3.393  -0.632  0.00  0.00    -0.166 F 
ATOM     21  F   UNL d   1      -2.478  -1.731  -1.207  0.00  0.00    -0.166 F 
ENDBRANCH   1  18
BRANCH   1  22
ATOM     22  O   UNL d   1       0.010  -1.925   1.081  0.00  0.00    -0.366 OA
ATOM     23  H   UNL d   1       0.101  -2.866   0.841  0.00  0.00     0.212 HD
ENDBRANCH   1  22
TORSDOF 2
