REMARK  7 active torsions:
REMARK  status: ('A' for Active; 'I' for Inactive)
REMARK    1  A    between atoms: O_20  and  C_1 
REMARK    2  A    between atoms: O_22  and  C_2 
REMARK    3  A    between atoms: O_23  and  C_3 
REMARK    4  A    between atoms: C_5  and  C_6 
REMARK       I    between atoms: N_15  and  C_5 
REMARK    5  A    between atoms: C_7  and  C_10 
REMARK    6  A    between atoms: C_21  and  N_15 
REMARK    7  A    between atoms: C_19  and  C_21 
ROOT
ATOM      1  C   UNL d   1      -5.063  -0.170  -0.749  0.00  0.00     0.241 C 
ATOM      2  N   UNL d   1      -5.944  -1.214  -0.885  0.00  0.00    -0.353 N 
ATOM      3  O   UNL d   1      -5.386   1.007  -0.724  0.00  0.00    -0.269 OA
ATOM      4  H   UNL d   1      -5.614  -2.166  -0.860  0.00  0.00     0.163 HD
ENDROOT
BRANCH   1   5
ATOM      5  C   UNL d   1      -3.673  -0.629  -0.533  0.00  0.00     0.075 C 
ATOM      6  C   UNL d   1      -2.715   0.292  -0.346  0.00  0.00     0.017 C 
BRANCH   6   7
ATOM      7  C   UNL d   1      -1.333  -0.030   0.022  0.00  0.00    -0.031 A 
ATOM      8  C   UNL d   1      -0.672  -1.166  -0.437  0.00  0.00     0.051 A 
ATOM      9  C   UNL d   1       0.643  -1.428  -0.042  0.00  0.00     0.105 A 
ATOM     10  C   UNL d   1       1.354  -0.520   0.771  0.00  0.00     0.135 A 
ATOM     11  C   UNL d   1       0.693   0.640   1.226  0.00  0.00     0.105 A 
ATOM     12  C   UNL d   1      -0.644   0.860   0.853  0.00  0.00     0.051 A 
BRANCH   9  13
ATOM     13  O   UNL d   1       1.161  -2.588  -0.573  0.00  0.00    -0.353 OA
ATOM     14  C   UNL d   1       1.812  -3.424   0.381  0.00  0.00     0.210 C 
ENDBRANCH   9  13
BRANCH  10  15
ATOM     15  O   UNL d   1       2.669  -0.848   0.974  0.00  0.00    -0.351 OA
ATOM     16  C   UNL d   1       3.441  -0.136   1.924  0.00  0.00     0.210 C 
ENDBRANCH  10  15
BRANCH  11  17
ATOM     17  O   UNL d   1       1.354   1.510   2.052  0.00  0.00    -0.353 OA
ATOM     18  C   UNL d   1       0.914   2.864   2.058  0.00  0.00     0.210 C 
ENDBRANCH  11  17
ENDBRANCH   6   7
ENDBRANCH   1   5
BRANCH   2  19
ATOM     19  C   UNL d   1      -7.353  -0.996  -0.664  0.00  0.00     0.161 C 
BRANCH  19  20
ATOM     20  C   UNL d   1      -8.196  -0.775  -1.892  0.00  0.00    -0.038 A 
ATOM     21  C   UNL d   1      -9.512  -0.325  -1.680  0.00  0.00     0.048 A 
ATOM     22  C   UNL d   1     -10.383  -0.331  -2.743  0.00  0.00     0.105 A 
ATOM     23  O   UNL d   1     -11.713  -0.054  -2.676  0.00  0.00    -0.323 OA
ATOM     24  C   UNL d   1      -9.987  -0.710  -4.003  0.00  0.00     0.105 A 
ATOM     25  C   UNL d   1     -12.130  -0.541  -3.965  0.00  0.00     0.352 C 
ATOM     26  O   UNL d   1     -11.028  -0.727  -4.879  0.00  0.00    -0.323 OA
ATOM     27  C   UNL d   1      -8.685  -1.072  -4.274  0.00  0.00     0.040 A 
ATOM     28  C   UNL d   1      -7.785  -1.121  -3.200  0.00  0.00     0.012 A 
ENDBRANCH  19  20
ENDBRANCH   2  19
TORSDOF 7
