REMARK  3 active torsions:
REMARK  status: ('A' for Active; 'I' for Inactive)
REMARK    1  A    between atoms: C_4  and  N_1 
REMARK    2  A    between atoms: N_5  and  C_4 
REMARK    3  A    between atoms: C_12  and  N_5 
ROOT
ATOM      1  N   UNL d   1      -1.394   2.807  -0.420  0.00  0.00    -0.275 NA
ATOM      2  H   UNL d   1      -2.039   2.368   0.244  0.00  0.00     0.129 HD
ENDROOT
BRANCH   1   3
ATOM      3  C   UNL d   1      -0.052   2.293  -0.199  0.00  0.00     0.229 C 
BRANCH   3   4
ATOM      4  N   UNL d   1      -0.085   0.854  -0.238  0.00  0.00    -0.275 N 
ATOM      5  C   UNL d   1       0.992   0.134  -0.662  0.00  0.00     0.227 C 
ATOM      6  C   UNL d   1       0.731  -1.325  -0.436  0.00  0.00     0.112 C 
ATOM      7  O   UNL d   1       2.041   0.578  -1.103  0.00  0.00    -0.273 OA
ATOM      8  C   UNL d   1      -0.599  -1.359   0.291  0.00  0.00     0.112 C 
ATOM      9  C   UNL d   1      -0.951   0.087   0.480  0.00  0.00     0.227 C 
ATOM     10  O   UNL d   1      -1.866   0.487   1.184  0.00  0.00    -0.273 OA
ENDBRANCH   3   4
ENDBRANCH   1   3
BRANCH   1  11
ATOM     11  C   UNL d   1      -1.565   4.198  -0.451  0.00  0.00     0.025 A 
ATOM     12  C   UNL d   1      -2.769   4.778  -0.036  0.00  0.00     0.111 A 
ATOM     13  N   UNL d   1      -3.069   6.100  -0.100  0.00  0.00    -0.374 N 
ATOM     14  C   UNL d   1      -2.133   6.900  -0.644  0.00  0.00     0.087 A 
ATOM     15  HN  UNL d   1      -3.955   6.468   0.246  1.00  0.00     0.164 HD
ATOM     16  C   UNL d   1      -0.920   6.439  -1.124  0.00  0.00     0.019 A 
ATOM     17  C   UNL d   1      -0.644   5.073  -1.033  0.00  0.00     0.026 A 
ENDBRANCH   1  11
TORSDOF 3
