REMARK  4 active torsions:
REMARK  status: ('A' for Active; 'I' for Inactive)
REMARK    1  A    between atoms: C_11  and  O_17 
REMARK    2  A    between atoms: O_16  and  C_12 
REMARK    3  A    between atoms: C_13  and  O_16 
REMARK    4  A    between atoms: O_17  and  C_13 
ROOT
ATOM      1  C   UNL d   1       4.591   1.187  -0.040  0.00  0.00     0.351 C 
ENDROOT
BRANCH   1   2
ATOM      2  O   UNL d   1       3.859  -0.042   0.004  0.00  0.00    -0.326 OA
BRANCH   2   3
ATOM      3  C   UNL d   1       2.494   0.066   0.010  0.00  0.00     0.072 A 
ATOM      4  C   UNL d   1       1.764   1.252   0.076  0.00  0.00     0.045 A 
ATOM      5  C   UNL d   1       0.354   1.242   0.088  0.00  0.00    -0.037 A 
ATOM      6  C   UNL d   1      -0.325   0.010   0.032  0.00  0.00     0.046 A 
ATOM      7  C   UNL d   1      -0.332   2.582   0.167  0.00  0.00     0.050 C 
ATOM      8  C   UNL d   1       0.400  -1.196  -0.037  0.00  0.00    -0.037 A 
ATOM      9 CL   UNL d   1      -2.059  -0.022   0.052  0.00  0.00    -0.083 Cl
ATOM     10  C   UNL d   1       1.806  -1.144  -0.047  0.00  0.00     0.045 A 
ATOM     11  C   UNL d   1      -0.234  -2.560  -0.100  0.00  0.00     0.050 C 
ENDBRANCH   2   3
ENDBRANCH   1   2
BRANCH   1  12
ATOM     12  O   UNL d   1       6.001   0.931  -0.073  0.00  0.00    -0.326 OA
BRANCH  12  13
ATOM     13  C   UNL d   1       6.796   2.044   0.007  0.00  0.00     0.072 A 
ATOM     14  C   UNL d   1       8.070   1.839   0.532  0.00  0.00     0.045 A 
ATOM     15  C   UNL d   1       8.977   2.903   0.672  0.00  0.00    -0.037 A 
ATOM     16  C   UNL d   1      10.331   2.633   1.272  0.00  0.00     0.050 C 
ATOM     17  C   UNL d   1       8.592   4.194   0.254  0.00  0.00     0.046 A 
ATOM     18  C   UNL d   1       7.317   4.411  -0.299  0.00  0.00    -0.037 A 
ATOM     19 CL   UNL d   1       9.710   5.509   0.427  0.00  0.00    -0.083 Cl
ATOM     20  C   UNL d   1       6.432   3.322  -0.419  0.00  0.00     0.045 A 
ATOM     21  C   UNL d   1       6.822   5.748  -0.784  0.00  0.00     0.050 C 
ENDBRANCH  12  13
ENDBRANCH   1  12
TORSDOF 4
