REMARK  6 active torsions:
REMARK  status: ('A' for Active; 'I' for Inactive)
REMARK    1  A    between atoms: C_6  and  N_1 
REMARK    2  A    between atoms: C_2  and  C_3 
REMARK    3  A    between atoms: C_11  and  C_3 
REMARK    4  A    between atoms: N_8  and  O_16 
REMARK    5  A    between atoms: O_16  and  C_24 
REMARK    6  A    between atoms: C_24  and  C_22 
ROOT
ATOM      1  C   UNL d   1      -1.684   8.045   1.076  0.00  0.00     0.046 C 
ATOM      2  N   UNL d   1      -2.271   6.975   1.537  0.00  0.00    -0.269 N 
ATOM      3  HN  UNL d   1      -3.154   6.983   2.047  1.00  0.00     0.194 HD
ENDROOT
BRANCH   2   4
ATOM      4  O   UNL d   1      -1.538   5.809   1.246  0.00  0.00    -0.276 OA
BRANCH   4   5
ATOM      5  C   UNL d   1      -2.218   4.654   1.733  0.00  0.00     0.239 C 
BRANCH   5   6
ATOM      6  C   UNL d   1      -3.126   4.075   0.674  0.00  0.00    -0.032 A 
ATOM      7  C   UNL d   1      -2.635   3.170  -0.282  0.00  0.00     0.012 A 
ATOM      8  C   UNL d   1      -3.484   2.629  -1.252  0.00  0.00     0.037 A 
ATOM      9  C   UNL d   1      -4.832   3.006  -1.276  0.00  0.00     0.102 A 
ATOM     10  C   UNL d   1      -5.332   3.922  -0.342  0.00  0.00     0.037 A 
ATOM     11  C   UNL d   1      -4.475   4.455   0.624  0.00  0.00     0.012 A 
BRANCH   9  12
ATOM     12  N   UNL d   1      -5.733   2.435  -2.285  0.00  0.00    -0.116 N 
ATOM     13  O   UNL d   1      -6.921   2.784  -2.264  0.00  0.00    -0.532 OA
ATOM     14  O   UNL d   1      -5.251   1.633  -3.099  0.00  0.00    -0.532 OA
ENDBRANCH   9  12
ENDBRANCH   5   6
ENDBRANCH   4   5
ENDBRANCH   2   4
BRANCH   1  15
ATOM     15  C   UNL d   1      -0.396   7.959   0.313  0.00  0.00     0.038 A 
ATOM     16  C   UNL d   1      -0.271   8.505  -1.096  0.00  0.00     0.011 A 
ATOM     17  C   UNL d   1      -0.245   7.030  -0.876  0.00  0.00     0.011 A 
ENDBRANCH   1  15
BRANCH   1  18
ATOM     18  C   UNL d   1      -2.257   9.401   1.373  0.00  0.00    -0.011 A 
ATOM     19  C   UNL d   1      -1.569  10.579   1.047  0.00  0.00     0.015 A 
ATOM     20  C   UNL d   1      -2.118  11.832   1.340  0.00  0.00     0.024 A 
ATOM     21  C   UNL d   1      -3.353  11.918   1.977  0.00  0.00     0.034 A 
ATOM     22  C   UNL d   1      -4.041  10.759   2.328  0.00  0.00     0.024 A 
ATOM     23 CL   UNL d   1      -4.023  13.460   2.337  0.00  0.00    -0.084 Cl
ATOM     24  C   UNL d   1      -3.496   9.504   2.026  0.00  0.00     0.015 A 
ENDBRANCH   1  18
TORSDOF 6
