REMARK  3 active torsions:
REMARK  status: ('A' for Active; 'I' for Inactive)
REMARK    1  A    between atoms: C_4  and  C_1 
REMARK    2  A    between atoms: O_10  and  C_1 
REMARK    3  A    between atoms: O_13  and  C_7 
ROOT
ATOM      1  C   UNL d   1      -1.815  -0.017  -0.120  0.00  0.00     0.218 A 
ATOM      2  C   UNL d   1      -0.839  -1.195   0.004  0.00  0.00     0.207 A 
ATOM      3  C   UNL d   1      -0.855   1.192  -0.183  0.00  0.00     0.207 A 
ATOM      4  C   UNL d   1       0.530  -0.683  -0.008  0.00  0.00     0.028 A 
ATOM      5  C   UNL d   1       0.521   0.700  -0.105  0.00  0.00     0.028 A 
ATOM      6  O   UNL d   1      -1.107  -2.378   0.151  0.00  0.00    -0.288 OA
ATOM      7  O   UNL d   1      -1.121   2.383  -0.185  0.00  0.00    -0.288 OA
ATOM      8  C   UNL d   1       1.709  -1.395   0.127  0.00  0.00     0.016 A 
ATOM      9  C   UNL d   1       1.692   1.437  -0.051  0.00  0.00     0.016 A 
ATOM     10  C   UNL d   1       2.902  -0.668   0.175  0.00  0.00     0.001 A 
ATOM     11  C   UNL d   1       2.893   0.737   0.092  0.00  0.00     0.001 A 
ENDROOT
BRANCH   1  12
ATOM     12  C   UNL d   1      -2.794  -0.061  -1.290  0.00  0.00     0.025 A 
ATOM     13  C   UNL d   1      -2.879  -1.076  -2.260  0.00  0.00     0.081 A 
ATOM     14  C   UNL d   1      -3.853  -1.054  -3.275  0.00  0.00    -0.028 A 
ATOM     15  C   UNL d   1      -3.996  -2.158  -4.288  0.00  0.00     0.051 C 
ATOM     16  C   UNL d   1      -4.753   0.018  -3.335  0.00  0.00     0.009 A 
ATOM     17  C   UNL d   1      -4.684   1.044  -2.402  0.00  0.00     0.001 A 
ATOM     18  C   UNL d   1      -3.723   1.000  -1.393  0.00  0.00     0.014 A 
BRANCH  13  19
ATOM     19  O   UNL d   1      -2.010  -2.131  -2.278  0.00  0.00    -0.359 OA
ATOM     20  H   UNL d   1      -2.059  -2.585  -1.409  0.00  0.00     0.217 HD
ENDBRANCH  13  19
ENDBRANCH   1  12
BRANCH   1  21
ATOM     21  O   UNL d   1      -2.603   0.030   1.074  0.00  0.00    -0.370 OA
ATOM     22  H   UNL d   1      -2.009   0.107   1.838  0.00  0.00     0.212 HD
ENDBRANCH   1  21
TORSDOF 3
