REMARK  6 active torsions:
REMARK  status: ('A' for Active; 'I' for Inactive)
REMARK    1  A    between atoms: N_9  and  C_1 
REMARK    2  A    between atoms: C_8  and  C_3 
REMARK    3  A    between atoms: O_21  and  C_8 
REMARK       I    between atoms: C_13  and  N_9 
REMARK    4  A    between atoms: C_10  and  N_14 
REMARK    5  A    between atoms: N_14  and  C_20 
REMARK    6  A    between atoms: C_24  and  O_21 
ROOT
ATOM      1  C   UNL d   1       7.332   1.823   0.791  0.00  0.00     0.135 C 
ATOM      2  C   UNL d   1       6.056   2.252   0.735  0.00  0.00     0.117 C 
ATOM      3  C   UNL d   1       7.699   0.525   0.359  0.00  0.00     0.107 C 
ATOM      4  N   UNL d   1       7.945  -0.547  -0.018  0.00  0.00    -0.191 NA
ENDROOT
BRANCH   1   5
ATOM      5  C   UNL d   1       8.366   2.775   1.262  0.00  0.00     0.305 C 
ATOM      6  O   UNL d   1       8.140   3.923   1.615  0.00  0.00    -0.258 OA
BRANCH   5   7
ATOM      7  O   UNL d   1       9.594   2.204   1.173  0.00  0.00    -0.317 OA
BRANCH   7   8
ATOM      8  C   UNL d   1      10.714   3.092   1.306  0.00  0.00     0.174 C 
ATOM      9  C   UNL d   1      11.045   3.653  -0.065  0.00  0.00     0.034 C 
ENDBRANCH   7   8
ENDBRANCH   5   7
ENDBRANCH   1   5
BRANCH   2  10
ATOM     10  N   UNL d   1       4.940   1.562   0.315  0.00  0.00    -0.364 N 
ATOM     11  H   UNL d   1       5.081   0.598   0.017  0.00  0.00     0.165 HD
BRANCH  10  12
ATOM     12  C   UNL d   1       3.639   2.048   0.093  0.00  0.00     0.032 A 
ATOM     13  C   UNL d   1       3.322   3.413   0.036  0.00  0.00     0.043 A 
ATOM     14  C   UNL d   1       2.001   3.837  -0.157  0.00  0.00     0.002 A 
ATOM     15  C   UNL d   1       1.653   5.247  -0.229  0.00  0.00     0.050 A 
ATOM     16  C   UNL d   1       0.996   2.886  -0.276  0.00  0.00     0.090 A 
ATOM     17  C   UNL d   1       0.393   5.629  -0.472  0.00  0.00     0.112 A 
ATOM     18  C   UNL d   1      -0.673   4.599  -0.684  0.00  0.00     0.315 A 
ATOM     19  O   UNL d   1      -0.334   3.265  -0.514  0.00  0.00    -0.273 OA
ATOM     20  O   UNL d   1      -1.815   4.948  -0.979  0.00  0.00    -0.257 OA
ATOM     21  C   UNL d   1       1.271   1.528  -0.183  0.00  0.00     0.040 A 
ATOM     22  C   UNL d   1       2.591   1.116   0.003  0.00  0.00     0.032 A 
BRANCH  17  23
ATOM     23  N   UNL d   1      -0.045   6.943  -0.551  0.00  0.00    -0.322 N 
ATOM     24  C   UNL d   1       0.670   8.102  -0.342  0.00  0.00     0.218 C 
ATOM     25  O   UNL d   1       1.858   8.170  -0.040  0.00  0.00    -0.274 OA
ATOM     26  C   UNL d   1      -0.158   9.353  -0.488  0.00  0.00     0.117 C 
ATOM     27  H   UNL d   1      -1.039   7.025  -0.767  0.00  0.00     0.169 HD
ENDBRANCH  17  23
ENDBRANCH  10  12
ENDBRANCH   2  10
TORSDOF 6
