REMARK  4 active torsions:
REMARK  status: ('A' for Active; 'I' for Inactive)
REMARK    1  A    between atoms: N_2  and  C_1 
REMARK    2  A    between atoms: C_5  and  O_11 
REMARK    3  A    between atoms: C_6  and  C_12 
REMARK    4  A    between atoms: O_11  and  C_9 
ROOT
ATOM      1  C   UNL d   1       3.283  -1.950  -0.941  0.00  0.00     0.047 C 
ATOM      2  C   UNL d   1       3.697  -2.534   0.271  0.00  0.00     0.053 C 
ATOM      3  C   UNL d   1       2.647  -2.846  -1.835  0.00  0.00     0.092 C 
ATOM      4  N   UNL d   1       3.772  -3.873   0.433  0.00  0.00    -0.359 N 
ATOM      5  HN  UNL d   1       4.122  -4.260   1.309  1.00  0.00     0.166 HD
ATOM      6  C   UNL d   1       2.749  -4.225  -1.687  0.00  0.00     0.062 C 
ATOM      7  C   UNL d   1       3.470  -0.548  -1.117  0.00  0.00     0.049 C 
ATOM      8  C   UNL d   1       3.385  -4.698  -0.563  0.00  0.00     0.008 C 
ATOM      9  C   UNL d   1       3.995  -1.693   1.349  0.00  0.00    -0.034 C 
ATOM     10  C   UNL d   1       3.921   0.255  -0.072  0.00  0.00     0.025 C 
ATOM     11  C   UNL d   1       4.130  -0.309   1.176  0.00  0.00     0.011 C 
ATOM     12 CL   UNL d   1       3.203   0.246  -2.633  0.00  0.00    -0.083 Cl
ATOM     13  C   UNL d   1       4.083  -2.274   2.737  0.00  0.00     0.050 C 
ATOM     14  C   UNL d   1       3.675  -6.157  -0.392  0.00  0.00     0.068 C 
ENDROOT
BRANCH   3  15
ATOM     15  O   UNL d   1       1.912  -2.416  -2.909  0.00  0.00    -0.307 OA
BRANCH  15  16
ATOM     16  C   UNL d   1       0.582  -2.072  -2.761  0.00  0.00     0.109 A 
ATOM     17  C   UNL d   1      -0.174  -1.718  -1.636  0.00  0.00     0.137 A 
ATOM     18  C   UNL d   1      -1.490  -1.222  -1.748  0.00  0.00     0.055 A 
ATOM     19  C   UNL d   1      -2.095  -1.093  -3.001  0.00  0.00     0.050 A 
ATOM     20  C   UNL d   1      -1.382  -1.523  -4.126  0.00  0.00     0.019 A 
ATOM     21  C   UNL d   1      -0.066  -1.991  -4.005  0.00  0.00     0.040 A 
BRANCH  17  22
ATOM     22  N   UNL d   1       0.288  -1.842  -0.275  0.00  0.00    -0.113 N 
ATOM     23  O   UNL d   1       0.267  -2.981   0.217  0.00  0.00    -0.532 OA
ATOM     24  O   UNL d   1       0.549  -0.796   0.329  0.00  0.00    -0.532 OA
ENDBRANCH  17  22
BRANCH  19  25
ATOM     25  C   UNL d   1      -3.480  -0.509  -3.144  0.00  0.00     0.417 C 
ATOM     26  F   UNL d   1      -3.922   0.105  -2.012  0.00  0.00    -0.166 F 
ATOM     27  F   UNL d   1      -3.550   0.427  -4.128  0.00  0.00    -0.166 F 
ATOM     28  F   UNL d   1      -4.412  -1.451  -3.450  0.00  0.00    -0.166 F 
ENDBRANCH  19  25
ENDBRANCH  15  16
ENDBRANCH   3  15
TORSDOF 4
