REMARK  9 active torsions:
REMARK  status: ('A' for Active; 'I' for Inactive)
REMARK    1  A    between atoms: C_8  and  C_1 
REMARK    2  A    between atoms: C_7  and  C_2 
REMARK    3  A    between atoms: C_22  and  N_3 
REMARK    4  A    between atoms: C_14  and  C_6 
REMARK       I    between atoms: N_12  and  C_7 
REMARK    5  A    between atoms: C_9  and  O_15 
REMARK    6  A    between atoms: C_11  and  C_17 
REMARK    7  A    between atoms: C_13  and  N_12 
REMARK    8  A    between atoms: O_33  and  C_14 
REMARK    9  A    between atoms: O_15  and  C_18 
ROOT
ATOM      1  C   UNL d   1       1.497  -3.276   0.441  0.00  0.00     0.070 A 
ATOM      2  C   UNL d   1       3.749  -4.103  -0.023  0.00  0.00     0.050 A 
ATOM      3  C   UNL d   1       2.055  -2.221   1.186  0.00  0.00     0.102 A 
ATOM      4  C   UNL d   1       2.352  -4.213  -0.161  0.00  0.00     0.048 A 
ATOM      5  C   UNL d   1       4.279  -3.077   0.773  0.00  0.00     0.019 A 
ATOM      6  C   UNL d   1       3.440  -2.133   1.362  0.00  0.00     0.040 A 
ENDROOT
BRANCH   1   7
ATOM      7  N   UNL d   1       0.101  -3.318   0.256  0.00  0.00    -0.320 N 
ATOM      8  C   UNL d   1      -0.744  -4.371  -0.024  0.00  0.00     0.260 C 
ATOM      9  O   UNL d   1      -1.815  -4.162  -0.582  0.00  0.00    -0.267 OA
ATOM     10  H   UNL d   1      -0.381  -2.428   0.315  0.00  0.00     0.169 HD
BRANCH   8  11
ATOM     11  C   UNL d   1      -0.397  -5.707   0.443  0.00  0.00     0.082 C 
ATOM     12  C   UNL d   1       0.071  -6.111   1.695  0.00  0.00     0.157 C 
ATOM     13  N   UNL d   1       0.325  -7.473   1.610  0.00  0.00    -0.251 N 
ATOM     14  N   UNL d   1      -0.176  -7.965   0.438  0.00  0.00    -0.303 N 
ATOM     15  C   UNL d   1      -0.636  -6.913  -0.228  0.00  0.00     0.127 C 
ATOM     16  HN  UNL d   1      -0.192  -8.940   0.137  1.00  0.00     0.186 HD
BRANCH  12  17
ATOM     17  C   UNL d   1       0.275  -5.312   2.903  0.00  0.00     0.435 C 
ATOM     18  F   UNL d   1      -0.174  -4.040   2.778  0.00  0.00    -0.165 F 
ATOM     19  F   UNL d   1      -0.395  -5.811   3.970  0.00  0.00    -0.165 F 
ATOM     20  F   UNL d   1       1.584  -5.224   3.241  0.00  0.00    -0.165 F 
ENDBRANCH  12  17
BRANCH  13  21
ATOM     21  C   UNL d   1       1.035  -8.385   2.468  0.00  0.00     0.057 A 
ATOM     22  C   UNL d   1       1.401  -8.107   3.790  0.00  0.00     0.031 A 
ATOM     23  C   UNL d   1       2.161  -9.019   4.535  0.00  0.00     0.002 A 
ATOM     24  C   UNL d   1       2.578 -10.219   3.971  0.00  0.00     0.000 A 
ATOM     25  C   UNL d   1       2.208 -10.526   2.668  0.00  0.00     0.002 A 
ATOM     26  C   UNL d   1       1.433  -9.626   1.929  0.00  0.00     0.031 A 
ENDBRANCH  13  21
ENDBRANCH   8  11
ENDBRANCH   1   7
BRANCH   3  27
ATOM     27  O   UNL d   1       1.235  -1.252   1.729  0.00  0.00    -0.307 OA
BRANCH  27  28
ATOM     28  C   UNL d   1       1.274  -0.990   3.071  0.00  0.00     0.099 A 
ATOM     29  C   UNL d   1       0.923   0.241   3.604  0.00  0.00     0.114 A 
ATOM     30  S   UNL d   1       1.055   0.217   5.328  0.00  0.00    -0.093 SA
ATOM     31  C   UNL d   1       1.553  -1.408   5.353  0.00  0.00     0.053 A 
ATOM     32  C   UNL d   1       1.637  -1.933   4.087  0.00  0.00     0.046 A 
BRANCH  29  33
ATOM     33  C   UNL d   1       0.505   1.498   3.006  0.00  0.00     0.302 C 
ATOM     34  O   UNL d   1       0.256   2.532   3.620  0.00  0.00    -0.259 OA
BRANCH  33  35
ATOM     35  O   UNL d   1       0.424   1.404   1.646  0.00  0.00    -0.322 OA
ATOM     36  C   UNL d   1       0.029   2.629   1.024  0.00  0.00     0.213 C 
ENDBRANCH  33  35
ENDBRANCH  29  33
ENDBRANCH  27  28
ENDBRANCH   3  27
BRANCH   2  37
ATOM     37  C   UNL d   1       4.688  -5.037  -0.753  0.00  0.00     0.417 C 
ATOM     38  F   UNL d   1       4.058  -5.865  -1.629  0.00  0.00    -0.166 F 
ATOM     39  F   UNL d   1       5.617  -4.360  -1.485  0.00  0.00    -0.166 F 
ATOM     40  F   UNL d   1       5.389  -5.838   0.092  0.00  0.00    -0.166 F 
ENDBRANCH   2  37
TORSDOF 9
