REMARK  3 active torsions:
REMARK  status: ('A' for Active; 'I' for Inactive)
REMARK    1  A    between atoms: C_5  and  C_1 
REMARK       I    between atoms: N_2  and  C_5 
REMARK    2  A    between atoms: C_7  and  C_6 
REMARK    3  A    between atoms: C_19  and  C_10 
ROOT
ATOM      1  N   UNL d   1      -0.824  -3.726  -0.065  0.00  0.00    -0.231 N 
ATOM      2  N   UNL d   1      -1.949  -3.489  -0.781  0.00  0.00    -0.289 N 
ATOM      3  HN  UNL d   1      -2.238  -2.606  -1.202  1.00  0.00     0.188 HD
ATOM      4  C   UNL d   1       0.139  -2.702   0.111  0.00  0.00     0.278 C 
ATOM      5  C   UNL d   1      -2.598  -4.652  -0.822  0.00  0.00     0.077 A 
ATOM      6  C   UNL d   1      -1.946  -5.631  -0.042  0.00  0.00     0.052 A 
ATOM      7  C   UNL d   1      -0.792  -5.025   0.399  0.00  0.00     0.122 A 
ATOM      8  O   UNL d   1       1.267  -3.061   0.440  0.00  0.00    -0.265 OA
ENDROOT
BRANCH   4   9
ATOM      9  C   UNL d   1      -0.214  -1.292  -0.022  0.00  0.00     0.066 A 
ATOM     10  C   UNL d   1      -1.479  -0.689   0.252  0.00  0.00     0.057 A 
ATOM     11  C   UNL d   1      -1.319   0.673   0.131  0.00  0.00     0.087 A 
ATOM     12  O   UNL d   1      -0.042   0.944  -0.265  0.00  0.00    -0.314 OA
ATOM     13  C   UNL d   1       0.628  -0.243  -0.348  0.00  0.00     0.065 A 
ATOM     14  C   UNL d   1       2.051  -0.132  -0.731  0.00  0.00     0.077 C 
BRANCH  11  15
ATOM     15  C   UNL d   1      -2.190   1.810   0.394  0.00  0.00    -0.002 A 
ATOM     16  C   UNL d   1      -1.656   3.062   0.710  0.00  0.00     0.014 A 
ATOM     17  C   UNL d   1      -2.492   4.131   1.049  0.00  0.00     0.001 A 
ATOM     18  C   UNL d   1      -3.874   3.957   1.064  0.00  0.00     0.000 A 
ATOM     19  C   UNL d   1      -4.422   2.718   0.736  0.00  0.00     0.001 A 
ATOM     20  C   UNL d   1      -3.584   1.651   0.404  0.00  0.00     0.014 A 
ENDBRANCH  11  15
ENDBRANCH   4   9
BRANCH   5  21
ATOM     21  C   UNL d   1      -3.861  -4.815  -1.601  0.00  0.00     0.067 A 
ATOM     22  C   UNL d   1      -4.471  -3.910  -2.460  0.00  0.00    -0.031 A 
ATOM     23  C   UNL d   1      -5.677  -4.530  -2.905  0.00  0.00     0.033 A 
ATOM     24  C   UNL d   1      -4.032  -2.552  -2.889  0.00  0.00     0.050 C 
ATOM     25  C   UNL d   1      -5.760  -5.781  -2.335  0.00  0.00     0.006 A 
ATOM     26  N   UNL d   1      -4.625  -5.957  -1.584  0.00  0.00    -0.358 N 
ATOM     27  C   UNL d   1      -6.816  -6.816  -2.439  0.00  0.00     0.068 C 
ATOM     28  H   UNL d   1      -4.402  -6.793  -1.063  0.00  0.00     0.166 HD
ENDBRANCH   5  21
TORSDOF 3
