REMARK  2 active torsions:
REMARK  status: ('A' for Active; 'I' for Inactive)
REMARK    1  A    between atoms: S_6  and  C_5 
REMARK    2  A    between atoms: C_10  and  S_6 
ROOT
ATOM      1  N   UNL d   1       3.052   0.242   0.684  0.00  0.00    -0.191 NA
ATOM      2  N   UNL d   1      -1.733   0.308   1.279  0.00  0.00    -0.359 N 
ATOM      3  HN  UNL d   1      -2.335   0.378   2.099  1.00  0.00     0.166 HD
ATOM      4  C   UNL d   1       1.902   0.237   0.520  0.00  0.00     0.101 C 
ATOM      5  C   UNL d   1      -2.251   0.195   0.033  0.00  0.00     0.074 A 
ATOM      6  C   UNL d   1       0.488   0.229   0.317  0.00  0.00     0.060 A 
ATOM      7  C   UNL d   1      -0.381   0.324   1.393  0.00  0.00     0.111 A 
ATOM      8  C   UNL d   1      -1.453   0.099  -1.103  0.00  0.00     0.039 A 
ATOM      9  C   UNL d   1      -0.064   0.118  -0.957  0.00  0.00     0.027 A 
ENDROOT
BRANCH   5  10
ATOM     10  S   UNL d   1      -4.019   0.055  -0.106  0.00  0.00    -0.073 SA
BRANCH  10  11
ATOM     11  C   UNL d   1      -4.528   1.762  -0.180  0.00  0.00     0.007 A 
ATOM     12  C   UNL d   1      -5.281   2.201  -1.276  0.00  0.00     0.019 A 
ATOM     13  C   UNL d   1      -5.745   3.517  -1.335  0.00  0.00     0.001 A 
ATOM     14  C   UNL d   1      -5.467   4.402  -0.295  0.00  0.00     0.000 A 
ATOM     15  C   UNL d   1      -4.726   3.970   0.804  0.00  0.00     0.001 A 
ATOM     16  C   UNL d   1      -4.261   2.654   0.864  0.00  0.00     0.019 A 
ENDBRANCH  10  11
ENDBRANCH   5  10
TORSDOF 2
