REMARK  3 active torsions:
REMARK  status: ('A' for Active; 'I' for Inactive)
REMARK    1  A    between atoms: N_7  and  C_4 
REMARK    2  A    between atoms: C_12  and  N_7 
REMARK    3  A    between atoms: C_14  and  C_12 
ROOT
ATOM      1  C   UNL d   1      -0.741  -0.768   0.004  0.00  0.00     0.332 A 
ATOM      2  N   UNL d   1      -1.365   0.486  -0.014  0.00  0.00    -0.290 N 
ATOM      3  N   UNL d   1       0.644  -0.767   0.010  0.00  0.00    -0.271 N 
ATOM      4  C   UNL d   1      -0.667   1.690  -0.028  0.00  0.00     0.112 A 
ATOM      5  C   UNL d   1       1.404   0.376   0.001  0.00  0.00     0.254 A 
ATOM      6  C   UNL d   1       0.672   1.642  -0.010  0.00  0.00     0.123 A 
ATOM      7  O   UNL d   1      -1.386  -1.820   0.009  0.00  0.00    -0.246 OA
ATOM      8  O   UNL d   1       2.634   0.400   0.003  0.00  0.00    -0.268 OA
ATOM      9  C   UNL d   1      -2.824   0.493  -0.052  0.00  0.00     0.163 C 
ATOM     10  C   UNL d   1       1.359  -2.028   0.018  0.00  0.00     0.164 C 
ENDROOT
BRANCH   4  11
ATOM     11  N   UNL d   1      -1.322   2.914  -0.024  0.00  0.00    -0.372 N 
ATOM     12  H   UNL d   1      -2.328   2.875   0.085  0.00  0.00     0.161 HD
BRANCH  11  13
ATOM     13  C   UNL d   1      -0.851   4.167  -0.598  0.00  0.00     0.160 C 
BRANCH  13  14
ATOM     14  C   UNL d   1      -0.685   5.255   0.440  0.00  0.00    -0.040 A 
ATOM     15  C   UNL d   1      -0.341   4.975   1.774  0.00  0.00     0.012 A 
ATOM     16  C   UNL d   1      -0.132   6.010   2.689  0.00  0.00     0.043 A 
ATOM     17  C   UNL d   1      -0.253   7.329   2.272  0.00  0.00     0.116 A 
ATOM     18  C   UNL d   1      -0.578   7.634   0.957  0.00  0.00     0.043 A 
ATOM     19  F   UNL d   1      -0.045   8.321   3.148  0.00  0.00    -0.206 F 
ATOM     20  C   UNL d   1      -0.790   6.600   0.042  0.00  0.00     0.012 A 
ENDBRANCH  13  14
ENDBRANCH  11  13
ENDBRANCH   4  11
TORSDOF 3
