REMARK  5 active torsions:
REMARK  status: ('A' for Active; 'I' for Inactive)
REMARK    1  A    between atoms: OXT_6  and  C_1 
REMARK    2  A    between atoms: CA_2  and  C_1 
REMARK    3  A    between atoms: CA_2  and  N_5 
REMARK    4  A    between atoms: CA_2  and  CB_4 
REMARK    5  A    between atoms: CG_7  and  CB_4 
ROOT
ATOM      1  CA  PHE d   1       2.369   0.113   0.571  0.00  0.00     0.314 C 
ENDROOT
BRANCH   1   2
ATOM      2  N   PHE d   1       2.969  -1.218   0.804  0.00  0.00     0.093 N 
ATOM      3  H1  PHE d   1       2.378  -1.714   1.479  0.00  0.00     0.314 HD
ATOM      4  H2  PHE d   1       3.864  -1.107   1.282  0.00  0.00     0.314 HD
ENDBRANCH   1   2
BRANCH   1   5
ATOM      5  CB  PHE d   1       0.970  -0.046  -0.046  0.00  0.00     0.051 C 
BRANCH   5   6
ATOM      6  CG  PHE d   1       0.247   1.288  -0.364  0.00  0.00    -0.012 C 
ATOM      7  CD1 PHE d   1      -1.167   1.037  -0.921  0.00  0.00     0.005 C 
ATOM      8  CE1 PHE d   1      -1.162   0.496  -2.353  0.00  0.00     0.000 C 
ATOM      9  CZ  PHE d   1      -0.348   1.385  -3.289  0.00  0.00     0.000 C 
ATOM     10  CE2 PHE d   1       1.059   1.642  -2.756  0.00  0.00     0.000 C 
ATOM     11  CD2 PHE d   1       1.023   2.195  -1.333  0.00  0.00     0.005 C 
ENDBRANCH   5   6
ENDBRANCH   1   5
BRANCH   1  12
ATOM     12  C   PHE d   1       2.300   0.872   1.908  0.00  0.00     0.173 C 
ATOM     13  O   PHE d   1       1.698   0.467   2.893  0.00  0.00    -0.648 OA
BRANCH  12  14
ATOM     14  OXT PHE d   1       3.012   2.022   1.921  0.00  0.00    -0.775 OA
ATOM     15  HXT PHE d   1       3.485   2.217   1.090  0.00  0.00     0.167 HD
ENDBRANCH  12  14
ENDBRANCH   1  12
TORSDOF 5
