REMARK  7 active torsions:
REMARK  status: ('A' for Active; 'I' for Inactive)
REMARK    1  A    between atoms: C_2  and  C_1 
REMARK    2  A    between atoms: S_3  and  C_1 
REMARK    3  A    between atoms: C_4  and  C_1 
REMARK    4  A    between atoms: C_7  and  S_3 
REMARK    5  A    between atoms: C_5  and  C_4 
REMARK    6  A    between atoms: C_6  and  C_5 
REMARK    7  A    between atoms: N_17  and  C_13 
ROOT
ATOM      1  C   UNL d   1       0.979  -0.275   0.390  0.00  0.00     0.096 C 
ENDROOT
BRANCH   1   2
ATOM      2  C   UNL d   1       0.820  -1.548   1.290  0.00  0.00    -0.000 C 
ATOM      3  C   UNL d   1      -0.117  -1.602   2.336  0.00  0.00     0.043 C 
ATOM      4 CL   UNL d   1       0.093  -0.609   3.751  0.00  0.00    -0.084 Cl
ATOM      5  C   UNL d   1      -0.933  -2.725   2.546  0.00  0.00     0.024 C 
ATOM      6  C   UNL d   1      -0.698  -3.897   1.847  0.00  0.00     0.003 C 
ATOM      7  C   UNL d   1       0.435  -3.969   1.055  0.00  0.00     0.024 C 
ATOM      8  C   UNL d   1       1.204  -2.821   0.805  0.00  0.00     0.043 C 
ATOM      9 CL   UNL d   1       2.754  -3.160   0.105  0.00  0.00    -0.084 Cl
ENDBRANCH   1   2
BRANCH   1  10
ATOM     10  S   UNL d   1       0.507   1.385   1.108  0.00  0.00    -0.118 SA
BRANCH  10  11
ATOM     11  C   UNL d   1      -1.276   1.322   1.335  0.00  0.00     0.022 C 
ATOM     12  C   UNL d   1      -2.220   0.952   0.358  0.00  0.00     0.022 C 
ATOM     13  C   UNL d   1      -3.551   0.745   0.759  0.00  0.00     0.024 C 
ATOM     14  C   UNL d   1      -3.974   1.042   2.056  0.00  0.00     0.002 C 
ATOM     15  C   UNL d   1      -3.069   1.562   2.972  0.00  0.00     0.001 C 
ATOM     16  C   UNL d   1      -1.735   1.718   2.600  0.00  0.00     0.020 C 
BRANCH  12  17
ATOM     17  N   UNL d   1      -1.855   0.605  -0.956  0.00  0.00    -0.302 NA
ATOM     18  H   UNL d   1      -1.030   1.127  -1.258  0.00  0.00     0.124 HD
ATOM     19  H   UNL d   1      -2.617   0.721  -1.618  0.00  0.00     0.124 HD
ENDBRANCH  12  17
ENDBRANCH  10  11
ENDBRANCH   1  10
BRANCH   1  20
ATOM     20  C   UNL d   1       2.392  -0.099  -0.192  0.00  0.00     0.104 C 
BRANCH  20  21
ATOM     21  C   UNL d   1       2.643   1.076  -1.125  0.00  0.00     0.161 C 
ATOM     22  O   UNL d   1       1.790   1.527  -1.889  0.00  0.00    -0.292 OA
BRANCH  21  23
ATOM     23  C   UNL d   1       4.025   1.638  -1.118  0.00  0.00     0.010 A 
ATOM     24  C   UNL d   1       5.135   0.835  -0.799  0.00  0.00     0.023 A 
ATOM     25  C   UNL d   1       6.417   1.394  -0.652  0.00  0.00    -0.039 A 
ATOM     26  C   UNL d   1       7.567   0.514  -0.245  0.00  0.00     0.050 C 
ATOM     27  C   UNL d   1       6.569   2.775  -0.852  0.00  0.00     0.040 A 
ATOM     28  C   UNL d   1       5.476   3.563  -1.229  0.00  0.00     0.025 A 
ATOM     29 CL   UNL d   1       8.092   3.555  -0.621  0.00  0.00    -0.084 Cl
ATOM     30  C   UNL d   1       4.206   2.998  -1.369  0.00  0.00     0.017 A 
ENDBRANCH  21  23
ENDBRANCH  20  21
ENDBRANCH   1  20
TORSDOF 7
