REMARK  4 active torsions:
REMARK  status: ('A' for Active; 'I' for Inactive)
REMARK    1  A    between atoms: C_2  and  C_1 
REMARK       I    between atoms: N_4  and  C_1 
REMARK    2  A    between atoms: C_6  and  C_3 
REMARK    3  A    between atoms: C_5  and  N_4 
REMARK    4  A    between atoms: O_10  and  C_6 
ROOT
ATOM      1  C   UNL d   1       1.340   0.156   1.891  0.00  0.00     0.257 C 
ATOM      2  N   UNL d   1       0.432  -0.096   0.885  0.00  0.00    -0.322 N 
ATOM      3  O   UNL d   1       1.128  -0.000   3.092  0.00  0.00    -0.267 OA
ATOM      4  H   UNL d   1       0.783  -0.302  -0.046  0.00  0.00     0.169 HD
ENDROOT
BRANCH   2   5
ATOM      5  C   UNL d   1      -0.966  -0.222   1.071  0.00  0.00     0.051 A 
ATOM      6  C   UNL d   1      -1.761  -1.001   0.208  0.00  0.00     0.066 A 
ATOM      7  C   UNL d   1      -3.157  -1.038   0.390  0.00  0.00     0.020 A 
ATOM      8  C   UNL d   1      -3.766  -0.292   1.399  0.00  0.00     0.001 A 
ATOM      9  C   UNL d   1      -2.984   0.475   2.254  0.00  0.00     0.002 A 
ATOM     10  C   UNL d   1      -1.596   0.502   2.097  0.00  0.00     0.030 A 
BRANCH   6  11
ATOM     11  C   UNL d   1      -1.208  -1.922  -0.823  0.00  0.00     0.295 C 
ATOM     12  O   UNL d   1      -1.801  -2.928  -1.192  0.00  0.00    -0.259 OA
BRANCH  11  13
ATOM     13  O   UNL d   1      -0.004  -1.504  -1.272  0.00  0.00    -0.322 OA
ATOM     14  C   UNL d   1       0.651  -2.403  -2.173  0.00  0.00     0.213 C 
ENDBRANCH  11  13
ENDBRANCH   6  11
ENDBRANCH   2   5
BRANCH   1  15
ATOM     15  C   UNL d   1       2.698   0.588   1.483  0.00  0.00     0.054 A 
ATOM     16  C   UNL d   1       2.923   1.693   0.652  0.00  0.00     0.049 A 
ATOM     17 CL   UNL d   1       1.656   2.558  -0.142  0.00  0.00    -0.083 Cl
ATOM     18  C   UNL d   1       4.227   2.176   0.480  0.00  0.00     0.025 A 
ATOM     19  C   UNL d   1       5.302   1.559   1.124  0.00  0.00     0.002 A 
ATOM     20  C   UNL d   1       5.084   0.441   1.926  0.00  0.00     0.001 A 
ATOM     21  C   UNL d   1       3.786  -0.039   2.111  0.00  0.00     0.019 A 
ENDBRANCH   1  15
TORSDOF 4
