REMARK  6 active torsions:
REMARK  status: ('A' for Active; 'I' for Inactive)
REMARK    1  A    between atoms: O_6  and  C_1 
REMARK    2  A    between atoms: N_4  and  C_2 
REMARK    3  A    between atoms: N_5  and  C_3 
REMARK    4  A    between atoms: C_7  and  O_6 
REMARK    5  A    between atoms: C_12  and  C_7 
REMARK    6  A    between atoms: C_8  and  C_9 
ROOT
ATOM      1  C   UNL d   1       1.190  -0.120   0.487  0.00  0.00     0.145 A 
ATOM      2  C   UNL d   1       0.118  -0.985   0.717  0.00  0.00     0.140 A 
ATOM      3  C   UNL d   1       0.885   1.175   0.052  0.00  0.00     0.140 A 
ATOM      4  C   UNL d   1      -1.520   0.695   0.114  0.00  0.00     0.052 A 
ATOM      5  C   UNL d   1      -1.221  -0.601   0.555  0.00  0.00     0.055 A 
ATOM      6  C   UNL d   1      -0.456   1.579  -0.144  0.00  0.00     0.055 A 
ENDROOT
BRANCH   1   7
ATOM      7  O   UNL d   1       2.483  -0.539   0.858  0.00  0.00    -0.270 OA
BRANCH   7   8
ATOM      8  C   UNL d   1       3.510  -0.581  -0.084  0.00  0.00     0.299 C 
ATOM      9  O   UNL d   1       3.396  -0.299  -1.266  0.00  0.00    -0.259 OA
BRANCH   8  10
ATOM     10  C   UNL d   1       4.772  -0.895   0.644  0.00  0.00     0.045 A 
ATOM     11  C   UNL d   1       4.875  -1.884   1.648  0.00  0.00    -0.046 A 
ATOM     12  C   UNL d   1       3.784  -2.863   1.974  0.00  0.00     0.049 C 
ATOM     13  C   UNL d   1       6.060  -1.969   2.400  0.00  0.00     0.008 A 
ATOM     14  C   UNL d   1       7.148  -1.146   2.119  0.00  0.00     0.001 A 
ATOM     15  C   UNL d   1       7.074  -0.236   1.067  0.00  0.00     0.001 A 
ATOM     16  C   UNL d   1       5.892  -0.110   0.333  0.00  0.00     0.018 A 
ENDBRANCH   8  10
ENDBRANCH   7   8
ENDBRANCH   1   7
BRANCH   2  17
ATOM     17  N   UNL d   1       0.365  -2.357   1.091  0.00  0.00    -0.113 N 
ATOM     18  O   UNL d   1       0.595  -3.148   0.171  0.00  0.00    -0.532 OA
ATOM     19  O   UNL d   1       0.292  -2.631   2.295  0.00  0.00    -0.532 OA
ENDBRANCH   2  17
BRANCH   3  20
ATOM     20  N   UNL d   1       1.923   2.173  -0.165  0.00  0.00    -0.113 N 
ATOM     21  O   UNL d   1       2.799   2.279   0.703  0.00  0.00    -0.532 OA
ATOM     22  O   UNL d   1       1.814   2.885  -1.171  0.00  0.00    -0.532 OA
ENDBRANCH   3  20
BRANCH   4  23
ATOM     23  C   UNL d   1      -2.955   1.127  -0.105  0.00  0.00     0.417 C 
ATOM     24  F   UNL d   1      -3.859   0.173   0.249  0.00  0.00    -0.166 F 
ATOM     25  F   UNL d   1      -3.277   2.237   0.609  0.00  0.00    -0.166 F 
ATOM     26  F   UNL d   1      -3.205   1.421  -1.407  0.00  0.00    -0.166 F 
ENDBRANCH   4  23
TORSDOF 6
