REMARK  5 active torsions:
REMARK  status: ('A' for Active; 'I' for Inactive)
REMARK    1  A    between atoms: N_2  and  C_1 
REMARK    2  A    between atoms: N_4  and  C_1 
REMARK    3  A    between atoms: N_5  and  N_2 
REMARK    4  A    between atoms: C_6  and  N_4 
REMARK    5  A    between atoms: C_7  and  C_6 
ROOT
ATOM      1  N   UNL d   1       1.909  -0.261   0.115  0.00  0.00    -0.362 N 
ATOM      2  H   UNL d   1       1.927   0.427   0.858  0.00  0.00     0.162 HD
ENDROOT
BRANCH   1   3
ATOM      3  C   UNL d   1       1.049   0.084  -0.888  0.00  0.00     0.182 C 
ATOM      4  S   UNL d   1       0.181   1.502  -0.690  0.00  0.00    -0.040 SA
BRANCH   3   5
ATOM      5  N   UNL d   1       1.020  -0.761  -1.976  0.00  0.00    -0.296 N 
ATOM      6  H   UNL d   1       1.268  -1.729  -1.799  0.00  0.00     0.183 HD
BRANCH   5   7
ATOM      7  N   UNL d   1       0.224  -0.489  -3.112  0.00  0.00    -0.238 NA
ATOM      8  C   UNL d   1       1.043   0.081  -4.184  0.00  0.00     0.135 C 
ATOM      9  C   UNL d   1      -0.477  -1.687  -3.576  0.00  0.00     0.135 C 
ENDBRANCH   5   7
ENDBRANCH   3   5
ENDBRANCH   1   3
BRANCH   1  10
ATOM     10  C   UNL d   1       3.044  -1.167   0.067  0.00  0.00     0.160 C 
BRANCH  10  11
ATOM     11  C   UNL d   1       3.081  -2.163   1.200  0.00  0.00    -0.041 A 
ATOM     12  C   UNL d   1       3.810  -3.352   1.036  0.00  0.00     0.009 A 
ATOM     13  C   UNL d   1       3.946  -4.264   2.086  0.00  0.00     0.007 A 
ATOM     14  C   UNL d   1       3.360  -4.006   3.329  0.00  0.00    -0.062 A 
ATOM     15  C   UNL d   1       2.632  -2.826   3.501  0.00  0.00     0.007 A 
ATOM     16  C   UNL d   1       3.551  -4.968   4.463  0.00  0.00     0.048 C 
ATOM     17  C   UNL d   1       2.496  -1.914   2.450  0.00  0.00     0.009 A 
ENDBRANCH  10  11
ENDBRANCH   1  10
TORSDOF 5
