REMARK  4 active torsions:
REMARK  status: ('A' for Active; 'I' for Inactive)
REMARK    1  A    between atoms: C_9  and  C_3 
REMARK    2  A    between atoms: O_12  and  C_4 
REMARK    3  A    between atoms: S_11  and  C_5 
REMARK    4  A    between atoms: C_10  and  C_9 
ROOT
ATOM      1  N   UNL d   1      -0.442   1.316  -0.249  0.00  0.00    -0.317 N 
ATOM      2  HN  UNL d   1      -0.855   2.246  -0.320  1.00  0.00     0.170 HD
ATOM      3  C   UNL d   1      -0.689  -1.083  -0.106  0.00  0.00     0.019 A 
ATOM      4  C   UNL d   1      -1.186   0.205  -0.240  0.00  0.00     0.150 A 
ATOM      5  C   UNL d   1       0.877   1.129  -0.160  0.00  0.00     0.143 A 
ATOM      6  N   UNL d   1       1.485  -0.064  -0.095  0.00  0.00    -0.340 N 
ATOM      7  HN  UNL d   1       2.501  -0.141  -0.065  1.00  0.00     0.167 HD
ATOM      8  C   UNL d   1       0.696  -1.161  -0.072  0.00  0.00     0.018 A 
ATOM      9  C   UNL d   1       1.423  -2.472   0.010  0.00  0.00     0.069 C 
ENDROOT
BRANCH   3  10
ATOM     10  C   UNL d   1      -1.584  -2.283   0.038  0.00  0.00     0.078 C 
BRANCH  10  11
ATOM     11  C   UNL d   1      -1.987  -3.021  -1.222  0.00  0.00    -0.089 C 
ATOM     12  C   UNL d   1      -1.644  -2.688  -2.478  0.00  0.00     0.014 C 
ATOM     13  C   UNL d   1      -2.840  -4.242  -0.981  0.00  0.00     0.043 C 
ENDBRANCH  10  11
ENDBRANCH   3  10
BRANCH   4  14
ATOM     14  O   UNL d   1      -2.523   0.448  -0.371  0.00  0.00    -0.346 OA
ATOM     15  H   UNL d   1      -2.901  -0.283  -0.884  0.00  0.00     0.219 HD
ENDBRANCH   4  14
BRANCH   5  16
ATOM     16  S   UNL d   1       1.889   2.575  -0.105  0.00  0.00    -0.107 SA
ATOM     17  H   UNL d   1       0.841   3.406  -0.067  0.00  0.00     0.110 HD
ENDBRANCH   5  16
TORSDOF 4
