REMARK  2 active torsions:
REMARK  status: ('A' for Active; 'I' for Inactive)
REMARK    1  A    between atoms: C_9  and  C_3 
REMARK    2  A    between atoms: C_10  and  C_4 
ROOT
ATOM      1  N   UNL d   1       6.774   4.987   0.198  0.00  0.00    -0.191 NA
ATOM      2  C   UNL d   1       5.875   4.257   0.128  0.00  0.00     0.099 C 
ATOM      3  C   UNL d   1       2.505   1.660  -0.036  0.00  0.00    -0.009 A 
ATOM      4  C   UNL d   1       2.459   2.938  -0.616  0.00  0.00     0.015 A 
ATOM      5  C   UNL d   1       3.702   1.237   0.558  0.00  0.00     0.015 A 
ATOM      6  C   UNL d   1       4.750   3.369   0.049  0.00  0.00     0.044 A 
ATOM      7  C   UNL d   1       3.572   3.786  -0.574  0.00  0.00     0.023 A 
ATOM      8  C   UNL d   1       4.816   2.087   0.605  0.00  0.00     0.023 A 
ENDROOT
BRANCH   3   9
ATOM      9  C   UNL d   1       1.333   0.786  -0.030  0.00  0.00     0.050 A 
ATOM     10  N   UNL d   1       1.442  -0.600  -0.021  0.00  0.00    -0.349 N 
ATOM     11  C   UNL d   1       0.244  -1.159   0.002  0.00  0.00     0.084 A 
ATOM     12  HN  UNL d   1       2.323  -1.114  -0.030  1.00  0.00     0.166 HD
ATOM     13  S   UNL d   1      -1.070  -0.037  -0.005  0.00  0.00    -0.081 SA
ATOM     14  C   UNL d   1       0.037   1.262  -0.004  0.00  0.00     0.082 A 
BRANCH  11  15
ATOM     15  C   UNL d   1      -0.021  -2.611  -0.025  0.00  0.00    -0.002 A 
ATOM     16  C   UNL d   1      -1.165  -3.177   0.568  0.00  0.00     0.016 A 
ATOM     17  C   UNL d   1      -1.413  -4.552   0.492  0.00  0.00     0.024 A 
ATOM     18  C   UNL d   1      -0.516  -5.381  -0.172  0.00  0.00     0.034 A 
ATOM     19  C   UNL d   1       0.635  -4.849  -0.748  0.00  0.00     0.024 A 
ATOM     20 CL   UNL d   1      -0.835  -7.067  -0.284  0.00  0.00    -0.084 Cl
ATOM     21  C   UNL d   1       0.883  -3.472  -0.669  0.00  0.00     0.016 A 
ENDBRANCH  11  15
ENDBRANCH   3   9
TORSDOF 2
