REMARK  11 active torsions:
REMARK  status: ('A' for Active; 'I' for Inactive)
REMARK    1  A    between atoms: C_5  and  C_1 
REMARK    2  A    between atoms: N_12  and  C_4 
REMARK    3  A    between atoms: S_8  and  C_15 
REMARK    4  A    between atoms: C_17  and  S_8 
REMARK    5  A    between atoms: C_21  and  N_12 
REMARK    6  A    between atoms: C_15  and  C_16 
REMARK    7  A    between atoms: C_16  and  C_20 
REMARK    8  A    between atoms: O_19  and  C_16 
REMARK    9  A    between atoms: N_18  and  C_22 
REMARK   10  A    between atoms: C_20  and  N_18 
REMARK   11  A    between atoms: C_22  and  C_21 
ROOT
ATOM      1  C   UNL d   1      -0.022   6.810  -2.241  0.00  0.00     0.168 C 
ENDROOT
BRANCH   1   2
ATOM      2  N   UNL d   1       0.486   6.148  -1.060  0.00  0.00    -0.224 N 
ATOM      3  H   UNL d   1       0.715   5.163  -1.111  0.00  0.00     0.177 HD
BRANCH   2   4
ATOM      4  C   UNL d   1      -0.184   6.395   0.120  0.00  0.00     0.678 A 
ATOM      5  N   UNL d   1       0.134   5.600   1.143  0.00  0.00    -0.187 N 
ATOM      6  C   UNL d   1      -0.440   5.855   2.348  0.00  0.00     0.133 A 
ATOM      7  HN  UNL d   1       0.786   4.825   1.024  1.00  0.00     0.184 HD
ATOM      8  C   UNL d   1      -1.374   6.859   2.515  0.00  0.00     0.052 A 
ATOM      9  C   UNL d   1      -1.665   7.595   1.397  0.00  0.00     0.108 A 
ATOM     10  N   UNL d   1      -1.079   7.389   0.206  0.00  0.00    -0.202 N 
ATOM     11  HN  UNL d   1      -1.308   7.968  -0.603  1.00  0.00     0.183 HD
BRANCH   6  12
ATOM     12  C   UNL d   1      -0.017   5.035   3.554  0.00  0.00     0.433 C 
ATOM     13  F   UNL d   1       0.891   4.055   3.284  0.00  0.00    -0.165 F 
ATOM     14  F   UNL d   1      -1.073   4.409   4.151  0.00  0.00    -0.165 F 
ATOM     15  F   UNL d   1       0.547   5.807   4.529  0.00  0.00    -0.165 F 
ENDBRANCH   6  12
ENDBRANCH   2   4
ENDBRANCH   1   2
BRANCH   1  16
ATOM     16  C   UNL d   1       0.821   6.442  -3.480  0.00  0.00     0.289 C 
BRANCH  16  17
ATOM     17  N   UNL d   1       0.400   7.103  -4.727  0.00  0.00     0.087 N 
ATOM     18  H   UNL d   1      -0.582   6.889  -4.892  0.00  0.00     0.316 HD
BRANCH  17  19
ATOM     19  C   UNL d   1       0.617   8.554  -4.681  0.00  0.00     0.301 C 
BRANCH  19  20
ATOM     20  C   UNL d   1       0.243   9.312  -5.977  0.00  0.00     0.155 C 
BRANCH  20  21
ATOM     21  C   UNL d   1      -1.241   9.130  -6.340  0.00  0.00     0.113 C 
BRANCH  21  22
ATOM     22  S   UNL d   1      -1.653   9.941  -7.928  0.00  0.00    -0.127 SA
BRANCH  22  23
ATOM     23  C   UNL d   1      -3.420   9.691  -8.034  0.00  0.00     0.000 A 
ATOM     24  C   UNL d   1      -4.173  10.676  -8.684  0.00  0.00     0.018 A 
ATOM     25  C   UNL d   1      -5.554  10.535  -8.839  0.00  0.00     0.001 A 
ATOM     26  C   UNL d   1      -6.197   9.402  -8.347  0.00  0.00     0.000 A 
ATOM     27  C   UNL d   1      -5.459   8.409  -7.708  0.00  0.00     0.001 A 
ATOM     28  C   UNL d   1      -4.076   8.550  -7.557  0.00  0.00     0.018 A 
ENDBRANCH  22  23
ENDBRANCH  21  22
ENDBRANCH  20  21
BRANCH  20  29
ATOM     29  O   UNL d   1       0.551  10.700  -5.765  0.00  0.00    -0.393 OA
ATOM     30  H   UNL d   1      -0.082  11.059  -5.120  0.00  0.00     0.210 HD
ENDBRANCH  20  29
ENDBRANCH  19  20
ENDBRANCH  17  19
ENDBRANCH  16  17
ENDBRANCH   1  16
TORSDOF 11
