REMARK  2 active torsions:
REMARK  status: ('A' for Active; 'I' for Inactive)
REMARK    1  A    between atoms: C_2  and  C_1 
REMARK       I    between atoms: N_3  and  C_2 
REMARK       I    between atoms: C_5  and  N_4 
REMARK    2  A    between atoms: C_15  and  C_5 
ROOT
ATOM      1  C   UNL d   1      -2.426  -2.135  -0.467  0.00  0.00     0.255 C 
ATOM      2  N   UNL d   1      -2.518  -3.511  -0.262  0.00  0.00    -0.345 N 
ATOM      3  N   UNL d   1      -1.767  -6.277  -0.530  0.00  0.00    -0.349 N 
ATOM      4  C   UNL d   1      -1.540  -7.646  -0.627  0.00  0.00     0.224 C 
ATOM      5  O   UNL d   1      -2.900  -1.585  -1.459  0.00  0.00    -0.267 OA
ATOM      6  C   UNL d   1      -2.035  -4.274   0.892  0.00  0.00     0.146 C 
ATOM      7  C   UNL d   1      -3.232  -4.344  -1.243  0.00  0.00     0.146 C 
ATOM      8  C   UNL d   1      -1.079  -5.372   0.408  0.00  0.00     0.145 C 
ATOM      9  C   UNL d   1      -2.416  -5.587  -1.664  0.00  0.00     0.145 C 
ATOM     10  O   UNL d   1      -1.986  -8.303  -1.562  0.00  0.00    -0.273 OA
ENDROOT
BRANCH   1  11
ATOM     11  C   UNL d   1      -1.689  -1.279   0.504  0.00  0.00     0.053 A 
ATOM     12  C   UNL d   1      -2.245  -0.094   1.015  0.00  0.00     0.051 A 
ATOM     13  C   UNL d   1      -1.506   0.708   1.895  0.00  0.00     0.048 A 
ATOM     14 CL   UNL d   1      -3.849   0.433   0.647  0.00  0.00    -0.083 Cl
ATOM     15  C   UNL d   1      -0.222   0.325   2.278  0.00  0.00     0.035 A 
ATOM     16  C   UNL d   1       0.348  -0.836   1.764  0.00  0.00     0.025 A 
ATOM     17 CL   UNL d   1       0.667   1.294   3.386  0.00  0.00    -0.084 Cl
ATOM     18  C   UNL d   1      -0.370  -1.614   0.851  0.00  0.00     0.020 A 
ENDBRANCH   1  11
BRANCH   4  19
ATOM     19  C   UNL d   1      -0.731  -8.323   0.502  0.00  0.00     0.078 C 
ATOM     20  C   UNL d   1      -0.131  -9.673   0.086  0.00  0.00     0.014 C 
ATOM     21  C   UNL d   1      -1.122 -10.832   0.080  0.00  0.00     0.001 C 
ATOM     22  C   UNL d   1      -1.909 -10.938   1.379  0.00  0.00     0.000 C 
ATOM     23  C   UNL d   1      -2.535  -9.612   1.797  0.00  0.00     0.001 C 
ATOM     24  C   UNL d   1      -1.539  -8.455   1.802  0.00  0.00     0.014 C 
ENDBRANCH   4  19
TORSDOF 2
