REMARK  7 active torsions:
REMARK  status: ('A' for Active; 'I' for Inactive)
REMARK    1  A    between atoms: C9_7  and  C1_1 
REMARK    2  A    between atoms: C6_6  and  O1_8 
REMARK       I    between atoms: N_18  and  C6_6 
REMARK    3  A    between atoms: O1_8  and  C9_7 
REMARK    4  A    between atoms: CA_19  and  N_18 
REMARK    5  A    between atoms: CB_22  and  CA_19 
REMARK    6  A    between atoms: CA_19  and  C_20 
REMARK    7  A    between atoms: OXT_23  and  C_20 
ROOT
ATOM      1  C9  <1> d   1      -0.750   5.664   1.796  0.00  0.00     0.194 C 
ENDROOT
BRANCH   1   2
ATOM      2  C1  <1> d   1      -2.268   5.772   1.547  0.00  0.00     0.078 A 
ATOM      3  C4  <1> d   1      -2.800   4.867   0.439  0.00  0.00    -0.036 A 
ATOM      4  C3  <1> d   1      -3.716   3.930   0.966  0.00  0.00    -0.018 A 
ATOM      5  C14 <1> d   1      -2.552   4.930  -0.923  0.00  0.00     0.009 A 
ATOM      6  C12 <1> d   1      -4.361   3.023   0.138  0.00  0.00     0.013 A 
ATOM      7  C2  <1> d   1      -3.851   4.151   2.389  0.00  0.00    -0.018 A 
ATOM      8  C20 <1> d   1      -4.099   3.072  -1.233  0.00  0.00     0.001 A 
ATOM      9  C17 <1> d   1      -3.208   4.022  -1.759  0.00  0.00     0.001 A 
ATOM     10  C5  <1> d   1      -3.039   5.241   2.763  0.00  0.00    -0.036 A 
ATOM     11  C11 <1> d   1      -4.634   3.497   3.330  0.00  0.00     0.013 A 
ATOM     12  C13 <1> d   1      -3.014   5.701   4.072  0.00  0.00     0.009 A 
ATOM     13  C18 <1> d   1      -3.801   5.042   5.019  0.00  0.00     0.001 A 
ATOM     14  C19 <1> d   1      -4.600   3.946   4.654  0.00  0.00     0.001 A 
ENDBRANCH   1   2
BRANCH   1  15
ATOM     15  O1  <1> d   1       0.149   6.043   0.729  0.00  0.00    -0.303 OA
BRANCH  15  16
ATOM     16  C6  <1> d   1       0.015   7.254   0.155  0.00  0.00     0.361 C 
ATOM     17  N   VAL d   1       0.997   7.529  -0.754  0.00  0.00    -0.322 N 
ATOM     18  H   VAL d   1       0.802   8.322  -1.355  0.00  0.00     0.165 HD
ATOM     19  O2  <1> d   1      -0.866   8.069   0.377  0.00  0.00    -0.238 OA
BRANCH  17  20
ATOM     20  CA  VAL d   1       2.383   7.045  -0.665  0.00  0.00     0.188 C 
BRANCH  20  21
ATOM     21  CB  VAL d   1       2.843   6.278  -1.923  0.00  0.00     0.010 C 
ATOM     22  CG1 VAL d   1       2.045   4.984  -2.105  0.00  0.00     0.012 C 
ATOM     23  CG2 VAL d   1       2.792   7.118  -3.202  0.00  0.00     0.012 C 
ENDBRANCH  20  21
BRANCH  20  24
ATOM     24  C   VAL d   1       3.333   8.223  -0.355  0.00  0.00     0.164 C 
ATOM     25  O   VAL d   1       4.553   8.163  -0.421  0.00  0.00    -0.648 OA
BRANCH  24  26
ATOM     26  OXT VAL d   1       2.700   9.352   0.054  0.00  0.00    -0.775 OA
ATOM     27  HXT VAL d   1       1.739   9.221   0.175  0.00  0.00     0.167 HD
ENDBRANCH  24  26
ENDBRANCH  20  24
ENDBRANCH  17  20
ENDBRANCH  15  16
ENDBRANCH   1  15
TORSDOF 7
