REMARK  6 active torsions:
REMARK  status: ('A' for Active; 'I' for Inactive)
REMARK    1  A    between atoms: N_2  and  C_1 
REMARK    2  A    between atoms: C_4  and  C_1 
REMARK    3  A    between atoms: C_6  and  C_1 
REMARK    4  A    between atoms: O_9  and  C_1 
REMARK       I    between atoms: C_3  and  N_2 
REMARK    5  A    between atoms: C_5  and  C_3 
REMARK    6  A    between atoms: O_14  and  C_6 
ROOT
ATOM      1  C   UNL d   1       0.840   0.119   0.089  0.00  0.00     0.325 C 
ENDROOT
BRANCH   1   2
ATOM      2  N   UNL d   1       0.479  -0.783  -1.013  0.00  0.00    -0.309 N 
ATOM      3  C   UNL d   1       0.864  -0.546  -2.308  0.00  0.00     0.257 C 
ATOM      4  O   UNL d   1       1.372   0.526  -2.622  0.00  0.00    -0.267 OA
ATOM      5  H   UNL d   1       0.112  -1.696  -0.749  0.00  0.00     0.166 HD
BRANCH   3   6
ATOM      6  C   UNL d   1       0.623  -1.618  -3.312  0.00  0.00     0.070 A 
ATOM      7  C   UNL d   1       0.030  -2.840  -2.984  0.00  0.00     0.132 A 
ATOM      8  F   UNL d   1      -0.366  -3.099  -1.728  0.00  0.00    -0.205 F 
ATOM      9  C   UNL d   1      -0.170  -3.829  -3.944  0.00  0.00     0.043 A 
ATOM     10  C   UNL d   1       0.227  -3.604  -5.262  0.00  0.00     0.003 A 
ATOM     11  C   UNL d   1       0.817  -2.388  -5.610  0.00  0.00     0.001 A 
ATOM     12  C   UNL d   1       1.015  -1.399  -4.642  0.00  0.00     0.020 A 
ENDBRANCH   3   6
ENDBRANCH   1   2
BRANCH   1  13
ATOM     13  C   UNL d   1       2.371   0.271   0.366  0.00  0.00     0.448 C 
ATOM     14  F   UNL d   1       3.124  -0.440  -0.513  0.00  0.00    -0.166 F 
ATOM     15  F   UNL d   1       2.774   1.563   0.270  0.00  0.00    -0.166 F 
ATOM     16  F   UNL d   1       2.740  -0.157   1.600  0.00  0.00    -0.166 F 
ENDBRANCH   1  13
BRANCH   1  17
ATOM     17  C   UNL d   1       0.276  -0.527   1.369  0.00  0.00     0.324 C 
ATOM     18  O   UNL d   1       0.085  -1.736   1.489  0.00  0.00    -0.259 OA
BRANCH  17  19
ATOM     19  O   UNL d   1       0.033   0.394   2.343  0.00  0.00    -0.322 OA
ATOM     20  C   UNL d   1      -0.478  -0.148   3.562  0.00  0.00     0.213 C 
ENDBRANCH  17  19
ENDBRANCH   1  17
BRANCH   1  21
ATOM     21  O   UNL d   1       0.176   1.348  -0.209  0.00  0.00    -0.356 OA
ATOM     22  H   UNL d   1       0.472   1.567  -1.116  0.00  0.00     0.213 HD
ENDBRANCH   1  21
TORSDOF 6
