REMARK  3 active torsions:
REMARK  status: ('A' for Active; 'I' for Inactive)
REMARK    1  A    between atoms: C_13  and  C_3 
REMARK    2  A    between atoms: C_4  and  C_14 
REMARK    3  A    between atoms: C_14  and  N_5 
ROOT
ATOM      1  N   UNL d   1       0.835   3.558   0.052  0.00  0.00    -0.393 N 
ATOM      2  HN  UNL d   1       0.918   3.083   0.951  1.00  0.00     0.159 HD
ATOM      3  C   UNL d   1       1.010   2.959  -1.077  0.00  0.00     0.102 C 
ENDROOT
BRANCH   1   4
ATOM      4  C   UNL d   1       0.507   4.983  -0.070  0.00  0.00     0.165 C 
BRANCH   4   5
ATOM      5  C   UNL d   1       1.759   5.806  -0.048  0.00  0.00    -0.000 A 
ATOM      6  S   UNL d   1       2.102   6.899  -1.323  0.00  0.00    -0.105 SA
ATOM      7  C   UNL d   1       3.562   7.401  -0.586  0.00  0.00     0.050 A 
ATOM      8  C   UNL d   1       3.790   6.750   0.605  0.00  0.00     0.008 A 
ATOM      9  C   UNL d   1       2.749   5.829   0.915  0.00  0.00     0.017 A 
ENDBRANCH   4   5
ENDBRANCH   1   4
BRANCH   3  10
ATOM     10  C   UNL d   1       1.344   1.557  -1.108  0.00  0.00     0.019 A 
ATOM     11  S   UNL d   1       1.531   0.767  -2.612  0.00  0.00    -0.101 SA
ATOM     12  C   UNL d   1       1.890  -0.726  -1.854  0.00  0.00     0.050 A 
ATOM     13  C   UNL d   1       1.869  -0.625  -0.480  0.00  0.00     0.008 A 
ATOM     14  C   UNL d   1       1.552   0.695  -0.050  0.00  0.00     0.021 A 
ENDBRANCH   3  10
TORSDOF 3
