REMARK  3 active torsions:
REMARK  status: ('A' for Active; 'I' for Inactive)
REMARK    1  A    between atoms: C_2  and  C_1 
REMARK    2  A    between atoms: N_7  and  C_5 
REMARK       I    between atoms: C_9  and  N_7 
REMARK    3  A    between atoms: O_15  and  C_8 
ROOT
ATOM      1  C   UNL d   1       0.276   1.220  -0.026  0.00  0.00     0.071 A 
ATOM      2  C   UNL d   1       1.684   1.292  -0.002  0.00  0.00     0.050 A 
ATOM      3  C   UNL d   1      -0.316  -0.035  -0.022  0.00  0.00     0.051 A 
ATOM      4  C   UNL d   1       2.516   0.155   0.025  0.00  0.00     0.069 A 
ATOM      5  C   UNL d   1       0.484  -1.177   0.002  0.00  0.00     0.063 A 
ATOM      6  C   UNL d   1       1.892  -1.111   0.022  0.00  0.00     0.096 A 
ATOM      7 CL   UNL d   1      -2.027  -0.249  -0.045  0.00  0.00    -0.083 Cl
ENDROOT
BRANCH   4   8
ATOM      8  N   UNL d   1       3.924   0.314   0.055  0.00  0.00    -0.325 N 
ATOM      9  C   UNL d   1       4.663   1.486   0.065  0.00  0.00     0.218 C 
ATOM     10  O   UNL d   1       4.234   2.634   0.057  0.00  0.00    -0.274 OA
ATOM     11  C   UNL d   1       6.154   1.247   0.092  0.00  0.00     0.117 C 
ATOM     12  H   UNL d   1       4.474  -0.523   0.078  0.00  0.00     0.169 HD
ENDBRANCH   4   8
BRANCH   6  13
ATOM     13  O   UNL d   1       2.404  -2.377   0.040  0.00  0.00    -0.354 OA
ATOM     14  C   UNL d   1       3.786  -2.661   0.034  0.00  0.00     0.210 C 
ENDBRANCH   6  13
BRANCH   1  15
ATOM     15  C   UNL d   1      -0.539   2.486  -0.062  0.00  0.00     0.419 C 
ATOM     16  F   UNL d   1       0.220   3.619  -0.047  0.00  0.00    -0.166 F 
ATOM     17  F   UNL d   1      -1.310   2.586  -1.180  0.00  0.00    -0.166 F 
ATOM     18  F   UNL d   1      -1.382   2.607   1.000  0.00  0.00    -0.166 F 
ENDBRANCH   1  15
TORSDOF 3
