REMARK  4 active torsions:
REMARK  status: ('A' for Active; 'I' for Inactive)
REMARK    1  A    between atoms: C_2  and  S_1 
REMARK    2  A    between atoms: N_8  and  S_1 
REMARK    3  A    between atoms: C_3  and  C_7 
REMARK    4  A    between atoms: N_9  and  C_17 
ROOT
ATOM      1  S   UNL d   1       0.907   0.052   0.078  0.00  0.00     0.250 S 
ATOM      2  O   UNL d   1       0.753   1.238  -0.729  0.00  0.00    -0.205 OA
ATOM      3  O   UNL d   1       0.264  -0.081   1.371  0.00  0.00    -0.205 OA
ENDROOT
BRANCH   1   4
ATOM      4  C   UNL d   1       2.652  -0.110   0.448  0.00  0.00     0.116 A 
ATOM      5  S   UNL d   1       3.749   0.566  -0.674  0.00  0.00    -0.075 SA
ATOM      6  C   UNL d   1       5.103  -0.033   0.173  0.00  0.00     0.033 A 
ATOM      7  C   UNL d   1       4.734  -0.708   1.317  0.00  0.00     0.023 A 
ATOM      8  C   UNL d   1       3.318  -0.742   1.483  0.00  0.00     0.034 A 
BRANCH   6   9
ATOM      9  C   UNL d   1       6.525   0.141  -0.257  0.00  0.00     0.056 A 
ATOM     10  N   UNL d   1       7.561  -0.419   0.473  0.00  0.00    -0.353 N 
ATOM     11  C   UNL d   1       8.710  -0.161  -0.111  0.00  0.00     0.047 A 
ATOM     12  HN  UNL d   1       7.448  -0.953   1.335  1.00  0.00     0.166 HD
ATOM     13  C   UNL d   1      10.027  -0.653   0.372  0.00  0.00     0.076 C 
ATOM     14  S   UNL d   1       8.621   0.803  -1.532  0.00  0.00    -0.087 SA
ATOM     15  C   UNL d   1       6.915   0.838  -1.383  0.00  0.00     0.082 A 
ENDBRANCH   6   9
ENDBRANCH   1   4
BRANCH   1  16
ATOM     16  N   UNL d   1       0.463  -1.330  -0.866  0.00  0.00    -0.206 NA
ATOM     17  C   UNL d   1       1.012  -1.292  -2.247  0.00  0.00     0.109 C 
ATOM     18  C   UNL d   1       0.629  -2.527  -3.046  0.00  0.00     0.041 C 
ATOM     19  C   UNL d   1       1.040  -3.817  -2.323  0.00  0.00     0.091 C 
ATOM     20  C   UNL d   1       0.333  -3.831  -0.962  0.00  0.00     0.041 C 
ATOM     21  C   UNL d   1       0.649  -2.603  -0.125  0.00  0.00     0.109 C 
BRANCH  19  22
ATOM     22  N   UNL d   1       2.493  -4.021  -2.289  0.00  0.00    -0.362 N 
ATOM     23  C   UNL d   1       3.280  -4.307  -1.202  0.00  0.00     0.091 A 
ATOM     24  C   UNL d   1       4.586  -4.430  -1.624  0.00  0.00     0.019 A 
ATOM     25  C   UNL d   1       4.591  -4.265  -3.024  0.00  0.00     0.019 A 
ATOM     26  C   UNL d   1       3.290  -4.036  -3.412  0.00  0.00     0.091 A 
ENDBRANCH  19  22
ENDBRANCH   1  16
TORSDOF 4
