REMARK  3 active torsions:
REMARK  status: ('A' for Active; 'I' for Inactive)
REMARK    1  A    between atoms: C_8  and  C_2 
REMARK    2  A    between atoms: O_17  and  C_3 
REMARK    3  A    between atoms: C_15  and  C_6 
ROOT
ATOM      1  C   UNL d   1      -0.655   1.318   0.094  0.00  0.00     0.106 A 
ATOM      2  C   UNL d   1      -1.428   0.141   0.000  0.00  0.00     0.001 A 
ATOM      3  C   UNL d   1       0.736   1.206   0.100  0.00  0.00     0.162 A 
ATOM      4  N   UNL d   1       1.396   0.036   0.059  0.00  0.00    -0.335 N 
ATOM      5  HN  UNL d   1       2.415   0.011   0.086  1.00  0.00     0.168 HD
ATOM      6  C   UNL d   1       0.681  -1.105  -0.018  0.00  0.00     0.045 A 
ATOM      7  C   UNL d   1      -0.714  -1.077  -0.058  0.00  0.00     0.044 A 
ATOM      8  C   UNL d   1      -1.234   2.621   0.211  0.00  0.00     0.104 C 
ATOM      9  N   UNL d   1      -1.639   3.706   0.269  0.00  0.00    -0.191 NA
ENDROOT
BRANCH   2  10
ATOM     10  C   UNL d   1      -2.922   0.101  -0.038  0.00  0.00    -0.022 A 
ATOM     11  C   UNL d   1      -3.636  -0.934   0.604  0.00  0.00     0.038 A 
ATOM     12  C   UNL d   1      -5.036  -1.023   0.542  0.00  0.00     0.056 A 
ATOM     13 CL   UNL d   1      -5.788  -2.376   1.310  0.00  0.00    -0.083 Cl
ATOM     14  C   UNL d   1      -5.766  -0.048  -0.135  0.00  0.00     0.055 A 
ATOM     15  C   UNL d   1      -5.089   0.993  -0.766  0.00  0.00     0.026 A 
ATOM     16 CL   UNL d   1      -7.488  -0.076  -0.241  0.00  0.00    -0.083 Cl
ATOM     17  C   UNL d   1      -3.688   1.050  -0.739  0.00  0.00     0.014 A 
ENDBRANCH   2  10
BRANCH   3  18
ATOM     18  O   UNL d   1       1.582   2.278   0.145  0.00  0.00    -0.345 OA
ATOM     19  H   UNL d   1       1.105   3.116   0.048  0.00  0.00     0.219 HD
ENDBRANCH   3  18
BRANCH   6  20
ATOM     20  C   UNL d   1       1.464  -2.359  -0.050  0.00  0.00    -0.009 A 
ATOM     21  C   UNL d   1       2.701  -2.449   0.618  0.00  0.00     0.013 A 
ATOM     22  C   UNL d   1       3.461  -3.623   0.599  0.00  0.00     0.001 A 
ATOM     23  C   UNL d   1       2.998  -4.737  -0.096  0.00  0.00     0.000 A 
ATOM     24  C   UNL d   1       1.782  -4.678  -0.767  0.00  0.00     0.001 A 
ATOM     25  C   UNL d   1       1.024  -3.500  -0.744  0.00  0.00     0.013 A 
ENDBRANCH   6  20
TORSDOF 3
