REMARK  7 active torsions:
REMARK  status: ('A' for Active; 'I' for Inactive)
REMARK    1  A    between atoms: C_8  and  N_1 
REMARK    2  A    between atoms: C_12  and  C_5 
REMARK    3  A    between atoms: C_11  and  C_8 
REMARK    4  A    between atoms: C_9  and  C_14 
REMARK    5  A    between atoms: C_10  and  C_13 
REMARK       I    between atoms: N_16  and  C_11 
REMARK       I    between atoms: C_15  and  N_20 
REMARK       I    between atoms: N_21  and  C_15 
REMARK    6  A    between atoms: N_20  and  N_16 
REMARK    7  A    between atoms: C_31  and  N_21 
ROOT
ATOM      1  N   UNL d   1      -0.026  -1.200  -0.132  0.00  0.00    -0.203 N 
ATOM      2  N   UNL d   1       0.683  -0.736  -1.171  0.00  0.00    -0.268 N 
ATOM      3  HN  UNL d   1       0.946  -1.203  -2.039  1.00  0.00     0.190 HD
ATOM      4  N   UNL d   1      -0.218  -0.324   0.869  0.00  0.00    -0.002 NA
ATOM      5  C   UNL d   1       0.951   0.511  -0.756  0.00  0.00     0.144 A 
ATOM      6  N   UNL d   1       0.400   0.785   0.472  0.00  0.00    -0.266 N 
ATOM      7  HN  UNL d   1       0.454   1.668   0.980  1.00  0.00     0.186 HD
ENDROOT
BRANCH   1   8
ATOM      8  C   UNL d   1      -0.323  -2.613  -0.003  0.00  0.00     0.214 C 
ATOM      9  C   UNL d   1       0.933  -3.359   0.451  0.00  0.00     0.046 C 
BRANCH   8  10
ATOM     10  C   UNL d   1      -0.935  -3.241  -1.260  0.00  0.00     0.262 C 
ATOM     11  N   UNL d   1      -1.240  -2.408  -2.327  0.00  0.00    -0.264 N 
ATOM     12  H   UNL d   1      -0.678  -1.562  -2.487  0.00  0.00     0.190 HD
ATOM     13  O   UNL d   1      -1.223  -4.443  -1.281  0.00  0.00    -0.269 OA
BRANCH  11  14
ATOM     14  N   UNL d   1      -1.744  -2.995  -3.515  0.00  0.00    -0.249 N 
ATOM     15  C   UNL d   1      -1.541  -2.314  -4.706  0.00  0.00     0.335 C 
ATOM     16  N   UNL d   1      -2.148  -2.951  -5.763  0.00  0.00    -0.338 N 
ATOM     17  O   UNL d   1      -0.889  -1.284  -4.780  0.00  0.00    -0.246 OA
ATOM     18  H   UNL d   1      -2.377  -3.923  -5.613  0.00  0.00     0.164 HD
ATOM     19  H   UNL d   1      -2.606  -3.517  -3.400  0.00  0.00     0.192 HD
BRANCH  16  20
ATOM     20  C   UNL d   1      -2.068  -2.518  -7.160  0.00  0.00     0.078 C 
ATOM     21  C   UNL d   1      -2.743  -1.171  -7.400  0.00  0.00     0.032 C 
ATOM     22  C   UNL d   1      -0.642  -2.520  -7.711  0.00  0.00     0.032 C 
ENDBRANCH  16  20
ENDBRANCH  11  14
ENDBRANCH   8  10
ENDBRANCH   1   8
BRANCH   5  23
ATOM     23  C   UNL d   1       1.762   1.434  -1.533  0.00  0.00     0.012 A 
ATOM     24  C   UNL d   1       2.243   1.020  -2.786  0.00  0.00     0.031 A 
ATOM     25  C   UNL d   1       3.034   1.856  -3.582  0.00  0.00     0.049 A 
ATOM     26  C   UNL d   1       3.347   3.134  -3.099  0.00  0.00     0.032 A 
ATOM     27  C   UNL d   1       2.866   3.581  -1.853  0.00  0.00     0.049 A 
ATOM     28  C   UNL d   1       2.078   2.716  -1.071  0.00  0.00     0.031 A 
BRANCH  25  29
ATOM     29  C   UNL d   1       3.515   1.387  -4.934  0.00  0.00     0.417 C 
ATOM     30  F   UNL d   1       3.102   0.131  -5.257  0.00  0.00    -0.166 F 
ATOM     31  F   UNL d   1       3.087   2.194  -5.942  0.00  0.00    -0.166 F 
ATOM     32  F   UNL d   1       4.873   1.364  -5.019  0.00  0.00    -0.166 F 
ENDBRANCH  25  29
BRANCH  27  33
ATOM     33  C   UNL d   1       3.181   4.984  -1.389  0.00  0.00     0.417 C 
ATOM     34  F   UNL d   1       2.620   5.303  -0.190  0.00  0.00    -0.166 F 
ATOM     35  F   UNL d   1       4.518   5.197  -1.248  0.00  0.00    -0.166 F 
ATOM     36  F   UNL d   1       2.742   5.926  -2.269  0.00  0.00    -0.166 F 
ENDBRANCH  27  33
ENDBRANCH   5  23
TORSDOF 7
