REMARK  5 active torsions:
REMARK  status: ('A' for Active; 'I' for Inactive)
REMARK    1  A    between atoms: N_2  and  S_1 
REMARK    2  A    between atoms: C_6  and  S_1 
REMARK    3  A    between atoms: C_5  and  N_2 
REMARK    4  A    between atoms: O_10  and  C_7 
REMARK    5  A    between atoms: C_13  and  O_10 
ROOT
ATOM      1  N   UNL d   1      -0.300  -2.933  -1.752  0.00  0.00    -0.327 N 
ATOM      2  HN  UNL d   1      -1.243  -2.873  -1.368  1.00  0.00     0.169 HD
ATOM      3  C   UNL d   1       0.742  -2.331  -1.170  0.00  0.00     0.095 A 
ATOM      4  C   UNL d   1      -0.027  -3.627  -2.880  0.00  0.00     0.149 A 
ATOM      5  C   UNL d   1       2.041  -2.349  -1.650  0.00  0.00     0.043 A 
ATOM      6  C   UNL d   1       1.231  -3.695  -3.463  0.00  0.00     0.056 A 
ATOM      7  C   UNL d   1       2.287  -3.049  -2.826  0.00  0.00     0.007 A 
ENDROOT
BRANCH   3   8
ATOM      8  N   UNL d   1       0.395  -1.645   0.012  0.00  0.00    -0.166 NA
ATOM      9  H   UNL d   1      -0.414  -2.122   0.409  0.00  0.00     0.147 HD
BRANCH   8  10
ATOM     10  S   UNL d   1       0.001  -0.016  -0.231  0.00  0.00     0.247 S 
ATOM     11  O   UNL d   1       0.693   0.507  -1.391  0.00  0.00    -0.205 OA
ATOM     12  O   UNL d   1       0.128   0.632   1.060  0.00  0.00    -0.205 OA
BRANCH  10  13
ATOM     13  C   UNL d   1      -1.747  -0.067  -0.595  0.00  0.00     0.075 A 
ATOM     14  C   UNL d   1      -2.668   0.089   0.451  0.00  0.00     0.028 A 
ATOM     15  C   UNL d   1      -4.034   0.146   0.164  0.00  0.00     0.044 A 
ATOM     16  C   UNL d   1      -4.463   0.054  -1.156  0.00  0.00     0.116 A 
ATOM     17  C   UNL d   1      -3.552  -0.099  -2.198  0.00  0.00     0.044 A 
ATOM     18  F   UNL d   1      -5.772   0.131  -1.429  0.00  0.00    -0.206 F 
ATOM     19  C   UNL d   1      -2.184  -0.154  -1.922  0.00  0.00     0.028 A 
ENDBRANCH  10  13
ENDBRANCH   8  10
ENDBRANCH   3   8
BRANCH   4  20
ATOM     20  O   UNL d   1      -1.051  -4.306  -3.527  0.00  0.00    -0.294 OA
BRANCH  20  21
ATOM     21  C   UNL d   1      -2.094  -4.779  -2.761  0.00  0.00     0.077 A 
ATOM     22  C   UNL d   1      -3.354  -4.788  -3.365  0.00  0.00     0.039 A 
ATOM     23  C   UNL d   1      -4.459  -5.282  -2.667  0.00  0.00     0.026 A 
ATOM     24  C   UNL d   1      -4.299  -5.769  -1.370  0.00  0.00     0.034 A 
ATOM     25  C   UNL d   1      -3.042  -5.784  -0.771  0.00  0.00     0.026 A 
ATOM     26 CL   UNL d   1      -5.660  -6.369  -0.506  0.00  0.00    -0.084 Cl
ATOM     27  C   UNL d   1      -1.935  -5.308  -1.475  0.00  0.00     0.039 A 
ENDBRANCH  20  21
ENDBRANCH   4  20
TORSDOF 5
