REMARK  7 active torsions:
REMARK  status: ('A' for Active; 'I' for Inactive)
REMARK    1  A    between atoms: C_7  and  C_1 
REMARK    2  A    between atoms: C_3  and  C_2 
REMARK    3  A    between atoms: N_16  and  C_6 
REMARK    4  A    between atoms: O_22  and  C_7 
REMARK    5  A    between atoms: C_8  and  C_9 
REMARK       I    between atoms: C_9  and  N_15 
REMARK    6  A    between atoms: N_15  and  N_16 
REMARK    7  A    between atoms: C_23  and  O_22 
ROOT
ATOM      1  C   UNL d   1      -0.065  -1.393   0.072  0.00  0.00     0.086 A 
ATOM      2  C   UNL d   1       1.149  -0.734   0.082  0.00  0.00     0.136 A 
ATOM      3  N   UNL d   1       1.196   0.639   0.143  0.00  0.00    -0.327 N 
ATOM      4  HN  UNL d   1       2.095   1.121   0.154  1.00  0.00     0.168 HD
ATOM      5  C   UNL d   1       0.058   1.342   0.190  0.00  0.00     0.176 A 
ATOM      6  N   UNL d   1      -1.154   0.767   0.154  0.00  0.00    -0.340 N 
ATOM      7  HN  UNL d   1      -2.010   1.322   0.166  1.00  0.00     0.167 HD
ATOM      8  C   UNL d   1      -1.185  -0.581   0.101  0.00  0.00     0.110 A 
ENDROOT
BRANCH   5   9
ATOM      9  N   UNL d   1       0.168   2.731   0.312  0.00  0.00    -0.173 NA
ATOM     10  H   UNL d   1       1.090   3.024  -0.019  0.00  0.00     0.156 HD
BRANCH   9  11
ATOM     11  N   UNL d   1      -0.894   3.446  -0.264  0.00  0.00    -0.284 N 
ATOM     12  C   UNL d   1      -0.621   4.685  -0.796  0.00  0.00     0.236 C 
ATOM     13  O   UNL d   1       0.512   5.150  -0.908  0.00  0.00    -0.272 OA
ATOM     14  H   UNL d   1      -1.829   3.098  -0.068  0.00  0.00     0.184 HD
BRANCH  12  15
ATOM     15  C   UNL d   1      -1.826   5.451  -1.218  0.00  0.00     0.079 A 
ATOM     16  C   UNL d   1      -1.692   6.714  -2.038  0.00  0.00     0.015 A 
ATOM     17  C   UNL d   1      -2.113   6.801  -0.601  0.00  0.00     0.015 A 
ENDBRANCH  12  15
ENDBRANCH   9  11
ENDBRANCH   5   9
BRANCH   2  18
ATOM     18  C   UNL d   1       2.502  -1.411  -0.036  0.00  0.00     0.433 C 
ATOM     19  F   UNL d   1       2.508  -2.758  -0.192  0.00  0.00    -0.165 F 
ATOM     20  F   UNL d   1       3.197  -0.946  -1.120  0.00  0.00    -0.165 F 
ATOM     21  F   UNL d   1       3.302  -1.158   1.040  0.00  0.00    -0.165 F 
ENDBRANCH   2  18
BRANCH   1  22
ATOM     22  C   UNL d   1      -0.249  -2.851   0.025  0.00  0.00     0.296 C 
ATOM     23  O   UNL d   1       0.439  -3.668   0.604  0.00  0.00    -0.259 OA
BRANCH  22  24
ATOM     24  O   UNL d   1      -1.282  -3.101  -0.818  0.00  0.00    -0.318 OA
BRANCH  24  25
ATOM     25  C   UNL d   1      -1.411  -4.440  -1.318  0.00  0.00     0.174 C 
ATOM     26  C   UNL d   1      -0.762  -4.459  -2.688  0.00  0.00     0.034 C 
ENDBRANCH  24  25
ENDBRANCH  22  24
ENDBRANCH   1  22
TORSDOF 7
