REMARK  2 active torsions:
REMARK  status: ('A' for Active; 'I' for Inactive)
REMARK    1  A    between atoms: C_2  and  C_1 
REMARK    2  A    between atoms: C_13  and  N_3 
ROOT
ATOM      1  C   UNL d   1      -0.119  -1.299  -0.041  0.00  0.00     0.153 C 
ATOM      2  N   UNL d   1       1.109  -0.721   0.234  0.00  0.00    -0.224 N 
ATOM      3  N   UNL d   1       0.901   0.587   0.511  0.00  0.00     0.001 NA
ATOM      4  N   UNL d   1      -0.359   0.826   0.175  0.00  0.00    -0.007 NA
ATOM      5  N   UNL d   1      -0.997  -0.329  -0.196  0.00  0.00    -0.269 N 
ATOM      6  HN  UNL d   1      -1.958  -0.419  -0.526  1.00  0.00     0.185 HD
ENDROOT
BRANCH   1   7
ATOM      7  C   UNL d   1      -0.463  -2.742  -0.037  0.00  0.00     0.065 A 
ATOM      8  C   UNL d   1      -1.450  -3.378  -0.766  0.00  0.00     0.131 A 
ATOM      9  C   UNL d   1      -2.300  -2.901  -1.825  0.00  0.00     0.041 A 
ATOM     10  O   UNL d   1      -1.451  -4.700  -0.381  0.00  0.00    -0.236 OA
ATOM     11  S   UNL d   1      -3.837  -3.609  -2.104  0.00  0.00    -0.099 SA
ATOM     12  C   UNL d   1      -2.026  -1.923  -2.760  0.00  0.00     0.022 A 
ATOM     13  C   UNL d   1      -4.136  -2.596  -3.449  0.00  0.00     0.050 A 
ATOM     14  C   UNL d   1      -3.086  -1.743  -3.696  0.00  0.00     0.008 A 
ATOM     15  N   UNL d   1      -0.456  -4.935   0.551  0.00  0.00    -0.271 N 
ATOM     16  C   UNL d   1       0.124  -3.753   0.749  0.00  0.00     0.132 A 
ATOM     17  HN  UNL d   1      -0.217  -5.824   0.991  1.00  0.00     0.194 HD
ENDBRANCH   1   7
BRANCH   2  18
ATOM     18  C   UNL d   1       2.411  -1.257   0.115  0.00  0.00     0.056 A 
ATOM     19  C   UNL d   1       2.660  -2.328  -0.755  0.00  0.00     0.032 A 
ATOM     20  C   UNL d   1       3.952  -2.838  -0.884  0.00  0.00     0.009 A 
ATOM     21  C   UNL d   1       5.007  -2.290  -0.148  0.00  0.00    -0.062 A 
ATOM     22  C   UNL d   1       4.758  -1.202   0.698  0.00  0.00     0.009 A 
ATOM     23  C   UNL d   1       6.390  -2.846  -0.313  0.00  0.00     0.048 C 
ATOM     24  C   UNL d   1       3.470  -0.675   0.821  0.00  0.00     0.032 A 
ENDBRANCH   2  18
TORSDOF 2
