REMARK  6 active torsions:
REMARK  status: ('A' for Active; 'I' for Inactive)
REMARK    1  A    between atoms: N_2  and  C_1 
REMARK    2  A    between atoms: C_3  and  C_1 
REMARK    3  A    between atoms: C_5  and  C_1 
REMARK    4  A    between atoms: O_7  and  C_1 
REMARK       I    between atoms: C_4  and  N_2 
REMARK    5  A    between atoms: C_8  and  C_4 
REMARK    6  A    between atoms: O_13  and  C_5 
ROOT
ATOM      1  C   UNL d   1       0.978  -0.005  -0.156  0.00  0.00     0.325 C 
ENDROOT
BRANCH   1   2
ATOM      2  N   UNL d   1       0.410  -1.339  -0.406  0.00  0.00    -0.309 N 
ATOM      3  C   UNL d   1       0.776  -2.037  -1.530  0.00  0.00     0.254 C 
ATOM      4  O   UNL d   1       1.512  -1.535  -2.373  0.00  0.00    -0.268 OA
ATOM      5  H   UNL d   1      -0.033  -1.809   0.379  0.00  0.00     0.166 HD
BRANCH   3   6
ATOM      6  C   UNL d   1       0.238  -3.410  -1.703  0.00  0.00     0.032 A 
ATOM      7  C   UNL d   1      -1.005  -3.788  -1.180  0.00  0.00     0.017 A 
ATOM      8  C   UNL d   1      -1.507  -5.067  -1.436  0.00  0.00     0.001 A 
ATOM      9  C   UNL d   1      -0.775  -5.967  -2.211  0.00  0.00     0.000 A 
ATOM     10  C   UNL d   1       0.464  -5.595  -2.731  0.00  0.00     0.001 A 
ATOM     11  C   UNL d   1       0.969  -4.318  -2.481  0.00  0.00     0.017 A 
ENDBRANCH   3   6
ENDBRANCH   1   2
BRANCH   1  12
ATOM     12  C   UNL d   1       2.534   0.055   0.007  0.00  0.00     0.448 C 
ATOM     13  F   UNL d   1       3.111  -1.170  -0.087  0.00  0.00    -0.166 F 
ATOM     14  F   UNL d   1       3.102   0.832  -0.950  0.00  0.00    -0.166 F 
ATOM     15  F   UNL d   1       2.931   0.564   1.200  0.00  0.00    -0.166 F 
ENDBRANCH   1  12
BRANCH   1  16
ATOM     16  C   UNL d   1       0.428   0.494   1.193  0.00  0.00     0.324 C 
ATOM     17  O   UNL d   1       0.141  -0.256   2.127  0.00  0.00    -0.259 OA
BRANCH  16  18
ATOM     18  O   UNL d   1       0.295   1.849   1.216  0.00  0.00    -0.322 OA
ATOM     19  C   UNL d   1      -0.231   2.400   2.425  0.00  0.00     0.213 C 
ENDBRANCH  16  18
ENDBRANCH   1  16
BRANCH   1  20
ATOM     20  O   UNL d   1       0.486   0.798  -1.234  0.00  0.00    -0.356 OA
ATOM     21  H   UNL d   1       0.891   0.400  -2.033  0.00  0.00     0.213 HD
ENDBRANCH   1  20
TORSDOF 6
