REMARK  6 active torsions:
REMARK  status: ('A' for Active; 'I' for Inactive)
REMARK    1  A    between atoms: C_2  and  C_1 
REMARK       I    between atoms: N_7  and  C_1 
REMARK    2  A    between atoms: C_3  and  C_5 
REMARK    3  A    between atoms: C_4  and  C_6 
REMARK    4  A    between atoms: C_22  and  N_7 
REMARK    5  A    between atoms: C_9  and  O_15 
REMARK    6  A    between atoms: O_15  and  C_23 
ROOT
ATOM      1  C   UNL d   1      -1.168   0.989   0.797  0.00  0.00     0.035 C 
ATOM      2  C   UNL d   1      -3.961   1.052   1.036  0.00  0.00     0.076 C 
ATOM      3  C   UNL d   1      -1.857  -0.095   1.340  0.00  0.00     0.032 C 
ATOM      4  C   UNL d   1      -1.881   2.155   0.485  0.00  0.00     0.032 C 
ATOM      5  C   UNL d   1      -3.244  -0.055   1.490  0.00  0.00     0.039 C 
ATOM      6  C   UNL d   1      -3.277   2.180   0.593  0.00  0.00     0.039 C 
ENDROOT
BRANCH   2   7
ATOM      7  O   UNL d   1      -5.341   1.089   1.003  0.00  0.00    -0.311 OA
BRANCH   7   8
ATOM      8  C   UNL d   1      -6.004  -0.068   0.641  0.00  0.00     0.077 A 
ATOM      9  C   UNL d   1      -7.217  -0.319   1.284  0.00  0.00     0.053 A 
ATOM     10  C   UNL d   1      -7.925  -1.505   1.028  0.00  0.00     0.051 A 
ATOM     11  C   UNL d   1      -7.391  -2.437   0.119  0.00  0.00     0.032 A 
ATOM     12  C   UNL d   1      -6.188  -2.181  -0.554  0.00  0.00     0.051 A 
ATOM     13  C   UNL d   1      -5.524  -0.967  -0.318  0.00  0.00     0.053 A 
BRANCH  10  14
ATOM     14  C   UNL d   1      -9.234  -1.765   1.735  0.00  0.00     0.417 C 
ATOM     15  F   UNL d   1      -9.736  -3.009   1.502  0.00  0.00    -0.166 F 
ATOM     16  F   UNL d   1      -9.129  -1.652   3.088  0.00  0.00    -0.166 F 
ATOM     17  F   UNL d   1     -10.208  -0.892   1.359  0.00  0.00    -0.166 F 
ENDBRANCH  10  14
BRANCH  12  18
ATOM     18  C   UNL d   1      -5.566  -3.197  -1.482  0.00  0.00     0.417 C 
ATOM     19  F   UNL d   1      -6.316  -4.324  -1.631  0.00  0.00    -0.166 F 
ATOM     20  F   UNL d   1      -5.367  -2.709  -2.737  0.00  0.00    -0.166 F 
ATOM     21  F   UNL d   1      -4.348  -3.617  -1.043  0.00  0.00    -0.166 F 
ENDBRANCH  12  18
ENDBRANCH   7   8
ENDBRANCH   2   7
BRANCH   1  22
ATOM     22  N   UNL d   1       0.220   0.964   0.532  0.00  0.00    -0.323 N 
ATOM     23  C   UNL d   1       1.018  -0.170   0.507  0.00  0.00     0.261 C 
ATOM     24  O   UNL d   1       0.647  -1.324   0.687  0.00  0.00    -0.267 OA
ATOM     25  H   UNL d   1       0.642   1.845   0.267  0.00  0.00     0.169 HD
BRANCH  23  26
ATOM     26  C   UNL d   1       2.454   0.050   0.233  0.00  0.00     0.092 A 
ATOM     27  C   UNL d   1       3.139   1.022   0.964  0.00  0.00     0.133 A 
ATOM     28  F   UNL d   1       2.486   1.835   1.807  0.00  0.00    -0.205 F 
ATOM     29  C   UNL d   1       4.521   1.169   0.852  0.00  0.00     0.043 A 
ATOM     30  C   UNL d   1       5.238   0.335  -0.002  0.00  0.00     0.005 A 
ATOM     31  C   UNL d   1       4.564  -0.623  -0.759  0.00  0.00     0.025 A 
ATOM     32  C   UNL d   1       3.174  -0.767  -0.648  0.00  0.00     0.052 A 
ATOM     33 CL   UNL d   1       2.428  -1.931  -1.687  0.00  0.00    -0.083 Cl
ENDBRANCH  23  26
ENDBRANCH   1  22
TORSDOF 6
