REMARK  8 active torsions:
REMARK  status: ('A' for Active; 'I' for Inactive)
REMARK    1  A    between atoms: N_3  and  C_1 
REMARK    2  A    between atoms: S_5  and  C_2 
REMARK    3  A    between atoms: S_9  and  C_4 
REMARK    4  A    between atoms: C_11  and  S_5 
REMARK    5  A    between atoms: C_6  and  C_8 
REMARK    6  A    between atoms: C_12  and  S_9 
REMARK    7  A    between atoms: N_20  and  C_15 
REMARK    8  A    between atoms: N_21  and  C_16 
ROOT
ATOM      1  C   UNL d   1       1.485   0.005  -0.294  0.00  0.00     0.122 A 
ATOM      2  C   UNL d   1       0.771  -1.211  -0.354  0.00  0.00     0.056 A 
ATOM      3  C   UNL d   1      -0.623  -1.145  -0.094  0.00  0.00     0.026 A 
ATOM      4  C   UNL d   1       0.864   1.242  -0.058  0.00  0.00     0.053 A 
ATOM      5  C   UNL d   1      -0.513   1.306   0.155  0.00  0.00     0.051 A 
ATOM      6  C   UNL d   1      -1.241   0.106   0.142  0.00  0.00     0.036 A 
ENDROOT
BRANCH   2   7
ATOM      7  S   UNL d   1       1.573  -2.784  -0.734  0.00  0.00    -0.085 SA
BRANCH   7   8
ATOM      8  C   UNL d   1       1.976  -2.600  -2.473  0.00  0.00     0.026 A 
ATOM      9  C   UNL d   1       3.290  -2.307  -2.899  0.00  0.00     0.023 A 
ATOM     10  C   UNL d   1       3.544  -2.189  -4.272  0.00  0.00     0.024 A 
ATOM     11  C   UNL d   1       2.520  -2.334  -5.208  0.00  0.00     0.002 A 
ATOM     12  C   UNL d   1       1.230  -2.637  -4.785  0.00  0.00     0.001 A 
ATOM     13  C   UNL d   1       0.958  -2.770  -3.422  0.00  0.00     0.021 A 
BRANCH   9  14
ATOM     14  N   UNL d   1       4.391  -2.356  -2.025  0.00  0.00    -0.302 NA
ATOM     15  H   UNL d   1       4.152  -2.240  -1.040  0.00  0.00     0.124 HD
ATOM     16  H   UNL d   1       5.164  -1.756  -2.298  0.00  0.00     0.124 HD
ENDBRANCH   9  14
ENDBRANCH   7   8
ENDBRANCH   2   7
BRANCH   1  17
ATOM     17  N   UNL d   1       2.925   0.056  -0.462  0.00  0.00    -0.114 N 
ATOM     18  O   UNL d   1       3.622  -0.598   0.323  0.00  0.00    -0.532 OA
ATOM     19  O   UNL d   1       3.359   0.814  -1.345  0.00  0.00    -0.532 OA
ENDBRANCH   1  17
BRANCH   3  20
ATOM     20  S   UNL d   1      -1.738  -2.554  -0.213  0.00  0.00    -0.087 SA
BRANCH  20  21
ATOM     21  C   UNL d   1      -1.995  -3.039   1.503  0.00  0.00     0.026 A 
ATOM     22  C   UNL d   1      -1.298  -4.137   2.051  0.00  0.00     0.023 A 
ATOM     23  C   UNL d   1      -1.599  -4.557   3.354  0.00  0.00     0.024 A 
ATOM     24  C   UNL d   1      -2.634  -3.963   4.078  0.00  0.00     0.002 A 
ATOM     25  C   UNL d   1      -3.350  -2.910   3.520  0.00  0.00     0.001 A 
ATOM     26  C   UNL d   1      -3.033  -2.446   2.239  0.00  0.00     0.021 A 
BRANCH  22  27
ATOM     27  N   UNL d   1      -0.184  -4.702   1.411  0.00  0.00    -0.302 NA
ATOM     28  H   UNL d   1      -0.155  -4.506   0.413  0.00  0.00     0.124 HD
ATOM     29  H   UNL d   1      -0.019  -5.678   1.627  0.00  0.00     0.124 HD
ENDBRANCH  22  27
ENDBRANCH  20  21
ENDBRANCH   3  20
BRANCH   5  30
ATOM     30  C   UNL d   1      -1.208   2.627   0.372  0.00  0.00     0.417 C 
ATOM     31  F   UNL d   1      -0.355   3.687   0.402  0.00  0.00    -0.166 F 
ATOM     32  F   UNL d   1      -2.112   2.902  -0.610  0.00  0.00    -0.166 F 
ATOM     33  F   UNL d   1      -1.899   2.667   1.543  0.00  0.00    -0.166 F 
ENDBRANCH   5  30
TORSDOF 8
