REMARK  6 active torsions:
REMARK  status: ('A' for Active; 'I' for Inactive)
REMARK    1  A    between atoms: C_7  and  C_1 
REMARK    2  A    between atoms: S_10  and  C_4 
REMARK    3  A    between atoms: C_9  and  C_7 
REMARK    4  A    between atoms: N_8  and  C_11 
REMARK    5  A    between atoms: C_24  and  S_10 
REMARK    6  A    between atoms: C_25  and  C_24 
ROOT
ATOM      1  C   UNL d   1      -1.529   1.133   0.013  0.00  0.00     0.117 A 
ATOM      2  N   UNL d   1      -2.333   0.011   0.066  0.00  0.00    -0.331 N 
ATOM      3  HN  UNL d   1      -3.353  -0.010   0.080  1.00  0.00     0.168 HD
ATOM      4  C   UNL d   1      -1.524  -1.025   0.094  0.00  0.00     0.152 A 
ATOM      5  C   UNL d   1      -0.198   0.748   0.017  0.00  0.00     0.071 A 
ATOM      6  N   UNL d   1      -0.194  -0.647   0.052  0.00  0.00    -0.300 N 
ATOM      7  C   UNL d   1       0.992  -1.391   0.042  0.00  0.00     0.099 A 
ATOM      8  C   UNL d   1       1.061   1.418  -0.006  0.00  0.00     0.032 A 
ATOM      9  C   UNL d   1       2.176  -0.754   0.011  0.00  0.00     0.018 A 
ATOM     10  C   UNL d   1       2.198   0.699  -0.006  0.00  0.00     0.004 A 
ENDROOT
BRANCH   4  11
ATOM     11  S   UNL d   1      -2.047  -2.684   0.190  0.00  0.00    -0.089 SA
BRANCH  11  12
ATOM     12  C   UNL d   1      -3.855  -2.476   0.269  0.00  0.00     0.121 C 
BRANCH  12  13
ATOM     13  C   UNL d   1      -4.584  -3.796   0.441  0.00  0.00    -0.048 A 
ATOM     14  C   UNL d   1      -4.887  -4.282   1.724  0.00  0.00     0.010 A 
ATOM     15  C   UNL d   1      -5.571  -5.492   1.891  0.00  0.00     0.036 A 
ATOM     16  C   UNL d   1      -5.952  -6.230   0.766  0.00  0.00     0.102 A 
ATOM     17  C   UNL d   1      -5.659  -5.763  -0.521  0.00  0.00     0.036 A 
ATOM     18  C   UNL d   1      -4.974  -4.552  -0.678  0.00  0.00     0.010 A 
BRANCH  16  19
ATOM     19  N   UNL d   1      -6.665  -7.504   0.935  0.00  0.00    -0.116 N 
ATOM     20  O   UNL d   1      -6.899  -7.885   2.093  0.00  0.00    -0.532 OA
ATOM     21  O   UNL d   1      -6.989  -8.125  -0.086  0.00  0.00    -0.532 OA
ENDBRANCH  16  19
ENDBRANCH  12  13
ENDBRANCH  11  12
ENDBRANCH   4  11
BRANCH   1  22
ATOM     22  C   UNL d   1      -2.037   2.507  -0.035  0.00  0.00     0.283 C 
ATOM     23  O   UNL d   1      -1.255   3.465  -0.090  0.00  0.00    -0.281 OA
BRANCH  22  24
ATOM     24  C   UNL d   1      -3.545   2.728  -0.003  0.00  0.00     0.457 C 
ATOM     25  F   UNL d   1      -4.321   1.609  -0.019  0.00  0.00    -0.163 F 
ATOM     26  F   UNL d   1      -3.926   3.424   1.110  0.00  0.00    -0.163 F 
ATOM     27  F   UNL d   1      -3.966   3.478  -1.065  0.00  0.00    -0.163 F 
ENDBRANCH  22  24
ENDBRANCH   1  22
TORSDOF 6
