REMARK  4 active torsions:
REMARK  status: ('A' for Active; 'I' for Inactive)
REMARK    1  A    between atoms: C3_4  and  C1_1 
REMARK    2  A    between atoms: C4_6  and  C2_3 
REMARK    3  A    between atoms: O2_10  and  C4_6 
REMARK    4  A    between atoms: O3_11  and  C6_8 
ROOT
ATOM      1  C1  <1> d   1      -0.336  -1.085  -0.517  0.00  0.00     0.319 C 
ATOM      2  N1  <1> d   1      -1.526  -0.496   0.139  0.00  0.00     0.117 N 
ATOM      3  C2  <1> d   1      -1.285   0.983   0.350  0.00  0.00     0.328 C 
ATOM      4  S1  <1> d   1       1.105  -0.165   0.059  0.00  0.00    -0.126 SA
ATOM      5  C5  <1> d   1       0.192   1.360   0.349  0.00  0.00     0.123 C 
ATOM      6  H2  <1> d   1      -1.455  -0.908   1.082  0.00  0.00     0.319 HD
ENDROOT
BRANCH   1   7
ATOM      7  C3  <1> d   1      -0.374  -1.259  -2.023  0.00  0.00     0.018 A 
ATOM      8  C6  <1> d   1      -1.244  -0.608  -2.906  0.00  0.00     0.074 A 
ATOM      9  C8  <1> d   1      -1.153  -0.778  -4.289  0.00  0.00     0.037 A 
ATOM     10  C10 <1> d   1      -0.221  -1.662  -4.825  0.00  0.00     0.003 A 
ATOM     11  C9  <1> d   1       0.624  -2.367  -3.976  0.00  0.00     0.001 A 
ATOM     12  C7  <1> d   1       0.556  -2.157  -2.596  0.00  0.00     0.013 A 
BRANCH   8  13
ATOM     13  O3  <1> d   1      -2.271   0.180  -2.475  0.00  0.00    -0.360 OA
ATOM     14  H7  <1> d   1      -2.464  -0.129  -1.569  0.00  0.00     0.217 HD
ENDBRANCH   8  13
ENDBRANCH   1   7
BRANCH   3  15
ATOM     15  C4  <1> d   1      -1.990   1.421   1.646  0.00  0.00     0.175 C 
ATOM     16  O1  <1> d   1      -1.645   2.342   2.363  0.00  0.00    -0.648 OA
BRANCH  15  17
ATOM     17  O2  <1> d   1      -3.090   0.661   1.907  0.00  0.00    -0.775 OA
ATOM     18  H6  <1> d   1      -3.231   0.015   1.181  0.00  0.00     0.167 HD
ENDBRANCH  15  17
ENDBRANCH   3  15
TORSDOF 4
