REMARK  6 active torsions:
REMARK  status: ('A' for Active; 'I' for Inactive)
REMARK    1  A    between atoms: C_10  and  C_3 
REMARK    2  A    between atoms: O_18  and  C_4 
REMARK    3  A    between atoms: S_13  and  C_5 
REMARK    4  A    between atoms: C_8  and  C_10 
REMARK    5  A    between atoms: C_9  and  C_12 
REMARK    6  A    between atoms: C_12  and  S_13 
ROOT
ATOM      1  N   UNL d   1      -0.528   1.317  -0.103  0.00  0.00    -0.317 N 
ATOM      2  HN  UNL d   1      -0.976   2.233  -0.122  1.00  0.00     0.170 HD
ATOM      3  C   UNL d   1      -0.700  -1.102  -0.013  0.00  0.00     0.019 A 
ATOM      4  C   UNL d   1      -1.231   0.180  -0.029  0.00  0.00     0.150 A 
ATOM      5  C   UNL d   1       0.800   1.170  -0.151  0.00  0.00     0.146 A 
ATOM      6  N   UNL d   1       1.432  -0.014  -0.130  0.00  0.00    -0.340 N 
ATOM      7  HN  UNL d   1       2.451  -0.065  -0.161  1.00  0.00     0.167 HD
ATOM      8  C   UNL d   1       0.685  -1.137  -0.066  0.00  0.00     0.018 A 
ATOM      9  C   UNL d   1       1.462  -2.421  -0.056  0.00  0.00     0.069 C 
ENDROOT
BRANCH   5  10
ATOM     10  S   UNL d   1       1.860   2.590  -0.227  0.00  0.00    -0.089 SA
BRANCH  10  11
ATOM     11  C   UNL d   1       0.644   3.945  -0.251  0.00  0.00     0.124 C 
BRANCH  11  12
ATOM     12  C   UNL d   1       1.343   5.291  -0.320  0.00  0.00    -0.005 A 
ATOM     13  C   UNL d   1       1.635   5.907  -1.554  0.00  0.00     0.042 A 
ATOM     14 CL   UNL d   1       1.197   5.192  -3.069  0.00  0.00    -0.084 Cl
ATOM     15  C   UNL d   1       2.309   7.135  -1.615  0.00  0.00     0.024 A 
ATOM     16  C   UNL d   1       2.717   7.772  -0.447  0.00  0.00     0.003 A 
ATOM     17  C   UNL d   1       2.454   7.178   0.782  0.00  0.00     0.024 A 
ATOM     18  C   UNL d   1       1.778   5.951   0.848  0.00  0.00     0.042 A 
ATOM     19 CL   UNL d   1       1.517   5.297   2.429  0.00  0.00    -0.084 Cl
ENDBRANCH  11  12
ENDBRANCH  10  11
ENDBRANCH   5  10
BRANCH   4  20
ATOM     20  O   UNL d   1      -2.581   0.376   0.075  0.00  0.00    -0.346 OA
ATOM     21  H   UNL d   1      -2.869  -0.139   0.847  0.00  0.00     0.219 HD
ENDBRANCH   4  20
BRANCH   3  22
ATOM     22  C   UNL d   1      -1.559  -2.337   0.017  0.00  0.00     0.087 C 
BRANCH  22  23
ATOM     23  C   UNL d   1      -1.722  -3.154   1.296  0.00  0.00    -0.010 A 
ATOM     24  C   UNL d   1      -1.466  -2.708   2.609  0.00  0.00     0.042 A 
ATOM     25 CL   UNL d   1      -1.000  -1.097   3.021  0.00  0.00    -0.084 Cl
ATOM     26  C   UNL d   1      -1.623  -3.562   3.714  0.00  0.00     0.024 A 
ATOM     27  C   UNL d   1      -2.078  -4.864   3.554  0.00  0.00     0.003 A 
ATOM     28  C   UNL d   1      -2.398  -5.315   2.284  0.00  0.00     0.024 A 
ATOM     29  C   UNL d   1      -2.228  -4.475   1.174  0.00  0.00     0.042 A 
ATOM     30 CL   UNL d   1      -2.708  -5.142  -0.355  0.00  0.00    -0.084 Cl
ENDBRANCH  22  23
ENDBRANCH   3  22
TORSDOF 6
