REMARK  6 active torsions:
REMARK  status: ('A' for Active; 'I' for Inactive)
REMARK    1  A    between atoms: C_3  and  C_1 
REMARK    2  A    between atoms: C_9  and  C_2 
REMARK       I    between atoms: N_10  and  C_3 
REMARK    3  A    between atoms: C_17  and  C_6 
REMARK    4  A    between atoms: N_7  and  C_15 
REMARK    5  A    between atoms: N_13  and  C_8 
REMARK    6  A    between atoms: C_11  and  N_14 
ROOT
ATOM      1  C   UNL d   1       2.171   1.380   0.240  0.00  0.00     0.256 C 
ATOM      2  N   UNL d   1       3.336   0.616   0.363  0.00  0.00    -0.345 N 
ATOM      3  N   UNL d   1       5.826  -0.799   0.696  0.00  0.00    -0.376 N 
ATOM      4  O   UNL d   1       1.915   2.311   0.994  0.00  0.00    -0.267 OA
ATOM      5  C   UNL d   1       3.915  -0.206  -0.717  0.00  0.00     0.146 C 
ATOM      6  C   UNL d   1       4.334   1.074   1.346  0.00  0.00     0.146 C 
ATOM      7  C   UNL d   1       4.758  -1.368  -0.154  0.00  0.00     0.143 C 
ATOM      8  C   UNL d   1       5.262  -0.056   1.847  0.00  0.00     0.143 C 
ENDROOT
BRANCH   1   9
ATOM      9  C   UNL d   1       1.234   1.020  -0.815  0.00  0.00     0.073 C 
ATOM     10  C   UNL d   1       0.517   1.901  -1.613  0.00  0.00     0.175 C 
ATOM     11  O   UNL d   1      -0.166   1.190  -2.575  0.00  0.00    -0.304 OA
ATOM     12  C   UNL d   1       0.057  -0.137  -2.353  0.00  0.00     0.087 C 
ATOM     13  C   UNL d   1       0.817  -0.281  -1.215  0.00  0.00     0.058 C 
BRANCH  10  14
ATOM     14  C   UNL d   1       0.380   3.379  -1.673  0.00  0.00     0.440 C 
ATOM     15  F   UNL d   1       1.203   4.047  -0.829  0.00  0.00    -0.164 F 
ATOM     16  F   UNL d   1       0.654   3.857  -2.918  0.00  0.00    -0.164 F 
ATOM     17  F   UNL d   1      -0.888   3.774  -1.381  0.00  0.00    -0.164 F 
ENDBRANCH  10  14
BRANCH  12  18
ATOM     18  C   UNL d   1      -0.493  -1.089  -3.311  0.00  0.00    -0.002 A 
ATOM     19  C   UNL d   1      -0.190  -2.456  -3.187  0.00  0.00     0.016 A 
ATOM     20  C   UNL d   1      -0.690  -3.391  -4.097  0.00  0.00     0.024 A 
ATOM     21  C   UNL d   1      -1.499  -2.966  -5.146  0.00  0.00     0.034 A 
ATOM     22  C   UNL d   1      -1.800  -1.614  -5.296  0.00  0.00     0.024 A 
ATOM     23 CL   UNL d   1      -2.123  -4.116  -6.259  0.00  0.00    -0.084 Cl
ATOM     24  C   UNL d   1      -1.296  -0.679  -4.384  0.00  0.00     0.016 A 
ENDBRANCH  12  18
ENDBRANCH   1   9
BRANCH   3  25
ATOM     25  C   UNL d   1       7.032  -1.491   0.801  0.00  0.00     0.058 A 
ATOM     26  C   UNL d   1       7.836  -1.856  -0.318  0.00  0.00     0.067 A 
ATOM     27  C   UNL d   1       9.038  -2.578  -0.154  0.00  0.00     0.068 A 
ATOM     28  C   UNL d   1       9.487  -2.904   1.127  0.00  0.00     0.105 A 
ATOM     29  C   UNL d   1       8.725  -2.567   2.242  0.00  0.00     0.038 A 
ATOM     30  C   UNL d   1       7.516  -1.880   2.070  0.00  0.00     0.034 A 
BRANCH  26  31
ATOM     31  N   UNL d   1       7.530  -1.458  -1.652  0.00  0.00    -0.331 N 
ATOM     32  C   UNL d   1       7.710  -2.229  -2.788  0.00  0.00     0.097 A 
ATOM     33  C   UNL d   1       7.190  -1.556  -3.872  0.00  0.00     0.019 A 
ATOM     34  C   UNL d   1       6.748  -0.298  -3.411  0.00  0.00     0.019 A 
ATOM     35  C   UNL d   1       7.016  -0.245  -2.061  0.00  0.00     0.097 A 
ENDBRANCH  26  31
BRANCH  28  36
ATOM     36  N   UNL d   1      10.787  -3.565   1.298  0.00  0.00    -0.116 N 
ATOM     37  O   UNL d   1      11.443  -3.821   0.278  0.00  0.00    -0.532 OA
ATOM     38  O   UNL d   1      11.154  -3.822   2.453  0.00  0.00    -0.532 OA
ENDBRANCH  28  36
ENDBRANCH   3  25
TORSDOF 6
