REMARK  5 active torsions:
REMARK  status: ('A' for Active; 'I' for Inactive)
REMARK    1  A    between atoms: C_2  and  C_1 
REMARK       I    between atoms: N_5  and  C_2 
REMARK    2  A    between atoms: N_3  and  C_4 
REMARK    3  A    between atoms: C_8  and  N_5 
REMARK    4  A    between atoms: C_7  and  C_6 
REMARK    5  A    between atoms: O_17  and  C_7 
ROOT
ATOM      1  C   UNL d   1       1.402  -0.136  -0.138  0.00  0.00     0.082 A 
ATOM      2  C   UNL d   1       0.832  -1.296  -0.676  0.00  0.00     0.119 A 
ATOM      3  C   UNL d   1       0.555   0.922   0.206  0.00  0.00     0.056 A 
ATOM      4  C   UNL d   1      -0.557  -1.474  -0.750  0.00  0.00     0.037 A 
ATOM      5  C   UNL d   1      -0.840   0.759   0.123  0.00  0.00     0.019 A 
ATOM      6  C   UNL d   1      -1.392  -0.453  -0.307  0.00  0.00     0.004 A 
ENDROOT
BRANCH   1   7
ATOM      7  C   UNL d   1       2.762  -0.262   0.439  0.00  0.00     0.259 C 
ATOM      8  N   UNL d   1       3.688   0.730   0.214  0.00  0.00    -0.321 N 
ATOM      9  H   UNL d   1       3.477   1.466  -0.464  0.00  0.00     0.169 HD
ATOM     10  O   UNL d   1       2.943  -1.296   1.075  0.00  0.00    -0.267 OA
BRANCH   8  11
ATOM     11  C   UNL d   1       5.037   0.645   0.645  0.00  0.00     0.057 A 
ATOM     12  C   UNL d   1       6.050   1.258  -0.105  0.00  0.00     0.061 A 
ATOM     13  C   UNL d   1       7.397   1.032   0.206  0.00  0.00     0.033 A 
ATOM     14 CL   UNL d   1       5.679   2.213  -1.498  0.00  0.00    -0.082 Cl
ATOM     15  C   UNL d   1       7.751   0.231   1.299  0.00  0.00    -0.060 A 
ATOM     16  C   UNL d   1       6.741  -0.293   2.109  0.00  0.00     0.009 A 
ATOM     17  C   UNL d   1       9.184  -0.137   1.541  0.00  0.00     0.048 C 
ATOM     18  C   UNL d   1       5.399  -0.084   1.785  0.00  0.00     0.032 A 
ENDBRANCH   8  11
ENDBRANCH   1   7
BRANCH   2  19
ATOM     19  N   UNL d   1       1.689  -2.302  -1.290  0.00  0.00    -0.115 N 
ATOM     20  O   UNL d   1       2.557  -1.890  -2.070  0.00  0.00    -0.532 OA
ATOM     21  O   UNL d   1       1.417  -3.491  -1.071  0.00  0.00    -0.532 OA
ENDBRANCH   2  19
BRANCH   3  22
ATOM     22  C   UNL d   1       1.105   2.260   0.499  0.00  0.00     0.177 C 
ATOM     23  O   UNL d   1       1.977   2.751  -0.193  0.00  0.00    -0.646 OA
BRANCH  22  24
ATOM     24  O   UNL d   1       0.520   2.882   1.537  0.00  0.00    -0.773 OA
ATOM     25  H   UNL d   1      -0.096   2.349   2.072  0.00  0.00     0.167 HD
ENDBRANCH  22  24
ENDBRANCH   3  22
TORSDOF 5
