REMARK  3 active torsions:
REMARK  status: ('A' for Active; 'I' for Inactive)
REMARK    1  A    between atoms: C_6  and  N_1 
REMARK    2  A    between atoms: C_5  and  C_2 
REMARK    3  A    between atoms: C_11  and  C_6 
ROOT
ATOM      1  N   UNL d   1      -0.579  -1.214   0.205  0.00  0.00    -0.330 N 
ATOM      2  C   UNL d   1       0.808  -1.354  -0.192  0.00  0.00     0.184 C 
ATOM      3  S   UNL d   1       1.481   0.326  -0.327  0.00  0.00    -0.129 SA
ATOM      4  C   UNL d   1      -1.124   0.058   0.162  0.00  0.00     0.230 C 
ATOM      5  C   UNL d   1      -0.138   1.111  -0.276  0.00  0.00     0.179 C 
ATOM      6  O   UNL d   1      -2.293   0.323   0.431  0.00  0.00    -0.272 OA
ENDROOT
BRANCH   1   7
ATOM      7  C   UNL d   1      -1.423  -2.377   0.444  0.00  0.00     0.166 C 
BRANCH   7   8
ATOM      8  C   UNL d   1      -2.250  -2.814  -0.744  0.00  0.00    -0.040 A 
ATOM      9  C   UNL d   1      -1.762  -3.762  -1.657  0.00  0.00     0.012 A 
ATOM     10  C   UNL d   1      -2.582  -4.239  -2.684  0.00  0.00     0.043 A 
ATOM     11  C   UNL d   1      -3.881  -3.760  -2.809  0.00  0.00     0.116 A 
ATOM     12  C   UNL d   1      -4.373  -2.798  -1.939  0.00  0.00     0.043 A 
ATOM     13  F   UNL d   1      -4.674  -4.244  -3.775  0.00  0.00    -0.206 F 
ATOM     14  C   UNL d   1      -3.557  -2.322  -0.911  0.00  0.00     0.012 A 
ENDBRANCH   7   8
ENDBRANCH   1   7
BRANCH   2  15
ATOM     15  C   UNL d   1       1.667  -2.193   0.722  0.00  0.00    -0.010 A 
ATOM     16  C   UNL d   1       2.765  -2.877   0.199  0.00  0.00     0.097 A 
ATOM     17  N   UNL d   1       3.582  -3.683   0.915  0.00  0.00    -0.375 N 
ATOM     18  C   UNL d   1       3.315  -3.804   2.231  0.00  0.00     0.087 A 
ATOM     19  HN  UNL d   1       4.362  -4.176   0.480  1.00  0.00     0.164 HD
ATOM     20  C   UNL d   1       2.277  -3.144   2.865  0.00  0.00     0.018 A 
ATOM     21  C   UNL d   1       1.454  -2.319   2.103  0.00  0.00     0.013 A 
ENDBRANCH   2  15
TORSDOF 3
