REMARK  12 active torsions:
REMARK  status: ('A' for Active; 'I' for Inactive)
REMARK    1  A    between atoms: C_1  and  O_7 
REMARK    2  A    between atoms: C_2  and  O_8 
REMARK    3  A    between atoms: C_3  and  O_9 
REMARK    4  A    between atoms: C_4  and  O_13 
REMARK    5  A    between atoms: C_6  and  C_15 
REMARK    6  A    between atoms: C_10  and  O_7 
REMARK    7  A    between atoms: C_11  and  O_8 
REMARK    8  A    between atoms: C_12  and  O_9 
REMARK    9  A    between atoms: C_21  and  O_13 
REMARK   10  A    between atoms: C_14  and  O_16 
REMARK   11  A    between atoms: O_16  and  C_15 
REMARK   12  A    between atoms: C_22  and  C_21 
ROOT
ATOM      1  C   UNL d   1       1.745   0.076   0.209  0.00  0.00     0.198 C 
ATOM      2  C   UNL d   1       0.981  -1.241  -0.016  0.00  0.00     0.219 C 
ATOM      3  C   UNL d   1       0.949   1.287  -0.297  0.00  0.00     0.195 C 
ATOM      4  C   UNL d   1      -0.537  -1.169   0.347  0.00  0.00     0.292 C 
ATOM      5  O   UNL d   1      -1.112   0.013  -0.227  0.00  0.00    -0.348 OA
ATOM      6  C   UNL d   1      -0.483   1.217   0.249  0.00  0.00     0.181 C 
ENDROOT
BRANCH   4   7
ATOM      7  O   UNL d   1      -1.285  -2.307  -0.153  0.00  0.00    -0.354 OA
BRANCH   7   8
ATOM      8  C   UNL d   1      -0.840  -3.532   0.423  0.00  0.00     0.209 C 
BRANCH   8   9
ATOM      9  C   UNL d   1      -1.639  -4.773   0.130  0.00  0.00    -0.035 A 
ATOM     10  C   UNL d   1      -0.937  -5.991   0.029  0.00  0.00     0.009 A 
ATOM     11  C   UNL d   1      -1.611  -7.198  -0.126  0.00  0.00     0.001 A 
ATOM     12  C   UNL d   1      -3.000  -7.204  -0.170  0.00  0.00     0.000 A 
ATOM     13  C   UNL d   1      -3.708  -6.003  -0.063  0.00  0.00     0.001 A 
ATOM     14  C   UNL d   1      -3.032  -4.789   0.089  0.00  0.00     0.009 A 
ENDBRANCH   8   9
ENDBRANCH   7   8
ENDBRANCH   4   7
BRANCH   2  15
ATOM     15  O   UNL d   1       1.692  -2.337   0.624  0.00  0.00    -0.308 OA
BRANCH  15  16
ATOM     16  C   UNL d   1       1.691  -2.410   1.985  0.00  0.00     0.255 C 
ATOM     17  O   UNL d   1       1.164  -1.599   2.728  0.00  0.00    -0.266 OA
ATOM     18  C   UNL d   1       2.261  -3.727   2.422  0.00  0.00     0.126 C 
ENDBRANCH  15  16
ENDBRANCH   2  15
BRANCH   1  19
ATOM     19  O   UNL d   1       3.000   0.015  -0.535  0.00  0.00    -0.311 OA
BRANCH  19  20
ATOM     20  C   UNL d   1       4.062  -0.574   0.080  0.00  0.00     0.255 C 
ATOM     21  O   UNL d   1       4.081  -0.987   1.233  0.00  0.00    -0.266 OA
ATOM     22  C   UNL d   1       5.210  -0.710  -0.867  0.00  0.00     0.126 C 
ENDBRANCH  19  20
ENDBRANCH   1  19
BRANCH   6  23
ATOM     23  C   UNL d   1      -1.321   2.421  -0.216  0.00  0.00     0.213 C 
BRANCH  23  24
ATOM     24  O   UNL d   1      -2.642   2.387   0.365  0.00  0.00    -0.319 OA
BRANCH  24  25
ATOM     25  C   UNL d   1      -2.726   2.791   1.660  0.00  0.00     0.254 C 
ATOM     26  O   UNL d   1      -1.790   3.202   2.332  0.00  0.00    -0.266 OA
ATOM     27  C   UNL d   1      -4.132   2.673   2.165  0.00  0.00     0.126 C 
ENDBRANCH  24  25
ENDBRANCH  23  24
ENDBRANCH   6  23
BRANCH   3  28
ATOM     28  O   UNL d   1       1.603   2.477   0.201  0.00  0.00    -0.311 OA
BRANCH  28  29
ATOM     29  C   UNL d   1       2.182   3.297  -0.715  0.00  0.00     0.255 C 
ATOM     30  O   UNL d   1       2.111   3.167  -1.928  0.00  0.00    -0.266 OA
ATOM     31  C   UNL d   1       2.903   4.423  -0.036  0.00  0.00     0.126 C 
ENDBRANCH  28  29
ENDBRANCH   3  28
TORSDOF 12
