REMARK  5 active torsions:
REMARK  status: ('A' for Active; 'I' for Inactive)
REMARK    1  A    between atoms: C_7  and  C_3 
REMARK    2  A    between atoms: C_15  and  C_6 
REMARK    3  A    between atoms: O_18  and  C_8 
REMARK    4  A    between atoms: S_14  and  C_15 
REMARK    5  A    between atoms: C_19  and  S_14 
ROOT
ATOM      1  N   UNL d   1       1.267   0.205  -0.201  0.00  0.00    -0.322 N 
ATOM      2  HN  UNL d   1       2.240   0.383  -0.448  1.00  0.00     0.169 HD
ATOM      3  C   UNL d   1       0.256   1.115   0.005  0.00  0.00     0.138 A 
ATOM      4  N   UNL d   1      -0.939   0.551   0.245  0.00  0.00    -0.242 N 
ATOM      5  HN  UNL d   1      -1.835   1.014   0.395  1.00  0.00     0.196 HD
ATOM      6  C   UNL d   1       0.673  -0.948  -0.002  0.00  0.00     0.158 A 
ATOM      7  O   UNL d   1      -0.664  -0.821   0.241  0.00  0.00    -0.222 OA
ENDROOT
BRANCH   3   8
ATOM      8  C   UNL d   1       0.524   2.546  -0.017  0.00  0.00     0.013 A 
ATOM      9  C   UNL d   1       1.829   2.995  -0.262  0.00  0.00     0.037 A 
ATOM     10  C   UNL d   1       2.161   4.362  -0.280  0.00  0.00     0.046 A 
ATOM     11 BR   UNL d   1       4.006   4.673  -0.639  0.00  0.00    -0.048 Br
ATOM     12  C   UNL d   1       1.171   5.326  -0.046  0.00  0.00     0.102 A 
ATOM     13  C   UNL d   1      -0.143   4.858   0.205  0.00  0.00     0.046 A 
ATOM     14  C   UNL d   1      -0.466   3.493   0.220  0.00  0.00     0.037 A 
ATOM     15 BR   UNL d   1      -1.579   6.070   0.554  0.00  0.00    -0.048 Br
BRANCH  12  16
ATOM     16  O   UNL d   1       1.269   6.689  -0.023  0.00  0.00    -0.353 OA
ATOM     17  C   UNL d   1       2.493   7.368  -0.221  0.00  0.00     0.210 C 
ENDBRANCH  12  16
ENDBRANCH   3   8
BRANCH   6  18
ATOM     18  C   UNL d   1       1.242  -2.320   0.005  0.00  0.00     0.166 C 
BRANCH  18  19
ATOM     19  S   UNL d   1       2.911  -2.304   0.763  0.00  0.00    -0.122 SA
BRANCH  19  20
ATOM     20  C   UNL d   1       3.493  -3.967   0.495  0.00  0.00     0.001 A 
ATOM     21  C   UNL d   1       4.869  -4.147   0.298  0.00  0.00     0.018 A 
ATOM     22  C   UNL d   1       5.409  -5.426   0.153  0.00  0.00     0.001 A 
ATOM     23  C   UNL d   1       4.576  -6.541   0.206  0.00  0.00     0.000 A 
ATOM     24  C   UNL d   1       3.207  -6.374   0.403  0.00  0.00     0.001 A 
ATOM     25  C   UNL d   1       2.667  -5.093   0.551  0.00  0.00     0.018 A 
ENDBRANCH  19  20
ENDBRANCH  18  19
ENDBRANCH   6  18
TORSDOF 5
