REMARK  6 active torsions:
REMARK  status: ('A' for Active; 'I' for Inactive)
REMARK    1  A    between atoms: C_3  and  S_1 
REMARK    2  A    between atoms: O_4  and  S_1 
REMARK    3  A    between atoms: N_2  and  C_6 
REMARK    4  A    between atoms: C_17  and  O_4 
REMARK    5  A    between atoms: O_20  and  C_7 
REMARK    6  A    between atoms: O_21  and  C_12 
ROOT
ATOM      1  S   UNL d   1       0.925   0.044   0.053  0.00  0.00     0.303 S 
ATOM      2  O   UNL d   1       1.000  -1.372   0.358  0.00  0.00    -0.193 OA
ATOM      3  O   UNL d   1       0.111   0.940   0.854  0.00  0.00    -0.193 OA
ENDROOT
BRANCH   1   4
ATOM      4  C   UNL d   1       0.310   0.195  -1.614  0.00  0.00     0.089 A 
ATOM      5  C   UNL d   1      -0.123  -0.940  -2.310  0.00  0.00     0.065 A 
ATOM      6  C   UNL d   1      -0.667  -0.819  -3.600  0.00  0.00     0.102 A 
ATOM      7  C   UNL d   1      -0.758   0.460  -4.185  0.00  0.00     0.101 A 
ATOM      8  C   UNL d   1      -0.313   1.583  -3.467  0.00  0.00     0.041 A 
ATOM      9  C   UNL d   1       0.216   1.462  -2.184  0.00  0.00     0.029 A 
BRANCH   6  10
ATOM     10  O   UNL d   1      -1.123  -1.893  -4.315  0.00  0.00    -0.353 OA
ATOM     11  C   UNL d   1      -1.055  -3.185  -3.724  0.00  0.00     0.210 C 
ENDBRANCH   6  10
BRANCH   7  12
ATOM     12  O   UNL d   1      -1.245   0.807  -5.419  0.00  0.00    -0.353 OA
ATOM     13  C   UNL d   1      -1.757  -0.204  -6.274  0.00  0.00     0.210 C 
ENDBRANCH   7  12
ENDBRANCH   1   4
BRANCH   1  14
ATOM     14  O   UNL d   1       2.445   0.633  -0.047  0.00  0.00    -0.229 OA
BRANCH  14  15
ATOM     15  C   UNL d   1       3.287   0.645   1.038  0.00  0.00     0.089 A 
ATOM     16  C   UNL d   1       4.652   0.546   0.747  0.00  0.00     0.040 A 
ATOM     17  C   UNL d   1       5.603   0.599   1.771  0.00  0.00     0.039 A 
ATOM     18  C   UNL d   1       5.181   0.766   3.096  0.00  0.00     0.103 A 
ATOM     19  C   UNL d   1       3.817   0.869   3.395  0.00  0.00     0.039 A 
ATOM     20  C   UNL d   1       2.872   0.810   2.363  0.00  0.00     0.040 A 
BRANCH  18  21
ATOM     21  N   UNL d   1       6.174   0.851   4.175  0.00  0.00    -0.116 N 
ATOM     22  O   UNL d   1       7.370   0.748   3.866  0.00  0.00    -0.532 OA
ATOM     23  O   UNL d   1       5.759   1.028   5.329  0.00  0.00    -0.532 OA
ENDBRANCH  18  21
ENDBRANCH  14  15
ENDBRANCH   1  14
TORSDOF 6
