REMARK  4 active torsions:
REMARK  status: ('A' for Active; 'I' for Inactive)
REMARK    1  A    between atoms: C_8  and  C_1 
REMARK    2  A    between atoms: C_12  and  C_3 
REMARK    3  A    between atoms: C_9  and  N_4 
REMARK    4  A    between atoms: N_7  and  C_10 
REMARK       I    between atoms: N_19  and  C_8 
ROOT
ATOM      1  C   UNL d   1      -0.087  -1.259   0.088  0.00  0.00     0.143 C 
ATOM      2  N   UNL d   1      -0.273   0.916   0.206  0.00  0.00    -0.014 NA
ATOM      3  C   UNL d   1       1.216  -0.776   0.029  0.00  0.00     0.098 C 
ATOM      4  N   UNL d   1       1.028   0.612  -0.003  0.00  0.00    -0.237 N 
ATOM      5  N   UNL d   1      -0.972  -0.206   0.158  0.00  0.00    -0.276 N 
ATOM      6  HN  UNL d   1      -1.989  -0.278   0.169  1.00  0.00     0.184 HD
ENDROOT
BRANCH   4   7
ATOM      7  C   UNL d   1       1.983   1.650  -0.176  0.00  0.00     0.055 A 
ATOM      8  C   UNL d   1       3.066   1.477  -1.052  0.00  0.00     0.034 A 
ATOM      9  C   UNL d   1       4.135   2.374  -1.029  0.00  0.00     0.038 A 
ATOM     10  C   UNL d   1       4.101   3.462  -0.150  0.00  0.00     0.103 A 
ATOM     11  C   UNL d   1       2.975   3.696   0.655  0.00  0.00     0.038 A 
ATOM     12  C   UNL d   1       1.903   2.797   0.627  0.00  0.00     0.034 A 
BRANCH  10  13
ATOM     13  N   UNL d   1       5.276   4.336  -0.038  0.00  0.00    -0.116 N 
ATOM     14  O   UNL d   1       5.213   5.289   0.750  0.00  0.00    -0.532 OA
ATOM     15  O   UNL d   1       6.269   4.055  -0.725  0.00  0.00    -0.532 OA
ENDBRANCH  10  13
ENDBRANCH   4   7
BRANCH   3  16
ATOM     16  C   UNL d   1       2.523  -1.463   0.021  0.00  0.00    -0.005 A 
ATOM     17  C   UNL d   1       2.712  -2.651  -0.699  0.00  0.00     0.014 A 
ATOM     18  C   UNL d   1       3.973  -3.247  -0.789  0.00  0.00     0.001 A 
ATOM     19  C   UNL d   1       5.079  -2.643  -0.201  0.00  0.00     0.000 A 
ATOM     20  C   UNL d   1       4.912  -1.480   0.541  0.00  0.00     0.001 A 
ATOM     21  C   UNL d   1       3.638  -0.929   0.693  0.00  0.00     0.014 A 
ENDBRANCH   3  16
BRANCH   1  22
ATOM     22  C   UNL d   1      -0.564  -2.640   0.114  0.00  0.00     0.269 C 
ATOM     23  O   UNL d   1       0.091  -3.597   0.513  0.00  0.00    -0.266 OA
ATOM     24  N   UNL d   1      -1.821  -2.817  -0.384  0.00  0.00    -0.365 N 
ATOM     25  H   UNL d   1      -2.366  -2.042  -0.740  0.00  0.00     0.159 HD
ATOM     26  H   UNL d   1      -2.190  -3.755  -0.425  0.00  0.00     0.159 HD
ENDBRANCH   1  22
TORSDOF 4
