REMARK  4 active torsions:
REMARK  status: ('A' for Active; 'I' for Inactive)
REMARK    1  A    between atoms: N_2  and  S_1 
REMARK    2  A    between atoms: C_7  and  S_1 
REMARK       I    between atoms: C_4  and  N_2 
REMARK    3  A    between atoms: C_3  and  C_13 
REMARK       I    between atoms: N_12  and  C_4 
REMARK    4  A    between atoms: C_13  and  N_12 
ROOT
ATOM      1  N   UNL d   1       0.724  -0.586   1.389  0.00  0.00    -0.232 N 
ATOM      2  C   UNL d   1       0.964  -1.843   1.921  0.00  0.00     0.330 C 
ATOM      3  N   UNL d   1       1.690  -2.742   1.201  0.00  0.00    -0.338 N 
ATOM      4  O   UNL d   1       0.505  -2.090   3.029  0.00  0.00    -0.246 OA
ATOM      5  H   UNL d   1       0.061  -0.033   1.925  0.00  0.00     0.183 HD
ATOM      6  H   UNL d   1       1.799  -2.566   0.206  0.00  0.00     0.164 HD
ENDROOT
BRANCH   1   7
ATOM      7  S   UNL d   1       0.975  -0.002  -0.130  0.00  0.00     0.266 S 
ATOM      8  O   UNL d   1      -0.073   0.969  -0.373  0.00  0.00    -0.200 OA
ATOM      9  O   UNL d   1       1.188  -1.120  -1.028  0.00  0.00    -0.200 OA
BRANCH   7  10
ATOM     10  C   UNL d   1       2.510   0.880   0.009  0.00  0.00     0.080 A 
ATOM     11  C   UNL d   1       3.713   0.192  -0.174  0.00  0.00     0.026 A 
ATOM     12  C   UNL d   1       4.911   0.902  -0.261  0.00  0.00     0.008 A 
ATOM     13  C   UNL d   1       4.919   2.303  -0.173  0.00  0.00    -0.062 A 
ATOM     14  C   UNL d   1       3.712   2.980   0.048  0.00  0.00     0.008 A 
ATOM     15  C   UNL d   1       6.204   3.052  -0.369  0.00  0.00     0.048 C 
ATOM     16  C   UNL d   1       2.509   2.275   0.136  0.00  0.00     0.026 A 
ENDBRANCH   7  10
ENDBRANCH   1   7
BRANCH   3  17
ATOM     17  C   UNL d   1       1.861  -4.093   1.683  0.00  0.00     0.164 C 
BRANCH  17  18
ATOM     18  C   UNL d   1       3.190  -4.619   1.241  0.00  0.00    -0.022 A 
ATOM     19  C   UNL d   1       3.373  -5.503   0.195  0.00  0.00     0.060 A 
ATOM     20  S   UNL d   1       5.002  -5.949  -0.022  0.00  0.00    -0.101 SA
ATOM     21  C   UNL d   1       5.524  -4.964   1.288  0.00  0.00     0.015 A 
ATOM     22  C   UNL d   1       4.449  -4.304   1.889  0.00  0.00    -0.011 A 
ATOM     23  C   UNL d   1       6.846  -4.801   1.750  0.00  0.00     0.019 A 
ATOM     24  C   UNL d   1       4.728  -3.465   2.999  0.00  0.00     0.013 A 
ATOM     25  C   UNL d   1       6.037  -3.297   3.458  0.00  0.00     0.001 A 
ATOM     26  C   UNL d   1       7.086  -3.957   2.836  0.00  0.00     0.001 A 
ENDBRANCH  17  18
ENDBRANCH   3  17
TORSDOF 4
