REMARK  7 active torsions:
REMARK  status: ('A' for Active; 'I' for Inactive)
REMARK    1  A    between atoms: C_12  and  N_6 
REMARK    2  A    between atoms: N_11  and  C_8 
REMARK    3  A    between atoms: CA_18  and  N_11 
REMARK    4  A    between atoms: C_17  and  C_12 
REMARK    5  A    between atoms: C_20  and  CA_18 
REMARK    6  A    between atoms: C_23  and  CA_18 
REMARK    7  A    between atoms: O_19  and  C_20 
ROOT
ATOM      1  C   UNL d   1      -0.192  -0.812  -0.131  0.00  0.00     0.160 A 
ATOM      2  C   UNL d   1      -0.508   0.515  -0.131  0.00  0.00     0.165 A 
ATOM      3  N   UNL d   1      -1.286  -1.596  -0.075  0.00  0.00    -0.174 N 
ATOM      4  HN  UNL d   1      -1.314  -2.616  -0.065  1.00  0.00     0.186 HD
ATOM      5  N   UNL d   1       1.103  -1.263  -0.122  0.00  0.00    -0.287 N 
ATOM      6  N   UNL d   1      -1.886   0.547  -0.124  0.00  0.00    -0.170 N 
ATOM      7  N   UNL d   1       1.797   1.020  -0.087  0.00  0.00    -0.269 N 
ATOM      8  C   UNL d   1      -2.312  -0.771  -0.036  0.00  0.00     0.683 A 
ATOM      9  C   UNL d   1       2.148  -0.344  -0.088  0.00  0.00     0.332 A 
ATOM     10  C   UNL d   1       0.490   1.531  -0.088  0.00  0.00     0.282 A 
ATOM     11  O   UNL d   1       3.323  -0.717  -0.048  0.00  0.00    -0.246 OA
ATOM     12  O   UNL d   1       0.232   2.729  -0.022  0.00  0.00    -0.265 OA
ATOM     13  C   UNL d   1       1.405  -2.681  -0.095  0.00  0.00     0.163 C 
ATOM     14  C   UNL d   1       2.866   1.995  -0.015  0.00  0.00     0.164 C 
ENDROOT
BRANCH   8  15
ATOM     15  N   UNL d   1      -3.591  -1.151   0.124  0.00  0.00    -0.219 N 
ATOM     16  H   UNL d   1      -4.407  -0.570  -0.025  0.00  0.00     0.178 HD
BRANCH  15  17
ATOM     17  CA  UNL d   1      -3.862  -2.498   0.649  0.00  0.00     0.122 C 
BRANCH  17  18
ATOM     18  C   UNL d   1      -4.671  -2.387   1.959  0.00  0.00     0.189 C 
BRANCH  18  19
ATOM     19  O   UNL d   1      -6.002  -1.929   1.722  0.00  0.00    -0.399 OA
ATOM     20  H   UNL d   1      -6.486  -2.039   2.560  0.00  0.00     0.209 HD
ENDBRANCH  18  19
ENDBRANCH  17  18
BRANCH  17  21
ATOM     21  C   UNL d   1      -4.596  -3.346  -0.396  0.00  0.00     0.023 C 
ATOM     22  C   UNL d   1      -3.752  -3.620  -1.635  0.00  0.00     0.007 C 
ENDBRANCH  17  21
ENDBRANCH  15  17
ENDBRANCH   8  15
BRANCH   6  23
ATOM     23  C   UNL d   1      -2.709   1.742   0.003  0.00  0.00     0.186 C 
BRANCH  23  24
ATOM     24  C   UNL d   1      -2.958   2.432  -1.315  0.00  0.00    -0.039 A 
ATOM     25  C   UNL d   1      -3.721   1.820  -2.321  0.00  0.00     0.009 A 
ATOM     26  C   UNL d   1      -3.978   2.483  -3.527  0.00  0.00     0.001 A 
ATOM     27  C   UNL d   1      -3.476   3.765  -3.740  0.00  0.00     0.000 A 
ATOM     28  C   UNL d   1      -2.723   4.388  -2.750  0.00  0.00     0.001 A 
ATOM     29  C   UNL d   1      -2.466   3.728  -1.545  0.00  0.00     0.009 A 
ENDBRANCH  23  24
ENDBRANCH   6  23
TORSDOF 7
