REMARK  6 active torsions:
REMARK  status: ('A' for Active; 'I' for Inactive)
REMARK    1  A    between atoms: C_5  and  C_1 
REMARK    2  A    between atoms: N_9  and  C_2 
REMARK       I    between atoms: C_8  and  N_9 
REMARK       I    between atoms: N_12  and  C_8 
REMARK    3  A    between atoms: C_22  and  N_12 
REMARK    4  A    between atoms: O_19  and  C_13 
REMARK    5  A    between atoms: C_16  and  C_17 
REMARK    6  A    between atoms: C_24  and  O_19 
ROOT
ATOM      1  C   UNL d   1       3.384  -2.548  -1.081  0.00  0.00     0.325 C 
ATOM      2  N   UNL d   1       2.880  -3.738  -1.541  0.00  0.00    -0.304 N 
ATOM      3  N   UNL d   1       2.835  -2.043   0.071  0.00  0.00    -0.307 N 
ATOM      4  O   UNL d   1       4.182  -1.964  -1.809  0.00  0.00    -0.247 OA
ATOM      5  H   UNL d   1       3.432  -3.982  -2.363  0.00  0.00     0.171 HD
ATOM      6  H   UNL d   1       2.190  -2.642   0.568  0.00  0.00     0.170 HD
ENDROOT
BRANCH   3   7
ATOM      7  C   UNL d   1       2.835  -0.660   0.413  0.00  0.00     0.051 A 
ATOM      8  C   UNL d   1       3.603   0.323  -0.217  0.00  0.00     0.119 A 
ATOM      9  N   UNL d   1       3.444   1.665  -0.048  0.00  0.00    -0.344 N 
ATOM     10  C   UNL d   1       2.490   2.060   0.815  0.00  0.00     0.148 A 
ATOM     11  HN  UNL d   1       4.022   2.338  -0.551  1.00  0.00     0.167 HD
ATOM     12  C   UNL d   1       1.733   1.162   1.559  0.00  0.00     0.059 A 
ATOM     13  C   UNL d   1       1.922  -0.212   1.369  0.00  0.00     0.035 A 
BRANCH  10  14
ATOM     14  O   UNL d   1       2.111   3.397   0.922  0.00  0.00    -0.294 OA
BRANCH  14  15
ATOM     15  C   UNL d   1       2.886   4.402   0.389  0.00  0.00     0.077 A 
ATOM     16  C   UNL d   1       4.270   4.453   0.460  0.00  0.00     0.038 A 
ATOM     17  C   UNL d   1       4.958   5.590   0.007  0.00  0.00     0.011 A 
ATOM     18  C   UNL d   1       4.286   6.716  -0.504  0.00  0.00    -0.050 A 
ATOM     19  C   UNL d   1       2.887   6.645  -0.572  0.00  0.00     0.011 A 
ATOM     20  C   UNL d   1       2.197   5.504  -0.124  0.00  0.00     0.038 A 
BRANCH  18  21
ATOM     21  C   UNL d   1       5.081   7.963  -0.947  0.00  0.00    -0.024 C 
ATOM     22  C   UNL d   1       4.198   9.130  -1.444  0.00  0.00     0.019 C 
ATOM     23  C   UNL d   1       5.914   8.503   0.239  0.00  0.00     0.019 C 
ATOM     24  C   UNL d   1       6.038   7.591  -2.100  0.00  0.00     0.019 C 
ENDBRANCH  18  21
ENDBRANCH  14  15
ENDBRANCH  10  14
ENDBRANCH   3   7
BRANCH   2  25
ATOM     25  C   UNL d   1       2.527  -4.847  -0.791  0.00  0.00     0.097 C 
ATOM     26  C   UNL d   1       3.339  -5.856  -0.163  0.00  0.00     0.097 C 
ATOM     27  N   UNL d   1       2.554  -6.857   0.270  0.00  0.00    -0.258 N 
ATOM     28  O   UNL d   1       1.288  -6.601  -0.188  0.00  0.00    -0.240 OA
ATOM     29  HN  UNL d   1       2.846  -7.656   0.834  1.00  0.00     0.195 HD
ATOM     30  C   UNL d   1       1.293  -5.451  -0.902  0.00  0.00     0.101 C 
ATOM     31  C   UNL d   1       0.077  -5.203  -1.701  0.00  0.00     0.081 C 
BRANCH  26  32
ATOM     32  C   UNL d   1       4.798  -6.009  -0.061  0.00  0.00     0.038 A 
ATOM     33  C   UNL d   1       5.404  -6.443   1.140  0.00  0.00     0.048 A 
ATOM     34 CL   UNL d   1       4.535  -6.639   2.630  0.00  0.00    -0.083 Cl
ATOM     35  C   UNL d   1       6.775  -6.744   1.197  0.00  0.00     0.025 A 
ATOM     36  C   UNL d   1       7.579  -6.585   0.075  0.00  0.00     0.003 A 
ATOM     37  C   UNL d   1       7.011  -6.141  -1.112  0.00  0.00     0.025 A 
ATOM     38  C   UNL d   1       5.634  -5.881  -1.192  0.00  0.00     0.048 A 
ATOM     39 CL   UNL d   1       5.053  -5.516  -2.786  0.00  0.00    -0.083 Cl
ENDBRANCH  26  32
ENDBRANCH   2  25
TORSDOF 6
