REMARK  5 active torsions:
REMARK  status: ('A' for Active; 'I' for Inactive)
REMARK    1  A    between atoms: C_7  and  C_1 
REMARK    2  A    between atoms: C_8  and  C_3 
REMARK    3  A    between atoms: O_13  and  C_7 
REMARK    4  A    between atoms: C_19  and  O_13 
REMARK    5  A    between atoms: O_18  and  C_15 
ROOT
ATOM      1  C   UNL d   1       1.439   1.039   0.055  0.00  0.00     0.066 C 
ATOM      2  C   UNL d   1       1.368  -0.311   0.011  0.00  0.00     0.024 C 
ATOM      3  C   UNL d   1       0.194   1.882  -0.092  0.00  0.00     0.161 C 
ATOM      4  C   UNL d   1      -1.067  -0.258  -0.050  0.00  0.00     0.321 C 
ATOM      5  N   UNL d   1       0.128  -0.903  -0.098  0.00  0.00    -0.312 N 
ATOM      6  N   UNL d   1      -1.011   1.086   0.066  0.00  0.00    -0.330 N 
ATOM      7  O   UNL d   1      -2.133  -0.861  -0.077  0.00  0.00    -0.247 OA
ATOM      8  C   UNL d   1       2.499  -1.306   0.036  0.00  0.00     0.069 C 
ATOM      9  H   UNL d   1       0.052  -1.914  -0.137  0.00  0.00     0.170 HD
ATOM     10  H   UNL d   1      -1.907   1.552   0.096  0.00  0.00     0.165 HD
ENDROOT
BRANCH   3  11
ATOM     11  C   UNL d   1       0.060   3.079   0.835  0.00  0.00    -0.030 A 
ATOM     12  C   UNL d   1      -0.115   4.365   0.297  0.00  0.00     0.012 A 
ATOM     13  C   UNL d   1      -0.317   5.469   1.130  0.00  0.00     0.037 A 
ATOM     14  C   UNL d   1      -0.354   5.305   2.514  0.00  0.00     0.068 A 
ATOM     15  C   UNL d   1      -0.167   4.032   3.056  0.00  0.00     0.037 A 
ATOM     16  C   UNL d   1       0.037   2.925   2.227  0.00  0.00     0.012 A 
BRANCH  14  17
ATOM     17  O   UNL d   1      -0.564   6.296   3.433  0.00  0.00    -0.356 OA
ATOM     18  C   UNL d   1      -0.871   7.587   2.922  0.00  0.00     0.210 C 
ENDBRANCH  14  17
ENDBRANCH   3  11
BRANCH   1  19
ATOM     19  C   UNL d   1       2.747   1.730   0.197  0.00  0.00     0.293 C 
ATOM     20  O   UNL d   1       3.721   1.247   0.759  0.00  0.00    -0.259 OA
BRANCH  19  21
ATOM     21  O   UNL d   1       2.719   2.961  -0.371  0.00  0.00    -0.318 OA
BRANCH  21  22
ATOM     22  C   UNL d   1       3.932   3.727  -0.253  0.00  0.00     0.174 C 
ATOM     23  C   UNL d   1       4.160   4.231   1.164  0.00  0.00     0.034 C 
ENDBRANCH  21  22
ENDBRANCH  19  21
ENDBRANCH   1  19
TORSDOF 5
