REMARK  7 active torsions:
REMARK  status: ('A' for Active; 'I' for Inactive)
REMARK    1  A    between atoms: N_2  and  C_1 
REMARK    2  A    between atoms: O_8  and  C_4 
REMARK    3  A    between atoms: C_6  and  C_5 
REMARK    4  A    between atoms: O_14  and  C_6 
REMARK    5  A    between atoms: C_13  and  O_8 
REMARK    6  A    between atoms: C_21  and  O_14 
REMARK    7  A    between atoms: O_20  and  C_15 
ROOT
ATOM      1  C   UNL d   1       1.375  -0.216   0.131  0.00  0.00     0.137 A 
ATOM      2  C   UNL d   1       0.530  -1.331   0.221  0.00  0.00     0.056 A 
ATOM      3  C   UNL d   1       0.871   1.081   0.012  0.00  0.00     0.109 A 
ATOM      4  C   UNL d   1      -0.857  -1.137   0.227  0.00  0.00     0.042 A 
ATOM      5  C   UNL d   1      -0.517   1.266   0.089  0.00  0.00     0.041 A 
ATOM      6  C   UNL d   1      -1.373   0.166   0.177  0.00  0.00     0.020 A 
ENDROOT
BRANCH   3   7
ATOM      7  O   UNL d   1       1.745   2.132  -0.171  0.00  0.00    -0.308 OA
BRANCH   7   8
ATOM      8  C   UNL d   1       1.315   3.177  -0.956  0.00  0.00     0.076 A 
ATOM      9  C   UNL d   1       1.476   4.463  -0.448  0.00  0.00     0.040 A 
ATOM     10  C   UNL d   1       0.958   5.555  -1.147  0.00  0.00     0.039 A 
ATOM     11  C   UNL d   1       0.282   5.356  -2.353  0.00  0.00     0.068 A 
ATOM     12  C   UNL d   1       0.206   4.074  -2.901  0.00  0.00     0.039 A 
ATOM     13  C   UNL d   1       0.732   2.983  -2.212  0.00  0.00     0.040 A 
BRANCH  11  14
ATOM     14  O   UNL d   1      -0.320   6.340  -3.088  0.00  0.00    -0.356 OA
ATOM     15  C   UNL d   1      -0.773   7.464  -2.341  0.00  0.00     0.210 C 
ENDBRANCH  11  14
ENDBRANCH   7   8
ENDBRANCH   3   7
BRANCH   1  16
ATOM     16  N   UNL d   1       2.808  -0.436   0.178  0.00  0.00    -0.113 N 
ATOM     17  O   UNL d   1       3.270  -1.267  -0.619  0.00  0.00    -0.532 OA
ATOM     18  O   UNL d   1       3.452   0.173   1.041  0.00  0.00    -0.532 OA
ENDBRANCH   1  16
BRANCH   4  19
ATOM     19  C   UNL d   1      -1.828  -2.255   0.338  0.00  0.00     0.293 C 
ATOM     20  O   UNL d   1      -3.037  -2.096   0.322  0.00  0.00    -0.259 OA
BRANCH  19  21
ATOM     21  O   UNL d   1      -1.172  -3.423   0.535  0.00  0.00    -0.318 OA
BRANCH  21  22
ATOM     22  C   UNL d   1      -1.994  -4.525   0.943  0.00  0.00     0.174 C 
ATOM     23  C   UNL d   1      -2.115  -4.500   2.456  0.00  0.00     0.034 C 
ENDBRANCH  21  22
ENDBRANCH  19  21
ENDBRANCH   4  19
TORSDOF 7
