REMARK  5 active torsions:
REMARK  status: ('A' for Active; 'I' for Inactive)
REMARK    1  A    between atoms: C_2  and  S_1 
REMARK    2  A    between atoms: C_10  and  S_1 
REMARK    3  A    between atoms: C_13  and  C_3 
REMARK    4  A    between atoms: O_12  and  C_11 
REMARK    5  A    between atoms: C_16  and  O_12 
ROOT
ATOM      1  C   UNL d   1      -1.208  -1.600  -2.383  0.00  0.00     0.144 C 
ATOM      2  C   UNL d   1      -0.388  -1.844  -1.343  0.00  0.00     0.048 C 
ATOM      3  C   UNL d   1      -2.605  -1.821  -2.378  0.00  0.00     0.112 C 
ATOM      4  N   UNL d   1      -3.754  -1.989  -2.364  0.00  0.00    -0.191 NA
ENDROOT
BRANCH   1   5
ATOM      5  S   UNL d   1      -0.491  -1.099  -3.887  0.00  0.00     0.216 S 
ATOM      6  O   UNL d   1      -0.732  -2.122  -4.890  0.00  0.00    -0.216 OA
ATOM      7  O   UNL d   1       0.867  -0.634  -3.657  0.00  0.00    -0.216 OA
BRANCH   5   8
ATOM      8  C   UNL d   1      -1.425   0.341  -4.367  0.00  0.00     0.065 A 
ATOM      9  C   UNL d   1      -1.028   1.601  -3.904  0.00  0.00     0.024 A 
ATOM     10  C   UNL d   1      -1.701   2.738  -4.348  0.00  0.00     0.002 A 
ATOM     11  C   UNL d   1      -2.756   2.617  -5.254  0.00  0.00     0.000 A 
ATOM     12  C   UNL d   1      -3.142   1.359  -5.720  0.00  0.00     0.002 A 
ATOM     13  C   UNL d   1      -2.474   0.215  -5.282  0.00  0.00     0.024 A 
ENDBRANCH   5   8
ENDBRANCH   1   5
BRANCH   2  14
ATOM     14  C   UNL d   1      -0.798  -2.381  -0.046  0.00  0.00    -0.018 A 
ATOM     15  C   UNL d   1      -0.753  -3.751   0.194  0.00  0.00     0.101 A 
ATOM     16  N   UNL d   1      -1.099  -4.322   1.366  0.00  0.00    -0.346 N 
ATOM     17  C   UNL d   1      -1.541  -3.498   2.343  0.00  0.00     0.147 A 
ATOM     18  HN  UNL d   1      -1.031  -5.330   1.508  1.00  0.00     0.167 HD
ATOM     19  C   UNL d   1      -1.586  -2.118   2.217  0.00  0.00     0.057 A 
ATOM     20  C   UNL d   1      -1.214  -1.552   0.996  0.00  0.00     0.017 A 
BRANCH  17  21
ATOM     21  O   UNL d   1      -1.982  -4.044   3.542  0.00  0.00    -0.294 OA
BRANCH  21  22
ATOM     22  C   UNL d   1      -2.641  -5.254   3.470  0.00  0.00     0.077 A 
ATOM     23  C   UNL d   1      -2.428  -6.159   4.510  0.00  0.00     0.037 A 
ATOM     24  C   UNL d   1      -3.061  -7.405   4.489  0.00  0.00     0.003 A 
ATOM     25  C   UNL d   1      -3.913  -7.741   3.435  0.00  0.00     0.000 A 
ATOM     26  C   UNL d   1      -4.155  -6.823   2.416  0.00  0.00     0.003 A 
ATOM     27  C   UNL d   1      -3.537  -5.574   2.444  0.00  0.00     0.037 A 
ENDBRANCH  21  22
ENDBRANCH  17  21
ENDBRANCH   2  14
TORSDOF 5
