REMARK  8 active torsions:
REMARK  status: ('A' for Active; 'I' for Inactive)
REMARK    1  A    between atoms: C_4  and  N_1 
REMARK    2  A    between atoms: C_3  and  C_2 
REMARK    3  A    between atoms: O_16  and  C_3 
REMARK    4  A    between atoms: C_5  and  C_6 
REMARK    5  A    between atoms: C_14  and  C_5 
REMARK    6  A    between atoms: S_9  and  C_14 
REMARK    7  A    between atoms: C_10  and  S_9 
REMARK    8  A    between atoms: O_17  and  N_12 
ROOT
ATOM      1  C   UNL d   1       0.140   3.654   3.490  0.00  0.00     0.051 C 
ATOM      2  N   UNL d   1      -0.560   4.584   4.084  0.00  0.00    -0.272 N 
ATOM      3  HN  UNL d   1      -0.177   5.512   4.261  1.00  0.00     0.194 HD
ENDROOT
BRANCH   1   4
ATOM      4  C   UNL d   1       1.571   4.082   3.163  0.00  0.00    -0.009 A 
ATOM      5  C   UNL d   1       2.514   3.248   2.549  0.00  0.00     0.049 A 
ATOM      6  C   UNL d   1       3.821   3.729   2.314  0.00  0.00     0.103 A 
ATOM      7  C   UNL d   1       4.197   5.028   2.682  0.00  0.00     0.036 A 
ATOM      8  C   UNL d   1       3.264   5.857   3.289  0.00  0.00     0.003 A 
ATOM      9  C   UNL d   1       1.969   5.388   3.524  0.00  0.00     0.013 A 
BRANCH   6  10
ATOM     10  N   UNL d   1       4.822   2.856   1.683  0.00  0.00    -0.116 N 
ATOM     11  O   UNL d   1       4.487   1.687   1.443  0.00  0.00    -0.532 OA
ATOM     12  O   UNL d   1       5.938   3.333   1.437  0.00  0.00    -0.532 OA
ENDBRANCH   6  10
ENDBRANCH   1   4
BRANCH   1  13
ATOM     13  C   UNL d   1      -0.263   2.208   3.120  0.00  0.00     0.139 C 
BRANCH  13  14
ATOM     14  S   UNL d   1      -2.025   1.756   3.317  0.00  0.00    -0.123 SA
BRANCH  14  15
ATOM     15  C   UNL d   1      -2.082   0.019   2.900  0.00  0.00     0.017 A 
ATOM     16  C   UNL d   1      -1.896  -0.512   1.613  0.00  0.00     0.054 A 
ATOM     17  C   UNL d   1      -2.095  -1.886   1.384  0.00  0.00     0.020 A 
ATOM     18  C   UNL d   1      -2.517  -2.727   2.414  0.00  0.00     0.001 A 
ATOM     19  C   UNL d   1      -2.724  -2.205   3.685  0.00  0.00     0.001 A 
ATOM     20  C   UNL d   1      -2.505  -0.845   3.926  0.00  0.00     0.019 A 
BRANCH  16  21
ATOM     21  C   UNL d   1      -1.521   0.290   0.423  0.00  0.00     0.177 C 
ATOM     22  O   UNL d   1      -0.777  -0.138  -0.444  0.00  0.00    -0.646 OA
BRANCH  21  23
ATOM     23  O   UNL d   1      -2.124   1.493   0.341  0.00  0.00    -0.773 OA
ATOM     24  H   UNL d   1      -2.667   1.725   1.124  0.00  0.00     0.167 HD
ENDBRANCH  21  23
ENDBRANCH  16  21
ENDBRANCH  14  15
ENDBRANCH  13  14
ENDBRANCH   1  13
BRANCH   2  25
ATOM     25  O   UNL d   1      -1.846   4.243   4.459  0.00  0.00    -0.290 OA
ATOM     26  H   UNL d   1      -2.196   5.077   4.822  0.00  0.00     0.244 HD
ENDBRANCH   2  25
TORSDOF 8
