REMARK  4 active torsions:
REMARK  status: ('A' for Active; 'I' for Inactive)
REMARK    1  A    between atoms: C_11  and  C_1 
REMARK    2  A    between atoms: C_4  and  C_2 
REMARK    3  A    between atoms: C_3  and  N_10 
REMARK       I    between atoms: N_10  and  C_4 
REMARK    4  A    between atoms: C_16  and  C_9 
ROOT
ATOM      1  C   UNL d   1       0.272  -2.859  -0.145  0.00  0.00     0.262 C 
ATOM      2  N   UNL d   1      -0.320  -4.101  -0.100  0.00  0.00    -0.303 N 
ATOM      3  O   UNL d   1      -0.326  -1.796  -0.274  0.00  0.00    -0.267 OA
ATOM      4  H   UNL d   1       0.241  -4.939  -0.095  0.00  0.00     0.171 HD
ENDROOT
BRANCH   1   5
ATOM      5  C   UNL d   1       1.726  -2.836  -0.089  0.00  0.00     0.093 A 
ATOM      6  C   UNL d   1       2.723  -3.557   0.655  0.00  0.00     0.086 A 
ATOM      7  N   UNL d   1       3.933  -3.011   0.431  0.00  0.00    -0.259 N 
ATOM      8  O   UNL d   1       3.773  -2.037  -0.512  0.00  0.00    -0.241 OA
ATOM      9  HN  UNL d   1       4.808  -3.276   0.884  1.00  0.00     0.195 HD
ATOM     10  C   UNL d   1       2.466  -1.928  -0.830  0.00  0.00     0.090 A 
ATOM     11  C   UNL d   1       2.157  -0.919  -1.866  0.00  0.00     0.080 C 
BRANCH   6  12
ATOM     12  C   UNL d   1       2.656  -4.685   1.597  0.00  0.00     0.037 A 
ATOM     13  C   UNL d   1       3.562  -5.769   1.475  0.00  0.00     0.048 A 
ATOM     14 CL   UNL d   1       4.663  -5.953   0.142  0.00  0.00    -0.083 Cl
ATOM     15  C   UNL d   1       3.608  -6.797   2.428  0.00  0.00     0.025 A 
ATOM     16  C   UNL d   1       2.727  -6.798   3.499  0.00  0.00     0.003 A 
ATOM     17  C   UNL d   1       1.811  -5.758   3.629  0.00  0.00     0.025 A 
ATOM     18  C   UNL d   1       1.788  -4.697   2.706  0.00  0.00     0.048 A 
ATOM     19 CL   UNL d   1       0.689  -3.412   3.067  0.00  0.00    -0.083 Cl
ENDBRANCH   6  12
ENDBRANCH   1   5
BRANCH   2  20
ATOM     20  C   UNL d   1      -1.675  -4.339  -0.198  0.00  0.00     0.152 A 
ATOM     21  N   UNL d   1      -2.158  -5.553  -0.280  0.00  0.00    -0.335 N 
ATOM     22  C   UNL d   1      -3.555  -5.531  -0.418  0.00  0.00     0.057 A 
ATOM     23  HN  UNL d   1      -1.594  -6.402  -0.249  1.00  0.00     0.168 HD
ATOM     24  C   UNL d   1      -4.103  -4.253  -0.406  0.00  0.00     0.010 A 
ATOM     25  S   UNL d   1      -2.839  -3.104  -0.208  0.00  0.00    -0.057 SA
ATOM     26  C   UNL d   1      -5.497  -3.734  -0.517  0.00  0.00     0.059 C 
BRANCH  22  27
ATOM     27  C   UNL d   1      -4.264  -6.813  -0.547  0.00  0.00    -0.007 A 
ATOM     28  C   UNL d   1      -3.557  -7.991  -0.252  0.00  0.00     0.038 A 
ATOM     29  C   UNL d   1      -4.144  -9.253  -0.379  0.00  0.00     0.040 A 
ATOM     30 CL   UNL d   1      -3.181 -10.637  -0.003  0.00  0.00    -0.084 Cl
ATOM     31  C   UNL d   1      -5.474  -9.383  -0.802  0.00  0.00    -0.040 A 
ATOM     32  C   UNL d   1      -6.187  -8.213  -1.095  0.00  0.00     0.009 A 
ATOM     33  C   UNL d   1      -6.134 -10.721  -0.954  0.00  0.00     0.050 C 
ATOM     34  C   UNL d   1      -5.589  -6.951  -0.974  0.00  0.00     0.014 A 
ENDBRANCH  22  27
ENDBRANCH   2  20
TORSDOF 4
