REMARK  3 active torsions:
REMARK  status: ('A' for Active; 'I' for Inactive)
REMARK    1  A    between atoms: C_14  and  N_7 
REMARK    2  A    between atoms: N_11  and  C_8 
REMARK    3  A    between atoms: C_18  and  N_11 
ROOT
ATOM      1  C   UNL d   1       0.024   0.734  -0.026  0.00  0.00     0.138 A 
ATOM      2  C   UNL d   1      -0.018  -0.624  -0.079  0.00  0.00     0.099 A 
ATOM      3  N   UNL d   1       1.286   1.360   0.075  0.00  0.00    -0.288 N 
ATOM      4  N   UNL d   1       2.434  -0.695  -0.096  0.00  0.00    -0.270 N 
ATOM      5  C   UNL d   1       2.498   0.674  -0.041  0.00  0.00     0.332 C 
ATOM      6  C   UNL d   1       1.259  -1.396  -0.089  0.00  0.00     0.267 C 
ATOM      7  N   UNL d   1      -1.215   1.446   0.003  0.00  0.00    -0.263 N 
ATOM      8  C   UNL d   1      -1.285  -1.369  -0.050  0.00  0.00     0.037 A 
ATOM      9  C   UNL d   1      -2.454   0.777   0.089  0.00  0.00     0.255 A 
ATOM     10  C   UNL d   1      -2.428  -0.684   0.045  0.00  0.00     0.100 A 
ATOM     11  O   UNL d   1       3.585   1.264  -0.062  0.00  0.00    -0.246 OA
ATOM     12  O   UNL d   1       1.246  -2.632  -0.098  0.00  0.00    -0.267 OA
ATOM     13  O   UNL d   1      -3.567   1.300   0.152  0.00  0.00    -0.268 OA
ATOM     14  C   UNL d   1       1.470   2.769   0.403  0.00  0.00     0.163 C 
ATOM     15  C   UNL d   1       3.666  -1.467  -0.077  0.00  0.00     0.164 C 
ENDROOT
BRANCH   8  16
ATOM     16  N   UNL d   1      -1.313  -2.767  -0.120  0.00  0.00    -0.259 NA
ATOM     17  H   UNL d   1      -0.373  -3.162  -0.277  0.00  0.00     0.134 HD
BRANCH  16  18
ATOM     18  C   UNL d   1      -1.959  -3.567   0.861  0.00  0.00     0.013 A 
ATOM     19  C   UNL d   1      -2.418  -4.840   0.498  0.00  0.00     0.027 A 
ATOM     20  C   UNL d   1      -3.059  -5.653   1.435  0.00  0.00     0.044 A 
ATOM     21  C   UNL d   1      -3.207  -5.207   2.743  0.00  0.00     0.116 A 
ATOM     22  C   UNL d   1      -2.703  -3.976   3.139  0.00  0.00     0.044 A 
ATOM     23  F   UNL d   1      -3.841  -5.977   3.637  0.00  0.00    -0.206 F 
ATOM     24  C   UNL d   1      -2.067  -3.163   2.202  0.00  0.00     0.027 A 
ENDBRANCH  16  18
ENDBRANCH   8  16
BRANCH   7  25
ATOM     25  C   UNL d   1      -1.377   2.858  -0.209  0.00  0.00     0.044 A 
ATOM     26  C   UNL d   1      -2.069   3.630   0.740  0.00  0.00     0.030 A 
ATOM     27  C   UNL d   1      -2.321   4.982   0.511  0.00  0.00     0.002 A 
ATOM     28  C   UNL d   1      -1.896   5.573  -0.675  0.00  0.00     0.000 A 
ATOM     29  C   UNL d   1      -1.212   4.815  -1.628  0.00  0.00     0.002 A 
ATOM     30  C   UNL d   1      -0.953   3.460  -1.400  0.00  0.00     0.030 A 
ENDBRANCH   7  25
TORSDOF 3
