REMARK  5 active torsions:
REMARK  status: ('A' for Active; 'I' for Inactive)
REMARK    1  A    between atoms: S_9  and  C_2 
REMARK    2  A    between atoms: C_8  and  C_17 
REMARK       I    between atoms: N_10  and  C_8 
REMARK    3  A    between atoms: C_17  and  S_9 
REMARK    4  A    between atoms: C_18  and  N_10 
REMARK    5  A    between atoms: C_11  and  C_12 
ROOT
ATOM      1  C   UNL d   1       5.606  -0.116  -0.080  0.00  0.00     0.231 C 
ATOM      2  N   UNL d   1       5.860   1.244  -0.145  0.00  0.00    -0.327 N 
ATOM      3  O   UNL d   1       4.504  -0.614   0.161  0.00  0.00    -0.272 OA
ATOM      4  H   UNL d   1       6.777   1.518  -0.475  0.00  0.00     0.169 HD
ENDROOT
BRANCH   1   5
ATOM      5  C   UNL d   1       6.755  -1.047  -0.429  0.00  0.00     0.184 C 
BRANCH   5   6
ATOM      6  S   UNL d   1       8.389  -0.443   0.078  0.00  0.00    -0.094 SA
BRANCH   6   7
ATOM      7  C   UNL d   1       9.320  -1.916  -0.131  0.00  0.00     0.128 A 
ATOM      8  S   UNL d   1      10.952  -2.079   0.374  0.00  0.00    -0.050 SA
ATOM      9  C   UNL d   1      10.871  -3.716  -0.148  0.00  0.00     0.065 A 
ATOM     10  N   UNL d   1       9.718  -4.049  -0.689  0.00  0.00    -0.297 N 
ATOM     11  C   UNL d   1      12.025  -4.637   0.018  0.00  0.00     0.078 C 
ATOM     12  N   UNL d   1       8.820  -3.001  -0.682  0.00  0.00    -0.287 N 
ATOM     13  HN  UNL d   1       9.512  -4.973  -1.069  1.00  0.00     0.187 HD
ATOM     14  HN  UNL d   1       7.874  -3.061  -1.060  1.00  0.00     0.188 HD
ENDBRANCH   6   7
ENDBRANCH   5   6
ENDBRANCH   1   5
BRANCH   2  15
ATOM     15  C   UNL d   1       4.970   2.283   0.223  0.00  0.00     0.034 A 
ATOM     16  C   UNL d   1       3.744   2.056   0.852  0.00  0.00     0.030 A 
ATOM     17  C   UNL d   1       2.925   3.121   1.243  0.00  0.00     0.017 A 
ATOM     18  C   UNL d   1       3.324   4.438   1.019  0.00  0.00     0.009 A 
ATOM     19  C   UNL d   1       4.531   4.683   0.358  0.00  0.00     0.017 A 
ATOM     20  C   UNL d   1       5.353   3.609  -0.030  0.00  0.00     0.030 A 
BRANCH  18  21
ATOM     21  C   UNL d   1       2.434   5.524   1.510  0.00  0.00     0.155 C 
ATOM     22  O   UNL d   1       1.220   5.333   1.573  0.00  0.00    -0.293 OA
ATOM     23  C   UNL d   1       3.039   6.818   1.991  0.00  0.00     0.096 C 
ENDBRANCH  18  21
ENDBRANCH   2  15
TORSDOF 5
