REMARK  2 active torsions:
REMARK  status: ('A' for Active; 'I' for Inactive)
REMARK    1  A    between atoms: C_10  and  C_3 
REMARK    2  A    between atoms: C_7  and  C_4 
ROOT
ATOM      1  N   UNL d   1       1.339  -0.468  -0.584  0.00  0.00    -0.349 N 
ATOM      2  HN  UNL d   1       2.142  -0.871  -1.066  1.00  0.00     0.166 HD
ATOM      3  C   UNL d   1       0.170  -1.063  -0.439  0.00  0.00     0.084 A 
ATOM      4  C   UNL d   1       1.323   0.784   0.014  0.00  0.00     0.050 A 
ATOM      5  S   UNL d   1      -1.034  -0.102   0.338  0.00  0.00    -0.081 SA
ATOM      6  C   UNL d   1       0.104   1.153   0.550  0.00  0.00     0.082 A 
ENDROOT
BRANCH   4   7
ATOM      7  C   UNL d   1       2.500   1.641   0.031  0.00  0.00    -0.006 A 
ATOM      8  C   UNL d   1       2.716   2.564   1.065  0.00  0.00     0.053 A 
ATOM      9  C   UNL d   1       3.828   3.411   1.048  0.00  0.00     0.102 A 
ATOM     10  O   UNL d   1       3.883   4.302   2.091  0.00  0.00    -0.348 OA
ATOM     11  C   UNL d   1       4.775   3.299   0.022  0.00  0.00     0.102 A 
ATOM     12  C   UNL d   1       4.390   5.581   1.708  0.00  0.00     0.178 C 
ATOM     13  C   UNL d   1       5.907   5.610   1.770  0.00  0.00     0.053 C 
ATOM     14  C   UNL d   1       6.522   4.353   1.178  0.00  0.00     0.178 C 
ATOM     15  O   UNL d   1       5.929   4.033  -0.081  0.00  0.00    -0.348 OA
ATOM     16  C   UNL d   1       4.562   2.387  -1.013  0.00  0.00     0.040 A 
ATOM     17  C   UNL d   1       3.436   1.558  -1.006  0.00  0.00     0.017 A 
ENDBRANCH   4   7
BRANCH   3  18
ATOM     18  C   UNL d   1      -0.149  -2.416  -0.931  0.00  0.00    -0.002 A 
ATOM     19  C   UNL d   1      -1.122  -3.224  -0.317  0.00  0.00     0.016 A 
ATOM     20  C   UNL d   1      -1.420  -4.496  -0.816  0.00  0.00     0.024 A 
ATOM     21  C   UNL d   1      -0.741  -4.978  -1.930  0.00  0.00     0.034 A 
ATOM     22  C   UNL d   1       0.241  -4.204  -2.543  0.00  0.00     0.024 A 
ATOM     23 CL   UNL d   1      -1.119  -6.537  -2.549  0.00  0.00    -0.084 Cl
ATOM     24  C   UNL d   1       0.539  -2.931  -2.042  0.00  0.00     0.016 A 
ENDBRANCH   3  18
TORSDOF 2
