REMARK  2 active torsions:
REMARK  status: ('A' for Active; 'I' for Inactive)
REMARK    1  A    between atoms: S_17  and  C_2 
REMARK    2  A    between atoms: C_8  and  C_6 
ROOT
ATOM      1  C   UNL d   1      -1.380  -0.367  -0.018  0.00  0.00     0.135 C 
ATOM      2  C   UNL d   1      -0.487  -1.364  -0.181  0.00  0.00     0.065 C 
ATOM      3  S   UNL d   1       1.196  -1.110  -0.535  0.00  0.00    -0.091 SA
ATOM      4  C   UNL d   1      -0.994   1.064  -0.045  0.00  0.00     0.265 C 
ATOM      5  N   UNL d   1       0.303   1.423  -0.180  0.00  0.00    -0.339 N 
ATOM      6  C   UNL d   1       1.474   0.599  -0.091  0.00  0.00     0.186 C 
ATOM      7  C   UNL d   1      -2.778  -0.616   0.142  0.00  0.00     0.107 C 
ATOM      8  N   UNL d   1      -3.912  -0.840   0.265  0.00  0.00    -0.191 NA
ATOM      9  O   UNL d   1      -1.833   1.960   0.046  0.00  0.00    -0.267 OA
ATOM     10  H   UNL d   1       0.446   2.425  -0.153  0.00  0.00     0.164 HD
ENDROOT
BRANCH   2  11
ATOM     11  S   UNL d   1      -1.004  -3.052  -0.213  0.00  0.00    -0.126 SA
ATOM     12  C   UNL d   1      -0.202  -3.688   1.279  0.00  0.00     0.096 C 
ENDBRANCH   2  11
BRANCH   6  13
ATOM     13  C   UNL d   1       2.239   0.758   1.212  0.00  0.00    -0.022 A 
ATOM     14  C   UNL d   1       3.641   0.587   1.193  0.00  0.00     0.049 A 
ATOM     15  C   UNL d   1       4.347   0.749   2.366  0.00  0.00     0.105 A 
ATOM     16  O   UNL d   1       5.694   0.631   2.502  0.00  0.00    -0.323 OA
ATOM     17  C   UNL d   1       3.723   1.065   3.547  0.00  0.00     0.105 A 
ATOM     18  C   UNL d   1       5.851   0.934   3.905  0.00  0.00     0.352 A 
ATOM     19  O   UNL d   1       4.600   1.186   4.579  0.00  0.00    -0.323 OA
ATOM     20  C   UNL d   1       2.358   1.230   3.619  0.00  0.00     0.040 A 
ATOM     21  C   UNL d   1       1.611   1.072   2.442  0.00  0.00     0.013 A 
ENDBRANCH   6  13
TORSDOF 2
