REMARK  6 active torsions:
REMARK  status: ('A' for Active; 'I' for Inactive)
REMARK    1  A    between atoms: C_9  and  C_3 
REMARK    2  A    between atoms: O_13  and  C_4 
REMARK    3  A    between atoms: C_15  and  C_7 
REMARK    4  A    between atoms: C_16  and  C_8 
REMARK    5  A    between atoms: C_12  and  C_15 
REMARK    6  A    between atoms: C_19  and  C_16 
ROOT
ATOM      1  N   UNL d   1      -0.274  -1.223  -0.046  0.00  0.00    -0.321 N 
ATOM      2  HN  UNL d   1      -0.759  -2.118  -0.106  1.00  0.00     0.169 HD
ATOM      3  C   UNL d   1       1.065  -1.139   0.023  0.00  0.00     0.134 A 
ATOM      4  C   UNL d   1      -0.927  -0.062  -0.032  0.00  0.00     0.150 A 
ATOM      5  N   UNL d   1       1.741   0.032   0.064  0.00  0.00    -0.343 N 
ATOM      6  HN  UNL d   1       2.761   0.047   0.099  1.00  0.00     0.167 HD
ATOM      7  C   UNL d   1      -0.361   1.195   0.042  0.00  0.00     0.019 A 
ATOM      8  C   UNL d   1       1.027   1.187   0.057  0.00  0.00     0.021 A 
ENDROOT
BRANCH   3   9
ATOM      9  C   UNL d   1       1.842  -2.404   0.083  0.00  0.00     0.076 A 
ATOM     10  N   UNL d   1       1.139  -3.574   0.010  0.00  0.00    -0.363 N 
ATOM     11  C   UNL d   1       1.821  -4.736   0.088  0.00  0.00     0.088 A 
ATOM     12  HN  UNL d   1       0.125  -3.569  -0.101  1.00  0.00     0.165 HD
ATOM     13  C   UNL d   1       3.194  -4.815   0.239  0.00  0.00     0.017 A 
ATOM     14  C   UNL d   1       3.911  -3.629   0.307  0.00  0.00     0.004 A 
ATOM     15  C   UNL d   1       3.232  -2.413   0.227  0.00  0.00     0.033 A 
ENDBRANCH   3   9
BRANCH   4  16
ATOM     16  O   UNL d   1      -2.272  -0.232  -0.101  0.00  0.00    -0.346 OA
ATOM     17  H   UNL d   1      -2.309  -1.205  -0.174  0.00  0.00     0.219 HD
ENDBRANCH   4  16
BRANCH   8  18
ATOM     18  C   UNL d   1       1.865   2.444   0.025  0.00  0.00     0.057 C 
BRANCH  18  19
ATOM     19  C   UNL d   1       2.186   3.069   1.386  0.00  0.00     0.002 C 
ATOM     20  C   UNL d   1       3.009   2.179   2.307  0.00  0.00     0.005 C 
ENDBRANCH  18  19
ENDBRANCH   8  18
BRANCH   7  21
ATOM     21  C   UNL d   1      -1.218   2.426   0.094  0.00  0.00     0.071 C 
BRANCH  21  22
ATOM     22  C   UNL d   1      -1.590   3.083  -1.208  0.00  0.00    -0.032 C 
ATOM     23  C   UNL d   1      -1.276   2.701  -2.455  0.00  0.00     0.007 C 
ENDBRANCH  21  22
ENDBRANCH   7  21
TORSDOF 6
