REMARK  6 active torsions:
REMARK  status: ('A' for Active; 'I' for Inactive)
REMARK    1  A    between atoms: C_10  and  N_1 
REMARK    2  A    between atoms: C_2  and  C_10 
REMARK    3  A    between atoms: C_9  and  C_2 
REMARK    4  A    between atoms: C_11  and  C_3 
REMARK    5  A    between atoms: C_4  and  C_9 
REMARK    6  A    between atoms: O_12  and  C_9 
ROOT
ATOM      1  C   UNL d   1       7.229   2.130   1.351  0.00  0.00    -0.026 A 
ATOM      2  C   UNL d   1       5.696  -0.088   0.400  0.00  0.00    -0.030 A 
ATOM      3  C   UNL d   1       7.494   1.540   0.102  0.00  0.00     0.013 A 
ATOM      4  C   UNL d   1       6.178   1.577   2.101  0.00  0.00     0.013 A 
ATOM      5  C   UNL d   1       5.441   0.481   1.651  0.00  0.00     0.010 A 
ATOM      6  C   UNL d   1       6.741   0.452  -0.364  0.00  0.00     0.010 A 
ENDROOT
BRANCH   2   7
ATOM      7  C   UNL d   1       4.904  -1.268  -0.124  0.00  0.00     0.152 C 
BRANCH   7   8
ATOM      8  C   UNL d   1       3.428  -1.350   0.306  0.00  0.00     0.067 C 
BRANCH   8   9
ATOM      9  C   UNL d   1       2.609  -0.159  -0.207  0.00  0.00     0.275 C 
BRANCH   9  10
ATOM     10  N   UNL d   1       1.218  -0.120   0.284  0.00  0.00     0.088 N 
ATOM     11  C   UNL d   1       0.433  -1.290  -0.140  0.00  0.00     0.272 C 
ATOM     12  C   UNL d   1      -1.000  -1.223   0.393  0.00  0.00     0.030 C 
ATOM     13  C   UNL d   1      -1.695   0.063  -0.032  0.00  0.00     0.003 C 
ATOM     14  C   UNL d   1      -0.846   1.271   0.338  0.00  0.00     0.030 C 
ATOM     15  C   UNL d   1       0.582   1.126  -0.185  0.00  0.00     0.272 C 
ENDBRANCH   9  10
ENDBRANCH   8   9
ENDBRANCH   7   8
BRANCH   7  16
ATOM     16  O   UNL d   1       5.552  -2.466   0.308  0.00  0.00    -0.391 OA
ATOM     17  H   UNL d   1       5.695  -2.382   1.267  0.00  0.00     0.210 HD
ENDBRANCH   7  16
ENDBRANCH   2   7
BRANCH   1  18
ATOM     18  C   UNL d   1       7.993   3.290   1.870  0.00  0.00    -0.026 A 
ATOM     19  C   UNL d   1       8.486   4.304   1.029  0.00  0.00     0.012 A 
ATOM     20  C   UNL d   1       9.131   5.433   1.547  0.00  0.00     0.001 A 
ATOM     21  C   UNL d   1       9.299   5.578   2.922  0.00  0.00     0.000 A 
ATOM     22  C   UNL d   1       8.847   4.577   3.775  0.00  0.00     0.001 A 
ATOM     23  C   UNL d   1       8.217   3.445   3.253  0.00  0.00     0.012 A 
ENDBRANCH   1  18
TORSDOF 6
