REMARK  3 active torsions:
REMARK  status: ('A' for Active; 'I' for Inactive)
REMARK    1  A    between atoms: N_3  and  C_1 
REMARK    2  A    between atoms: C_2  and  C_10 
REMARK       I    between atoms: C_4  and  N_3 
REMARK    3  A    between atoms: C_10  and  C_4 
ROOT
ATOM      1  N   UNL d   1       5.560   2.486   0.424  0.00  0.00    -0.322 N 
ATOM      2  C   UNL d   1       4.333   2.704   1.008  0.00  0.00     0.223 C 
ATOM      3  O   UNL d   1       4.116   3.009   2.174  0.00  0.00    -0.273 OA
ATOM      4  H   UNL d   1       5.564   2.229  -0.558  0.00  0.00     0.169 HD
ENDROOT
BRANCH   2   5
ATOM      5  C   UNL d   1       3.167   2.558   0.033  0.00  0.00     0.112 C 
BRANCH   5   6
ATOM      6  C   UNL d   1       2.447   1.190   0.026  0.00  0.00    -0.031 C 
ATOM      7  C   UNL d   1       2.244   0.632   1.458  0.00  0.00     0.014 C 
ATOM      8  C   UNL d   1       1.457  -0.688   1.429  0.00  0.00    -0.013 C 
ATOM      9  C   UNL d   1       0.083  -0.437   0.791  0.00  0.00     0.009 C 
ATOM     10  C   UNL d   1       2.234  -1.720   0.596  0.00  0.00     0.009 C 
ATOM     11  C   UNL d   1       0.258   0.065  -0.650  0.00  0.00    -0.013 C 
ATOM     12  C   UNL d   1       1.051   1.381  -0.634  0.00  0.00     0.014 C 
ATOM     13  C   UNL d   1       1.036  -0.978  -1.465  0.00  0.00     0.009 C 
ATOM     14  C   UNL d   1       2.422  -1.203  -0.839  0.00  0.00    -0.013 C 
ATOM     15  C   UNL d   1       3.208   0.126  -0.807  0.00  0.00     0.014 C 
ENDBRANCH   5   6
ENDBRANCH   2   5
BRANCH   1  16
ATOM     16  C   UNL d   1       6.855   2.644   0.987  0.00  0.00     0.112 A 
ATOM     17  C   UNL d   1       7.174   2.997   2.304  0.00  0.00     0.146 A 
ATOM     18  F   UNL d   1       6.244   3.211   3.239  0.00  0.00    -0.204 F 
ATOM     19  C   UNL d   1       8.505   3.140   2.713  0.00  0.00     0.045 A 
ATOM     20  C   UNL d   1       9.552   2.934   1.817  0.00  0.00     0.006 A 
ATOM     21  C   UNL d   1       9.261   2.579   0.505  0.00  0.00     0.045 A 
ATOM     22  C   UNL d   1       7.930   2.438   0.110  0.00  0.00     0.146 A 
ATOM     23  F   UNL d   1       7.677   2.103  -1.168  0.00  0.00    -0.204 F 
ENDBRANCH   1  16
TORSDOF 3
