REMARK  6 active torsions:
REMARK  status: ('A' for Active; 'I' for Inactive)
REMARK    1  A    between atoms: N_2  and  C_3 
REMARK    2  A    between atoms: C_21  and  N_5 
REMARK    3  A    between atoms: C_14  and  O_23 
REMARK    4  A    between atoms: C_22  and  C_21 
REMARK    5  A    between atoms: C_26  and  C_22 
REMARK    6  A    between atoms: O_23  and  C_26 
ROOT
ATOM      1  N   UNL d   1       1.349  -2.738   0.053  0.00  0.00    -0.377 N 
ATOM      2  N   UNL d   1       1.825  -5.626   0.381  0.00  0.00     0.091 N 
ATOM      3  C   UNL d   1       2.035  -3.231   1.252  0.00  0.00     0.153 C 
ATOM      4  C   UNL d   1       0.396  -3.696  -0.534  0.00  0.00     0.153 C 
ATOM      5  C   UNL d   1       2.724  -4.580   0.935  0.00  0.00     0.292 C 
ATOM      6  C   UNL d   1       1.110  -5.048  -0.786  0.00  0.00     0.292 C 
ENDROOT
BRANCH   2   7
ATOM      7  C   UNL d   1       0.920  -6.148   1.416  0.00  0.00     0.274 C 
BRANCH   7   8
ATOM      8  C   UNL d   1       0.127  -7.382   0.976  0.00  0.00     0.057 C 
BRANCH   8   9
ATOM      9  C   UNL d   1       1.029  -8.481   0.424  0.00  0.00     0.177 C 
BRANCH   9  10
ATOM     10  O   UNL d   1       0.215  -9.610   0.098  0.00  0.00    -0.351 OA
BRANCH  10  11
ATOM     11  C   UNL d   1       0.884 -10.707  -0.373  0.00  0.00     0.068 A 
ATOM     12  C   UNL d   1       0.177 -11.909  -0.288  0.00  0.00     0.038 A 
ATOM     13  C   UNL d   1       0.754 -13.103  -0.730  0.00  0.00     0.026 A 
ATOM     14  C   UNL d   1       2.036 -13.087  -1.270  0.00  0.00     0.034 A 
ATOM     15  C   UNL d   1       2.740 -11.892  -1.382  0.00  0.00     0.026 A 
ATOM     16 CL   UNL d   1       2.756 -14.555  -1.808  0.00  0.00    -0.084 Cl
ATOM     17  C   UNL d   1       2.163 -10.700  -0.933  0.00  0.00     0.038 A 
ENDBRANCH  10  11
ENDBRANCH   9  10
ENDBRANCH   8   9
ENDBRANCH   7   8
ENDBRANCH   2   7
BRANCH   1  18
ATOM     18  C   UNL d   1       1.019  -1.378  -0.045  0.00  0.00     0.043 A 
ATOM     19  C   UNL d   1       0.818  -0.469   1.037  0.00  0.00     0.018 A 
ATOM     20  C   UNL d   1       0.625   0.892   0.767  0.00  0.00     0.044 A 
ATOM     21  C   UNL d   1       0.733  -0.594   2.461  0.00  0.00     0.033 A 
ATOM     22  N   UNL d   1       0.494   1.546   1.972  0.00  0.00    -0.365 N 
ATOM     23  C   UNL d   1       0.596   1.423  -0.525  0.00  0.00     0.030 A 
ATOM     24  C   UNL d   1       0.544   0.655   3.005  0.00  0.00     0.089 A 
ATOM     25  H   UNL d   1       0.365   2.544   2.068  0.00  0.00     0.165 HD
ATOM     26  C   UNL d   1       0.755   0.537  -1.584  0.00  0.00     0.005 A 
ATOM     27  C   UNL d   1       0.960  -0.820  -1.347  0.00  0.00     0.030 A 
ENDBRANCH   1  18
TORSDOF 6
