REMARK  6 active torsions:
REMARK  status: ('A' for Active; 'I' for Inactive)
REMARK    1  A    between atoms: C_9  and  C_2 
REMARK    2  A    between atoms: S_8  and  C_5 
REMARK    3  A    between atoms: C_14  and  S_8 
REMARK    4  A    between atoms: C_10  and  C_14 
REMARK    5  A    between atoms: C_13  and  C_10 
REMARK    6  A    between atoms: C_11  and  C_12 
ROOT
ATOM      1  N   UNL d   1       0.821  -0.012   0.115  0.00  0.00    -0.315 N 
ATOM      2  C   UNL d   1      -0.037   1.051  -0.093  0.00  0.00     0.134 A 
ATOM      3  N   UNL d   1      -1.273   0.571  -0.111  0.00  0.00    -0.283 N 
ATOM      4  HN  UNL d   1      -2.121   1.126  -0.229  1.00  0.00     0.188 HD
ATOM      5  C   UNL d   1       0.028  -1.128   0.189  0.00  0.00     0.163 A 
ATOM      6  N   UNL d   1      -1.230  -0.792   0.052  0.00  0.00    -0.278 N 
ATOM      7  HN  UNL d   1      -2.030  -1.426   0.065  1.00  0.00     0.189 HD
ATOM      8  C   UNL d   1       2.252   0.015   0.285  0.00  0.00     0.160 C 
ENDROOT
BRANCH   5   9
ATOM      9  S   UNL d   1       0.651  -2.717   0.444  0.00  0.00    -0.085 SA
BRANCH   9  10
ATOM     10  C   UNL d   1      -0.867  -3.719   0.442  0.00  0.00     0.166 C 
BRANCH  10  11
ATOM     11  C   UNL d   1      -0.555  -5.176   0.761  0.00  0.00     0.169 C 
ATOM     12  O   UNL d   1       0.584  -5.605   0.956  0.00  0.00    -0.291 OA
BRANCH  11  13
ATOM     13  C   UNL d   1      -1.687  -6.153   0.847  0.00  0.00     0.011 A 
ATOM     14  C   UNL d   1      -3.021  -5.795   0.611  0.00  0.00     0.017 A 
ATOM     15  C   UNL d   1      -4.034  -6.758   0.711  0.00  0.00     0.025 A 
ATOM     16  C   UNL d   1      -3.720  -8.074   1.047  0.00  0.00     0.034 A 
ATOM     17  C   UNL d   1      -2.399  -8.444   1.280  0.00  0.00     0.025 A 
ATOM     18 CL   UNL d   1      -4.971  -9.248   1.176  0.00  0.00    -0.084 Cl
ATOM     19  C   UNL d   1      -1.388  -7.485   1.179  0.00  0.00     0.017 A 
ENDBRANCH  11  13
ENDBRANCH  10  11
ENDBRANCH   9  10
ENDBRANCH   5   9
BRANCH   2  20
ATOM     20  C   UNL d   1       0.306   2.477  -0.183  0.00  0.00     0.009 A 
ATOM     21  C   UNL d   1       1.456   2.951  -0.820  0.00  0.00     0.016 A 
ATOM     22  C   UNL d   1       1.780   4.316  -0.799  0.00  0.00     0.009 A 
ATOM     23  C   UNL d   1       0.946   5.265  -0.182  0.00  0.00    -0.051 A 
ATOM     24  C   UNL d   1      -0.242   4.787   0.391  0.00  0.00     0.009 A 
ATOM     25  C   UNL d   1      -0.554   3.420   0.390  0.00  0.00     0.016 A 
BRANCH  23  26
ATOM     26  C   UNL d   1       1.350   6.750  -0.145  0.00  0.00    -0.024 C 
ATOM     27  C   UNL d   1       0.290   7.667   0.509  0.00  0.00     0.019 C 
ATOM     28  C   UNL d   1       2.654   6.909   0.667  0.00  0.00     0.019 C 
ATOM     29  C   UNL d   1       1.583   7.276  -1.578  0.00  0.00     0.019 C 
ENDBRANCH  23  26
ENDBRANCH   2  20
TORSDOF 6
