REMARK  4 active torsions:
REMARK  status: ('A' for Active; 'I' for Inactive)
REMARK    1  A    between atoms: S_2  and  C_1 
REMARK    2  A    between atoms: N_8  and  S_2 
REMARK    3  A    between atoms: C_7  and  C_3 
REMARK    4  A    between atoms: O_12  and  C_7 
ROOT
ATOM      1  C   UNL d   1       0.687   1.358   0.005  0.00  0.00     0.127 A 
ATOM      2  C   UNL d   1      -0.747   1.363  -0.003  0.00  0.00     0.094 A 
ATOM      3  C   UNL d   1       1.084   0.034   0.009  0.00  0.00     0.073 A 
ATOM      4  C   UNL d   1      -1.114   0.025  -0.019  0.00  0.00     0.067 A 
ATOM      5  O   UNL d   1      -0.013  -0.771  -0.009  0.00  0.00    -0.318 OA
ATOM      6  C   UNL d   1       2.372  -0.695   0.035  0.00  0.00     0.078 C 
ATOM      7  C   UNL d   1      -2.401  -0.706   0.007  0.00  0.00     0.078 C 
ENDROOT
BRANCH   1   8
ATOM      8  S   UNL d   1       1.731   2.734   0.009  0.00  0.00     0.263 S 
ATOM      9  O   UNL d   1       2.961   2.250  -0.581  0.00  0.00    -0.200 OA
ATOM     10  O   UNL d   1       0.973   3.779  -0.643  0.00  0.00    -0.200 OA
BRANCH   8  11
ATOM     11  N   UNL d   1       2.061   3.167   1.620  0.00  0.00    -0.315 N 
ATOM     12  C   UNL d   1       0.977   3.833   2.361  0.00  0.00     0.162 C 
ATOM     13  C   UNL d   1       2.780   2.165   2.426  0.00  0.00     0.162 C 
ENDBRANCH   8  11
ENDBRANCH   1   8
BRANCH   2  14
ATOM     14  C   UNL d   1      -1.665   2.487   0.052  0.00  0.00     0.297 C 
ATOM     15  O   UNL d   1      -1.472   3.479   0.741  0.00  0.00    -0.259 OA
BRANCH  14  16
ATOM     16  O   UNL d   1      -2.798   2.274  -0.676  0.00  0.00    -0.322 OA
ATOM     17  C   UNL d   1      -3.763   3.322  -0.574  0.00  0.00     0.213 C 
ENDBRANCH  14  16
ENDBRANCH   2  14
TORSDOF 4
