REMARK  7 active torsions:
REMARK  status: ('A' for Active; 'I' for Inactive)
REMARK    1  A    between atoms: N_6  and  C_5 
REMARK    2  A    between atoms: C_10  and  N_6 
REMARK    3  A    between atoms: O_7  and  C_12 
REMARK    4  A    between atoms: C_9  and  O_7 
REMARK    5  A    between atoms: C_8  and  C_10 
REMARK    6  A    between atoms: C_12  and  C_8 
REMARK    7  A    between atoms: O_18  and  C_8 
ROOT
ATOM      1  C   UNL d   1       6.032   1.115   0.411  0.00  0.00     0.170 C 
ENDROOT
BRANCH   1   2
ATOM      2  C   UNL d   1       4.604   1.137  -0.177  0.00  0.00     0.303 C 
BRANCH   2   3
ATOM      3  N   UNL d   1       3.749   0.051   0.311  0.00  0.00     0.091 N 
ATOM      4  H   UNL d   1       4.135  -0.856   0.058  0.00  0.00     0.316 HD
BRANCH   3   5
ATOM      5  C   UNL d   1       2.382   0.128  -0.218  0.00  0.00     0.229 C 
ATOM      6  C   UNL d   1       1.621   1.429   0.127  0.00  0.00     0.075 C 
ATOM      7  C   UNL d   1       0.201   0.959   0.103  0.00  0.00    -0.050 A 
ATOM      8  C   UNL d   1       0.132  -0.433   0.223  0.00  0.00    -0.050 A 
ATOM      9  C   UNL d   1      -0.943   1.732   0.040  0.00  0.00     0.007 A 
ATOM     10  C   UNL d   1       1.502  -1.027   0.328  0.00  0.00     0.075 C 
ATOM     11  C   UNL d   1      -1.088  -1.082   0.290  0.00  0.00     0.007 A 
ATOM     12  C   UNL d   1      -2.250  -0.312   0.218  0.00  0.00     0.001 A 
ATOM     13  C   UNL d   1      -2.179   1.086   0.092  0.00  0.00     0.001 A 
ENDBRANCH   3   5
ENDBRANCH   2   3
ENDBRANCH   1   2
BRANCH   1  14
ATOM     14  C   UNL d   1       6.768  -0.189   0.068  0.00  0.00     0.209 C 
BRANCH  14  15
ATOM     15  O   UNL d   1       8.081  -0.175   0.633  0.00  0.00    -0.349 OA
BRANCH  15  16
ATOM     16  C   UNL d   1       8.848  -1.273   0.350  0.00  0.00     0.069 A 
ATOM     17  C   UNL d   1      10.228  -1.054   0.368  0.00  0.00     0.040 A 
ATOM     18  C   UNL d   1      11.112  -2.099   0.096  0.00  0.00     0.045 A 
ATOM     19  C   UNL d   1      10.610  -3.365  -0.176  0.00  0.00     0.116 A 
ATOM     20  C   UNL d   1       9.240  -3.604  -0.175  0.00  0.00     0.045 A 
ATOM     21  F   UNL d   1      11.453  -4.370  -0.435  0.00  0.00    -0.206 F 
ATOM     22  C   UNL d   1       8.356  -2.558   0.089  0.00  0.00     0.040 A 
ENDBRANCH  15  16
ENDBRANCH  14  15
ENDBRANCH   1  14
BRANCH   1  23
ATOM     23  O   UNL d   1       6.742   2.257  -0.093  0.00  0.00    -0.392 OA
ATOM     24  H   UNL d   1       6.888   2.132  -1.045  0.00  0.00     0.210 HD
ENDBRANCH   1  23
TORSDOF 7
