REMARK  3 active torsions:
REMARK  status: ('A' for Active; 'I' for Inactive)
REMARK    1  A    between atoms: C_12  and  C_3 
REMARK    2  A    between atoms: N_16  and  C_12 
REMARK    3  A    between atoms: O_18  and  N_14 
ROOT
ATOM      1  N   UNL d   1       7.162  -0.621   0.001  0.00  0.00    -0.241 N 
ATOM      2  C   UNL d   1       7.048   0.761   0.001  0.00  0.00     0.143 A 
ATOM      3  C   UNL d   1       4.843  -0.756  -0.021  0.00  0.00     0.112 A 
ATOM      4  C   UNL d   1       6.018  -1.423  -0.015  0.00  0.00     0.064 A 
ATOM      5  N   UNL d   1       4.784   0.635  -0.034  0.00  0.00    -0.294 N 
ATOM      6  HN  UNL d   1       3.872   1.090  -0.060  1.00  0.00     0.187 HD
ATOM      7  N   UNL d   1       5.822   1.349  -0.014  0.00  0.00    -0.283 N 
ATOM      8  HN  UNL d   1       5.743   2.366  -0.009  1.00  0.00     0.188 HD
ATOM      9  N   UNL d   1       8.467  -1.006   0.004  0.00  0.00    -0.297 N 
ATOM     10  HN  UNL d   1       8.833  -1.959   0.006  1.00  0.00     0.187 HD
ATOM     11  C   UNL d   1       8.328   1.264   0.008  0.00  0.00     0.077 A 
ATOM     12  C   UNL d   1       9.166   0.132   0.004  0.00  0.00     0.026 A 
ATOM     13  C   UNL d   1       6.258  -2.904  -0.054  0.00  0.00     0.073 C 
ATOM     14  C   UNL d   1      10.649   0.101  -0.004  0.00  0.00     0.070 C 
ENDROOT
BRANCH   3  15
ATOM     15  C   UNL d   1       3.485  -1.431  -0.067  0.00  0.00     0.128 C 
ATOM     16  N   UNL d   1       3.306  -2.593   0.505  0.00  0.00    -0.256 N 
ATOM     17  HN  UNL d   1       4.039  -3.116   0.985  1.00  0.00     0.195 HD
BRANCH  16  18
ATOM     18  O   UNL d   1       1.976  -3.029   0.375  0.00  0.00    -0.288 OA
ATOM     19  H   UNL d   1       2.025  -3.938   0.725  0.00  0.00     0.244 HD
ENDBRANCH  16  18
BRANCH  15  20
ATOM     20  N   UNL d   1       2.427  -0.779  -0.668  0.00  0.00    -0.285 NA
ATOM     21  H   UNL d   1       2.452   0.232  -0.602  0.00  0.00     0.125 HD
ATOM     22  H   UNL d   1       1.545  -1.190  -0.374  0.00  0.00     0.125 HD
ENDBRANCH  15  20
ENDBRANCH   3  15
TORSDOF 3
