REMARK  1 active torsions:
REMARK  status: ('A' for Active; 'I' for Inactive)
REMARK    1  A    between atoms: C_4  and  N_1 
ROOT
ATOM      1  N   UNL d   1       0.759   1.123  -0.497  0.00  0.00    -0.233 N 
ATOM      2  C   UNL d   1       1.407  -0.120  -0.479  0.00  0.00     0.256 C 
ATOM      3  C   UNL d   1      -0.580   1.307  -0.135  0.00  0.00     0.256 C 
ATOM      4  O   UNL d   1      -0.591  -1.033   0.644  0.00  0.00    -0.373 OA
ATOM      5  O   UNL d   1      -1.173   2.387  -0.095  0.00  0.00    -0.270 OA
ATOM      6  O   UNL d   1       2.617  -0.309  -0.618  0.00  0.00    -0.270 OA
ATOM      7  C   UNL d   1       0.499  -1.315  -0.214  0.00  0.00     0.272 C 
ATOM      8  C   UNL d   1      -1.362   0.021   0.109  0.00  0.00     0.272 C 
ENDROOT
BRANCH   1   9
ATOM      9  C   UNL d   1       1.507   2.241  -0.965  0.00  0.00     0.117 A 
ATOM     10  N   UNL d   1       2.267   2.063  -2.072  0.00  0.00    -0.352 N 
ATOM     11  C   UNL d   1       2.941   3.125  -2.564  0.00  0.00     0.089 A 
ATOM     12  HN  UNL d   1       2.329   1.150  -2.523  1.00  0.00     0.166 HD
ATOM     13  C   UNL d   1       2.910   4.383  -1.998  0.00  0.00     0.017 A 
ATOM     14  C   UNL d   1       2.141   4.564  -0.856  0.00  0.00     0.005 A 
ATOM     15  C   UNL d   1       1.423   3.485  -0.339  0.00  0.00     0.049 A 
ENDBRANCH   1   9
TORSDOF 1
