REMARK  5 active torsions:
REMARK  status: ('A' for Active; 'I' for Inactive)
REMARK    1  A    between atoms: C_4  and  C_1 
REMARK    2  A    between atoms: S_2  and  N_5 
REMARK    3  A    between atoms: C_9  and  S_2 
REMARK    4  A    between atoms: N_13  and  C_3 
REMARK       I    between atoms: N_6  and  C_4 
REMARK    5  A    between atoms: N_5  and  N_6 
ROOT
ATOM      1  N   UNL d   1      -2.191   4.418  -0.078  0.00  0.00    -0.220 N 
ATOM      2  H   UNL d   1      -1.569   5.135  -0.469  0.00  0.00     0.200 HD
ENDROOT
BRANCH   1   3
ATOM      3  S   UNL d   1      -3.530   4.878   0.840  0.00  0.00     0.276 S 
ATOM      4  O   UNL d   1      -4.641   4.034   0.455  0.00  0.00    -0.199 OA
ATOM      5  O   UNL d   1      -3.096   4.957   2.220  0.00  0.00    -0.199 OA
BRANCH   3   6
ATOM      6  C   UNL d   1      -3.849   6.531   0.274  0.00  0.00     0.081 A 
ATOM      7  C   UNL d   1      -4.798   6.748  -0.732  0.00  0.00     0.027 A 
ATOM      8  C   UNL d   1      -5.101   8.055  -1.125  0.00  0.00     0.025 A 
ATOM      9  C   UNL d   1      -4.464   9.133  -0.508  0.00  0.00     0.034 A 
ATOM     10  C   UNL d   1      -3.527   8.916   0.504  0.00  0.00     0.025 A 
ATOM     11 CL   UNL d   1      -4.845  10.740  -0.990  0.00  0.00    -0.084 Cl
ATOM     12  C   UNL d   1      -3.221   7.612   0.903  0.00  0.00     0.027 A 
ENDBRANCH   3   6
ENDBRANCH   1   3
BRANCH   1  13
ATOM     13  N   UNL d   1      -1.642   3.081   0.106  0.00  0.00    -0.256 N 
ATOM     14  C   UNL d   1      -0.328   2.816  -0.278  0.00  0.00     0.279 C 
ATOM     15  O   UNL d   1       0.370   3.731  -0.720  0.00  0.00    -0.265 OA
ATOM     16  H   UNL d   1      -2.218   2.379   0.566  0.00  0.00     0.191 HD
BRANCH  14  17
ATOM     17  C   UNL d   1       0.105   1.435  -0.097  0.00  0.00     0.100 A 
ATOM     18  C   UNL d   1       1.357   0.893   0.200  0.00  0.00     0.052 A 
ATOM     19  C   UNL d   1       1.315  -0.543   0.145  0.00  0.00     0.038 A 
ATOM     20  C   UNL d   1       0.077  -1.046  -0.171  0.00  0.00     0.053 A 
ATOM     21  S   UNL d   1      -1.065   0.190  -0.382  0.00  0.00    -0.094 SA
BRANCH  18  22
ATOM     22  N   UNL d   1       2.506   1.559   0.547  0.00  0.00    -0.388 N 
ATOM     23  C   UNL d   1       3.834   1.036   0.234  0.00  0.00     0.149 C 
ATOM     24  C   UNL d   1       2.506   2.878   1.164  0.00  0.00     0.149 C 
ENDBRANCH  18  22
ENDBRANCH  14  17
ENDBRANCH   1  13
TORSDOF 5
