REMARK  3 active torsions:
REMARK  status: ('A' for Active; 'I' for Inactive)
REMARK    1  A    between atoms: N_7  and  N_1 
REMARK       I    between atoms: C_8  and  N_7 
REMARK    2  A    between atoms: O_13  and  C_8 
REMARK    3  A    between atoms: C_20  and  O_13 
ROOT
ATOM      1  N   UNL d   1       2.292  -0.285   0.043  0.00  0.00    -0.178 N 
ATOM      2  C   UNL d   1       1.787   1.015   0.073  0.00  0.00     0.280 C 
ATOM      3  C   UNL d   1       1.550  -1.425  -0.270  0.00  0.00     0.280 C 
ATOM      4  C   UNL d   1       0.308   1.140   0.032  0.00  0.00     0.046 A 
ATOM      5  C   UNL d   1       0.094  -1.301  -0.070  0.00  0.00     0.046 A 
ATOM      6  C   UNL d   1      -0.477  -0.024   0.014  0.00  0.00     0.006 A 
ATOM      7  O   UNL d   1       2.003  -2.459  -0.753  0.00  0.00    -0.265 OA
ATOM      8  O   UNL d   1       2.503   2.021   0.087  0.00  0.00    -0.265 OA
ATOM      9  C   UNL d   1      -1.886   0.086   0.055  0.00  0.00    -0.024 A 
ATOM     10  C   UNL d   1      -0.292   2.404   0.025  0.00  0.00     0.018 A 
ATOM     11  C   UNL d   1      -0.693  -2.456  -0.031  0.00  0.00     0.018 A 
ATOM     12  C   UNL d   1      -2.075  -2.344   0.068  0.00  0.00     0.002 A 
ATOM     13  C   UNL d   1      -1.682   2.512   0.014  0.00  0.00     0.002 A 
ATOM     14  C   UNL d   1      -2.473   1.361   0.044  0.00  0.00     0.012 A 
ATOM     15  C   UNL d   1      -2.669  -1.081   0.093  0.00  0.00     0.012 A 
ENDROOT
BRANCH   1  16
ATOM     16  N   UNL d   1       3.696  -0.402  -0.035  0.00  0.00    -0.233 N 
ATOM     17  C   UNL d   1       4.345  -1.256   0.817  0.00  0.00     0.380 C 
ATOM     18  O   UNL d   1       3.814  -2.041   1.593  0.00  0.00    -0.237 OA
ATOM     19  H   UNL d   1       4.201   0.429  -0.325  0.00  0.00     0.193 HD
BRANCH  17  20
ATOM     20  O   UNL d   1       5.682  -1.045   0.720  0.00  0.00    -0.303 OA
BRANCH  20  21
ATOM     21  C   UNL d   1       6.489  -1.738   1.683  0.00  0.00     0.176 C 
ATOM     22  C   UNL d   1       6.602  -0.874   2.924  0.00  0.00     0.034 C 
ENDBRANCH  20  21
ENDBRANCH  17  20
ENDBRANCH   1  16
TORSDOF 3
