REMARK  4 active torsions:
REMARK  status: ('A' for Active; 'I' for Inactive)
REMARK    1  A    between atoms: C_2  and  C_1 
REMARK    2  A    between atoms: C_5  and  C_2 
REMARK    3  A    between atoms: C_4  and  C_3 
REMARK    4  A    between atoms: O_11  and  C_4 
ROOT
ATOM      1  C   UNL d   1       1.407  -0.263   0.132  0.00  0.00     0.031 A 
ATOM      2  C   UNL d   1       0.557  -1.374   0.036  0.00  0.00     0.053 A 
ATOM      3  C   UNL d   1       0.839   1.028   0.089  0.00  0.00     0.016 A 
ATOM      4  C   UNL d   1      -0.832  -1.183  -0.092  0.00  0.00     0.018 A 
ATOM      5  C   UNL d   1      -0.537   1.206  -0.062  0.00  0.00     0.001 A 
ATOM      6  C   UNL d   1      -1.374   0.100  -0.146  0.00  0.00     0.001 A 
ENDROOT
BRANCH   1   7
ATOM      7  C   UNL d   1       2.861  -0.390   0.427  0.00  0.00     0.193 C 
ATOM      8  O   UNL d   1       3.266  -1.309   1.133  0.00  0.00    -0.287 OA
BRANCH   7   9
ATOM      9  C   UNL d   1       3.822   0.664   0.002  0.00  0.00     0.015 A 
ATOM     10  C   UNL d   1       3.749   1.270  -1.258  0.00  0.00     0.017 A 
ATOM     11  C   UNL d   1       4.599   2.338  -1.567  0.00  0.00     0.025 A 
ATOM     12  C   UNL d   1       5.529   2.782  -0.625  0.00  0.00     0.034 A 
ATOM     13  C   UNL d   1       5.635   2.154   0.615  0.00  0.00     0.025 A 
ATOM     14 CL   UNL d   1       6.541   4.124  -0.991  0.00  0.00    -0.084 Cl
ATOM     15  C   UNL d   1       4.786   1.088   0.926  0.00  0.00     0.017 A 
ENDBRANCH   7   9
ENDBRANCH   1   7
BRANCH   2  16
ATOM     16  C   UNL d   1       1.005  -2.786   0.078  0.00  0.00     0.293 C 
ATOM     17  O   UNL d   1       0.379  -3.649   0.675  0.00  0.00    -0.259 OA
BRANCH  16  18
ATOM     18  O   UNL d   1       2.042  -2.975  -0.766  0.00  0.00    -0.322 OA
ATOM     19  C   UNL d   1       2.530  -4.319  -0.838  0.00  0.00     0.213 C 
ENDBRANCH  16  18
ENDBRANCH   2  16
TORSDOF 4
