REMARK  4 active torsions:
REMARK  status: ('A' for Active; 'I' for Inactive)
REMARK    1  A    between atoms: S_12  and  C_1 
REMARK    2  A    between atoms: N_13  and  C_1 
REMARK    3  A    between atoms: N_2  and  N_4 
REMARK    4  A    between atoms: C_6  and  C_8 
ROOT
ATOM      1  N   UNL d   1       1.243   1.693  -1.578  0.00  0.00    -0.309 N 
ATOM      2  HN  UNL d   1       2.231   1.485  -1.723  1.00  0.00     0.186 HD
ATOM      3  C   UNL d   1       0.631   2.706  -2.106  0.00  0.00     0.126 C 
ENDROOT
BRANCH   1   4
ATOM      4  N   UNL d   1       0.386   0.914  -0.782  0.00  0.00    -0.285 N 
ATOM      5  C   UNL d   1       0.991  -0.141  -0.328  0.00  0.00     0.130 C 
ATOM      6  HN  UNL d   1      -0.588   1.148  -0.586  1.00  0.00     0.188 HD
BRANCH   5   7
ATOM      7  S   UNL d   1       0.195  -1.269   0.744  0.00  0.00    -0.103 SA
ATOM      8  C   UNL d   1      -1.437  -0.520   0.895  0.00  0.00     0.098 C 
ENDBRANCH   5   7
BRANCH   5   9
ATOM      9  N   UNL d   1       2.287  -0.471  -0.590  0.00  0.00    -0.282 NA
ATOM     10  H   UNL d   1       2.775   0.340  -0.961  0.00  0.00     0.126 HD
ATOM     11  H   UNL d   1       2.754  -0.934   0.176  0.00  0.00     0.126 HD
ENDBRANCH   5   9
ENDBRANCH   1   4
BRANCH   3  12
ATOM     12  C   UNL d   1       1.363   3.616  -2.953  0.00  0.00     0.021 A 
ATOM     13  S   UNL d   1       0.585   5.003  -3.579  0.00  0.00    -0.101 SA
ATOM     14  C   UNL d   1       2.009   5.516  -4.380  0.00  0.00     0.050 A 
ATOM     15  C   UNL d   1       3.055   4.643  -4.185  0.00  0.00     0.008 A 
ATOM     16  C   UNL d   1       2.680   3.542  -3.362  0.00  0.00     0.021 A 
ENDBRANCH   3  12
TORSDOF 4
