REMARK  8 active torsions:
REMARK  status: ('A' for Active; 'I' for Inactive)
REMARK    1  A    between atoms: C_7  and  C_3 
REMARK    2  A    between atoms: C_15  and  C_4 
REMARK    3  A    between atoms: C_14  and  C_5 
REMARK    4  A    between atoms: O_22  and  C_6 
REMARK    5  A    between atoms: C_21  and  C_10 
REMARK    6  A    between atoms: C_13  and  C_18 
REMARK    7  A    between atoms: O_23  and  C_21 
REMARK    8  A    between atoms: C_24  and  O_23 
ROOT
ATOM      1  N   UNL d   1       0.771   0.377  -1.206  0.00  0.00    -0.351 N 
ATOM      2  HN  UNL d   1       1.129   0.584  -2.139  1.00  0.00     0.166 HD
ATOM      3  C   UNL d   1       1.301   0.876  -0.026  0.00  0.00     0.049 A 
ATOM      4  C   UNL d   1      -0.261  -0.403  -0.952  0.00  0.00     0.075 A 
ATOM      5  S   UNL d   1      -0.637  -0.598   0.717  0.00  0.00    -0.084 SA
ATOM      6  C   UNL d   1       0.675   0.427   1.120  0.00  0.00     0.082 A 
ENDROOT
BRANCH   3   7
ATOM      7  C   UNL d   1       2.479   1.738  -0.029  0.00  0.00    -0.008 A 
ATOM      8  C   UNL d   1       2.732   2.652   0.998  0.00  0.00     0.024 A 
ATOM      9  C   UNL d   1       3.905   3.431   1.036  0.00  0.00    -0.016 A 
ATOM     10  C   UNL d   1       4.846   3.208  -0.003  0.00  0.00     0.079 A 
ATOM     11  C   UNL d   1       4.596   2.372  -1.121  0.00  0.00    -0.016 A 
ATOM     12  C   UNL d   1       3.390   1.644  -1.086  0.00  0.00     0.024 A 
BRANCH   9  13
ATOM     13  C   UNL d   1       4.111   4.431   2.204  0.00  0.00    -0.021 C 
ATOM     14  C   UNL d   1       4.827   3.702   3.355  0.00  0.00     0.019 C 
ATOM     15  C   UNL d   1       4.920   5.690   1.807  0.00  0.00     0.019 C 
ATOM     16  C   UNL d   1       2.775   4.995   2.769  0.00  0.00     0.019 C 
ENDBRANCH   9  13
BRANCH  10  17
ATOM     17  O   UNL d   1       6.083   3.771   0.130  0.00  0.00    -0.360 OA
ATOM     18  H   UNL d   1       6.151   4.462  -0.545  0.00  0.00     0.217 HD
ENDBRANCH  10  17
BRANCH  11  19
ATOM     19  C   UNL d   1       5.537   2.245  -2.350  0.00  0.00    -0.021 C 
ATOM     20  C   UNL d   1       5.017   1.228  -3.406  0.00  0.00     0.019 C 
ATOM     21  C   UNL d   1       5.635   3.599  -3.088  0.00  0.00     0.019 C 
ATOM     22  C   UNL d   1       6.957   1.771  -1.978  0.00  0.00     0.019 C 
ENDBRANCH  11  19
ENDBRANCH   3   7
BRANCH   4  23
ATOM     23  C   UNL d   1      -1.047  -1.149  -1.988  0.00  0.00     0.240 C 
BRANCH  23  24
ATOM     24  O   UNL d   1      -2.198  -0.365  -2.303  0.00  0.00    -0.345 OA
BRANCH  24  25
ATOM     25  C   UNL d   1      -3.048  -0.882  -3.243  0.00  0.00     0.069 A 
ATOM     26  C   UNL d   1      -2.917  -2.117  -3.878  0.00  0.00     0.037 A 
ATOM     27  C   UNL d   1      -3.862  -2.529  -4.827  0.00  0.00     0.012 A 
ATOM     28  C   UNL d   1      -4.956  -1.716  -5.162  0.00  0.00    -0.035 A 
ATOM     29  C   UNL d   1      -5.074  -0.481  -4.516  0.00  0.00     0.012 A 
ATOM     30  C   UNL d   1      -4.132  -0.069  -3.564  0.00  0.00     0.037 A 
BRANCH  28  31
ATOM     31  C   UNL d   1      -5.953  -2.183  -6.201  0.00  0.00     0.141 C 
ATOM     32  S   UNL d   1      -5.997  -1.079  -7.655  0.00  0.00    -0.148 SA
ATOM     33  C   UNL d   1      -7.797  -1.053  -7.842  0.00  0.00     0.085 C 
ATOM     34  C   UNL d   1      -8.405  -1.051  -6.456  0.00  0.00     0.085 C 
ATOM     35  S   UNL d   1      -7.630  -2.387  -5.515  0.00  0.00    -0.148 SA
ENDBRANCH  28  31
ENDBRANCH  24  25
ENDBRANCH  23  24
ENDBRANCH   4  23
TORSDOF 8
