REMARK  2 active torsions:
REMARK  status: ('A' for Active; 'I' for Inactive)
REMARK    1  A    between atoms: C_7  and  C_1 
REMARK    2  A    between atoms: O_10  and  C_7 
ROOT
ATOM      1  C   UNL d   1      -0.025  -1.509   0.007  0.00  0.00     0.058 A 
ATOM      2  N   UNL d   1      -0.003   1.257   0.079  0.00  0.00    -0.358 N 
ATOM      3  HN  UNL d   1       0.001   2.276   0.124  1.00  0.00     0.166 HD
ATOM      4  C   UNL d   1      -1.251  -0.804  -0.022  0.00  0.00    -0.018 A 
ATOM      5  C   UNL d   1      -1.174   0.587   0.042  0.00  0.00     0.017 A 
ATOM      6  C   UNL d   1       1.222  -0.818   0.037  0.00  0.00     0.008 A 
ATOM      7  C   UNL d   1       1.151   0.586   0.056  0.00  0.00     0.043 A 
ATOM      8  C   UNL d   1      -2.599  -1.482  -0.106  0.00  0.00     0.042 C 
ATOM      9  C   UNL d   1      -2.392   1.472  -0.033  0.00  0.00     0.057 C 
ATOM     10  C   UNL d   1       2.515  -1.413   0.042  0.00  0.00     0.015 A 
ATOM     11  C   UNL d   1       2.321   1.335   0.038  0.00  0.00     0.030 A 
ATOM     12  C   UNL d   1      -3.726  -0.560  -0.573  0.00  0.00     0.005 C 
ATOM     13  C   UNL d   1      -3.701   0.739   0.217  0.00  0.00     0.006 C 
ATOM     14  C   UNL d   1       3.678  -0.640   0.022  0.00  0.00     0.001 A 
ATOM     15  C   UNL d   1       3.580   0.740   0.010  0.00  0.00     0.002 A 
ENDROOT
BRANCH   1  16
ATOM     16  C   UNL d   1      -0.008  -2.995  -0.098  0.00  0.00     0.177 C 
ATOM     17  O   UNL d   1       0.660  -3.607  -0.907  0.00  0.00    -0.646 OA
BRANCH  16  18
ATOM     18  O   UNL d   1      -0.788  -3.612   0.821  0.00  0.00    -0.773 OA
ATOM     19  H   UNL d   1      -1.187  -3.026   1.489  0.00  0.00     0.167 HD
ENDBRANCH  16  18
ENDBRANCH   1  16
TORSDOF 2
