REMARK  5 active torsions:
REMARK  status: ('A' for Active; 'I' for Inactive)
REMARK       I    between atoms: C_9  and  N_1 
REMARK    1  A    between atoms: N_7  and  C_2 
REMARK       I    between atoms: C_10  and  N_3 
REMARK    2  A    between atoms: C_8  and  C_6 
REMARK       I    between atoms: C_16  and  N_7 
REMARK    3  A    between atoms: O_20  and  C_11 
REMARK    4  A    between atoms: O_22  and  C_12 
REMARK    5  A    between atoms: O_21  and  C_13 
ROOT
ATOM      1  N   UNL d   1      -0.273  -1.058   0.167  0.00  0.00    -0.217 N 
ATOM      2  C   UNL d   1       0.888   0.715   0.212  0.00  0.00     0.706 C 
ATOM      3  N   UNL d   1      -0.416   1.175   0.196  0.00  0.00    -0.122 N 
ATOM      4  N   UNL d   1       1.009  -0.577   0.220  0.00  0.00    -0.124 N 
ATOM      5  HN  UNL d   1       1.872  -1.118   0.256  1.00  0.00     0.206 HD
ATOM      6  C   UNL d   1      -1.229   0.005  -0.095  0.00  0.00     0.271 C 
ATOM      7  C   UNL d   1      -0.609  -2.361   0.422  0.00  0.00     0.236 C 
ATOM      8  C   UNL d   1      -0.813   2.387   0.691  0.00  0.00     0.236 C 
ATOM      9  O   UNL d   1      -1.780  -2.745   0.451  0.00  0.00    -0.272 OA
ATOM     10  O   UNL d   1      -0.047   3.358   0.708  0.00  0.00    -0.273 OA
ATOM     11  C   UNL d   1       0.530  -3.316   0.694  0.00  0.00     0.119 C 
ATOM     12  C   UNL d   1      -2.216   2.527   1.230  0.00  0.00     0.118 C 
ENDROOT
BRANCH   6  13
ATOM     13  C   UNL d   1      -1.670  -0.032  -1.567  0.00  0.00    -0.008 A 
ATOM     14  C   UNL d   1      -0.715  -0.121  -2.598  0.00  0.00     0.050 A 
ATOM     15  C   UNL d   1      -1.065  -0.234  -3.953  0.00  0.00     0.104 A 
ATOM     16  C   UNL d   1      -2.427  -0.237  -4.316  0.00  0.00     0.135 A 
ATOM     17  C   UNL d   1      -3.397  -0.161  -3.288  0.00  0.00     0.104 A 
ATOM     18  C   UNL d   1      -3.017  -0.040  -1.937  0.00  0.00     0.050 A 
BRANCH  15  19
ATOM     19  O   UNL d   1      -0.117  -0.353  -4.937  0.00  0.00    -0.353 OA
ATOM     20  C   UNL d   1       1.257  -0.382  -4.567  0.00  0.00     0.210 C 
ENDBRANCH  15  19
BRANCH  16  21
ATOM     21  O   UNL d   1      -2.922  -0.279  -5.594  0.00  0.00    -0.351 OA
ATOM     22  C   UNL d   1      -2.048  -0.358  -6.709  0.00  0.00     0.210 C 
ENDBRANCH  16  21
BRANCH  17  23
ATOM     23  O   UNL d   1      -4.764  -0.147  -3.456  0.00  0.00    -0.353 OA
ATOM     24  C   UNL d   1      -5.288  -0.948  -4.514  0.00  0.00     0.210 C 
ENDBRANCH  17  23
ENDBRANCH   6  13
BRANCH   2  25
ATOM     25  N   UNL d   1       1.918   1.600   0.215  0.00  0.00    -0.158 N 
ATOM     26  C   UNL d   1       3.244   1.251   0.024  0.00  0.00     0.232 C 
ATOM     27  O   UNL d   1       3.676   0.115  -0.124  0.00  0.00    -0.273 OA
ATOM     28  C   UNL d   1       4.177   2.435  -0.058  0.00  0.00     0.118 C 
ATOM     29  H   UNL d   1       1.663   2.581   0.260  0.00  0.00     0.187 HD
ENDBRANCH   2  25
TORSDOF 5
