REMARK  2 active torsions:
REMARK  status: ('A' for Active; 'I' for Inactive)
REMARK    1  A    between atoms: C_2  and  S_1 
REMARK    2  A    between atoms: N_9  and  S_1 
ROOT
ATOM      1  C   UNL d   1       0.589   1.233   1.261  0.00  0.00     0.077 A 
ATOM      2  C   UNL d   1      -0.055   0.834   2.434  0.00  0.00     0.048 A 
ATOM      3  C   UNL d   1       0.910   2.575   1.037  0.00  0.00     0.048 A 
ATOM      4  C   UNL d   1      -0.390   1.796   3.383  0.00  0.00     0.037 A 
ATOM      5  C   UNL d   1       0.564   3.521   1.998  0.00  0.00     0.037 A 
ATOM      6  C   UNL d   1      -0.087   3.140   3.172  0.00  0.00     0.047 A 
ATOM      7 CL   UNL d   1      -1.194   1.321   4.828  0.00  0.00    -0.084 Cl
ATOM      8 CL   UNL d   1       0.933   5.180   1.731  0.00  0.00    -0.084 Cl
ENDROOT
BRANCH   1   9
ATOM      9  S   UNL d   1       0.987   0.034   0.029  0.00  0.00     0.239 S 
ATOM     10  O   UNL d   1       0.396  -1.234   0.391  0.00  0.00    -0.206 OA
ATOM     11  O   UNL d   1       2.380   0.178  -0.320  0.00  0.00    -0.206 OA
BRANCH   9  12
ATOM     12  N   UNL d   1       0.101   0.581  -1.287  0.00  0.00    -0.225 NA
ATOM     13  H   UNL d   1      -0.659  -0.069  -1.492  0.00  0.00     0.136 HD
ATOM     14  H   UNL d   1       0.724   0.741  -2.081  0.00  0.00     0.136 HD
ENDBRANCH   9  12
ENDBRANCH   1   9
TORSDOF 2
