REMARK  5 active torsions:
REMARK  status: ('A' for Active; 'I' for Inactive)
REMARK    1  A    between atoms: C_2  and  C_1 
REMARK    2  A    between atoms: O_8  and  C_2 
REMARK       I    between atoms: C_3  and  N_5 
REMARK    3  A    between atoms: C_4  and  C_3 
REMARK    4  A    between atoms: N_5  and  O_8 
REMARK    5  A    between atoms: O_22  and  C_17 
ROOT
ATOM      1  C   UNL d   1       0.921  -6.088   0.118  0.00  0.00     0.275 C 
ATOM      2  N   UNL d   1       0.236  -4.907   0.236  0.00  0.00    -0.221 N 
ATOM      3  O   UNL d   1       2.133  -6.156  -0.080  0.00  0.00    -0.265 OA
ATOM      4  H   UNL d   1      -0.768  -4.773   0.166  0.00  0.00     0.198 HD
ENDROOT
BRANCH   2   5
ATOM      5  O   UNL d   1       1.026  -3.736   0.109  0.00  0.00    -0.192 OA
BRANCH   5   6
ATOM      6  C   UNL d   1       0.271  -2.623  -0.054  0.00  0.00     0.316 C 
ATOM      7  O   UNL d   1      -0.952  -2.657  -0.156  0.00  0.00    -0.257 OA
BRANCH   6   8
ATOM      8  C   UNL d   1       1.057  -1.350  -0.094  0.00  0.00     0.061 A 
ATOM      9  C   UNL d   1       2.437  -1.198   0.128  0.00  0.00     0.027 A 
ATOM     10  C   UNL d   1       3.016   0.079   0.056  0.00  0.00     0.023 A 
ATOM     11 BR   UNL d   1       3.658  -2.589   0.559  0.00  0.00    -0.050 Br
ATOM     12  C   UNL d   1       2.240   1.201  -0.231  0.00  0.00     0.038 A 
ATOM     13  C   UNL d   1       0.872   1.073  -0.448  0.00  0.00     0.069 A 
ATOM     14  C   UNL d   1       0.289  -0.193  -0.374  0.00  0.00     0.055 A 
BRANCH  13  15
ATOM     15  O   UNL d   1       0.230   2.248  -0.720  0.00  0.00    -0.356 OA
ATOM     16  C   UNL d   1      -1.169   2.185  -0.973  0.00  0.00     0.210 C 
ENDBRANCH  13  15
ENDBRANCH   6   8
ENDBRANCH   5   6
ENDBRANCH   2   5
BRANCH   1  17
ATOM     17  C   UNL d   1       0.140  -7.355   0.255  0.00  0.00     0.035 A 
ATOM     18  C   UNL d   1      -1.164  -7.400   0.765  0.00  0.00     0.042 A 
ATOM     19  C   UNL d   1      -1.810  -8.634   0.942  0.00  0.00     0.056 A 
ATOM     20 CL   UNL d   1      -3.411  -8.610   1.594  0.00  0.00    -0.083 Cl
ATOM     21  C   UNL d   1      -1.158  -9.829   0.613  0.00  0.00     0.055 A 
ATOM     22  C   UNL d   1       0.137  -9.788   0.098  0.00  0.00     0.026 A 
ATOM     23 CL   UNL d   1      -1.887 -11.379   0.836  0.00  0.00    -0.083 Cl
ATOM     24  C   UNL d   1       0.781  -8.559  -0.079  0.00  0.00     0.019 A 
ENDBRANCH   1  17
TORSDOF 5
