REMARK  2 active torsions:
REMARK  status: ('A' for Active; 'I' for Inactive)
REMARK    1  A    between atoms: C_2  and  N_1 
REMARK    2  A    between atoms: C_10  and  C_3 
ROOT
ATOM      1  N   UNL d   1      -0.624  -1.181   0.234  0.00  0.00    -0.283 N 
ATOM      2  C   UNL d   1       0.755  -1.394  -0.178  0.00  0.00     0.191 C 
ATOM      3  S   UNL d   1       1.552   0.236  -0.194  0.00  0.00    -0.129 SA
ATOM      4  C   UNL d   1      -1.081   0.133   0.229  0.00  0.00     0.236 C 
ATOM      5  C   UNL d   1      -0.018   1.110  -0.220  0.00  0.00     0.179 C 
ATOM      6  O   UNL d   1      -2.221   0.507   0.486  0.00  0.00    -0.272 OA
ENDROOT
BRANCH   1   7
ATOM      7  C   UNL d   1      -1.484  -2.246   0.504  0.00  0.00     0.134 A 
ATOM      8  N   UNL d   1      -1.232  -3.490   0.071  0.00  0.00    -0.244 N 
ATOM      9  O   UNL d   1      -2.208  -4.298   0.611  0.00  0.00    -0.241 OA
ATOM     10  HN  UNL d   1      -0.468  -3.780  -0.540  1.00  0.00     0.196 HD
ATOM     11  C   UNL d   1      -3.035  -3.550   1.383  0.00  0.00     0.076 A 
ATOM     12  C   UNL d   1      -2.655  -2.234   1.302  0.00  0.00     0.085 A 
ATOM     13  C   UNL d   1      -4.071  -4.282   2.129  0.00  0.00     0.079 C 
ENDBRANCH   1   7
BRANCH   2  14
ATOM     14  C   UNL d   1       1.512  -2.362   0.703  0.00  0.00    -0.010 A 
ATOM     15  C   UNL d   1       2.189  -3.436   0.133  0.00  0.00     0.097 A 
ATOM     16  N   UNL d   1       2.804  -4.415   0.838  0.00  0.00    -0.375 N 
ATOM     17  C   UNL d   1       2.730  -4.333   2.183  0.00  0.00     0.087 A 
ATOM     18  HN  UNL d   1       3.299  -5.177   0.375  1.00  0.00     0.164 HD
ATOM     19  C   UNL d   1       2.102  -3.297   2.855  0.00  0.00     0.018 A 
ATOM     20  C   UNL d   1       1.496  -2.295   2.103  0.00  0.00     0.013 A 
ENDBRANCH   2  14
TORSDOF 2
