REMARK  4 active torsions:
REMARK  status: ('A' for Active; 'I' for Inactive)
REMARK    1  A    between atoms: N_2  and  S_1 
REMARK    2  A    between atoms: C_3  and  S_1 
REMARK    3  A    between atoms: C_13  and  C_5 
REMARK    4  A    between atoms: O_20  and  C_5 
ROOT
ATOM      1  N   UNL d   1       0.394   1.528   0.076  0.00  0.00    -0.206 NA
ATOM      2  C   UNL d   1      -0.581   4.250   0.531  0.00  0.00     0.087 C 
ATOM      3  C   UNL d   1       0.143   3.811  -0.760  0.00  0.00     0.058 C 
ATOM      4  C   UNL d   1      -1.138   3.014   1.269  0.00  0.00     0.058 C 
ATOM      5  C   UNL d   1      -0.090   1.916   1.427  0.00  0.00     0.111 C 
ATOM      6  C   UNL d   1       1.127   2.666  -0.537  0.00  0.00     0.111 C 
ENDROOT
BRANCH   1   7
ATOM      7  S   UNL d   1       1.241   0.045   0.000  0.00  0.00     0.243 S 
ATOM      8  O   UNL d   1       2.179   0.016   1.101  0.00  0.00    -0.206 OA
ATOM      9  O   UNL d   1       1.666  -0.172  -1.368  0.00  0.00    -0.206 OA
BRANCH   7  10
ATOM     10  C   UNL d   1      -0.041  -1.145   0.320  0.00  0.00     0.076 A 
ATOM     11  C   UNL d   1      -1.134  -1.206  -0.553  0.00  0.00     0.051 A 
ATOM     12  C   UNL d   1      -2.139  -2.142  -0.318  0.00  0.00     0.074 A 
ATOM     13 CL   UNL d   1      -3.489  -2.218  -1.383  0.00  0.00    -0.081 Cl
ATOM     14  C   UNL d   1      -2.046  -3.007   0.774  0.00  0.00     0.138 A 
ATOM     15  C   UNL d   1      -0.953  -2.949   1.637  0.00  0.00     0.045 A 
ATOM     16  F   UNL d   1      -3.006  -3.912   1.014  0.00  0.00    -0.204 F 
ATOM     17  C   UNL d   1       0.060  -2.014   1.412  0.00  0.00     0.028 A 
ENDBRANCH   7  10
ENDBRANCH   1   7
BRANCH   2  18
ATOM     18  C   UNL d   1      -1.685   5.296   0.298  0.00  0.00    -0.024 A 
ATOM     19  C   UNL d   1      -2.001   5.801  -0.976  0.00  0.00     0.012 A 
ATOM     20  C   UNL d   1      -3.020   6.742  -1.155  0.00  0.00     0.024 A 
ATOM     21  C   UNL d   1      -3.741   7.203  -0.059  0.00  0.00     0.034 A 
ATOM     22  C   UNL d   1      -3.443   6.736   1.216  0.00  0.00     0.024 A 
ATOM     23 CL   UNL d   1      -4.997   8.355  -0.284  0.00  0.00    -0.084 Cl
ATOM     24  C   UNL d   1      -2.421   5.797   1.393  0.00  0.00     0.012 A 
ENDBRANCH   2  18
BRANCH   2  25
ATOM     25  O   UNL d   1       0.407   4.858   1.378  0.00  0.00    -0.385 OA
ATOM     26  H   UNL d   1       0.455   5.802   1.143  0.00  0.00     0.211 HD
ENDBRANCH   2  25
TORSDOF 4
