REMARK  6 active torsions:
REMARK  status: ('A' for Active; 'I' for Inactive)
REMARK    1  A    between atoms: C_3  and  C_1 
REMARK    2  A    between atoms: C_20  and  C_1 
REMARK    3  A    between atoms: C_2  and  C_21 
REMARK    4  A    between atoms: C_4  and  C_2 
REMARK    5  A    between atoms: S_11  and  C_20 
REMARK    6  A    between atoms: C_21  and  S_11 
ROOT
ATOM      1  S   UNL d   1       2.964  -1.289  -1.242  0.00  0.00    -0.153 SA
ENDROOT
BRANCH   1   2
ATOM      2  C   UNL d   1       2.513  -0.110   0.074  0.00  0.00     0.158 C 
BRANCH   2   3
ATOM      3  C   UNL d   1       1.001   0.011   0.135  0.00  0.00     0.168 C 
ATOM      4  O   UNL d   1       0.419   0.946  -0.421  0.00  0.00    -0.292 OA
BRANCH   3   5
ATOM      5  C   UNL d   1       0.183  -1.020   0.855  0.00  0.00     0.011 A 
ATOM      6  C   UNL d   1      -1.216  -0.932   0.769  0.00  0.00     0.016 A 
ATOM      7  C   UNL d   1      -2.034  -1.866   1.410  0.00  0.00     0.020 A 
ATOM      8  C   UNL d   1      -1.456  -2.895   2.146  0.00  0.00     0.011 A 
ATOM      9  C   UNL d   1      -0.069  -2.995   2.246  0.00  0.00     0.020 A 
ATOM     10 BR   UNL d   1      -2.554  -4.167   3.010  0.00  0.00    -0.051 Br
ATOM     11  C   UNL d   1       0.751  -2.061   1.601  0.00  0.00     0.016 A 
ENDBRANCH   3   5
ENDBRANCH   2   3
ENDBRANCH   1   2
BRANCH   1  12
ATOM     12  C   UNL d   1       4.776  -1.213  -1.147  0.00  0.00     0.158 C 
BRANCH  12  13
ATOM     13  C   UNL d   1       5.331   0.174  -1.387  0.00  0.00     0.168 C 
ATOM     14  O   UNL d   1       5.609   0.913  -0.442  0.00  0.00    -0.292 OA
BRANCH  13  15
ATOM     15  C   UNL d   1       5.585   0.648  -2.782  0.00  0.00     0.011 A 
ATOM     16  C   UNL d   1       4.898   0.135  -3.889  0.00  0.00     0.016 A 
ATOM     17  C   UNL d   1       5.133   0.656  -5.166  0.00  0.00     0.020 A 
ATOM     18  C   UNL d   1       6.065   1.676  -5.342  0.00  0.00     0.011 A 
ATOM     19  C   UNL d   1       6.772   2.180  -4.252  0.00  0.00     0.020 A 
ATOM     20 BR   UNL d   1       6.358   2.392  -7.066  0.00  0.00    -0.051 Br
ATOM     21  C   UNL d   1       6.527   1.670  -2.974  0.00  0.00     0.016 A 
ENDBRANCH  13  15
ENDBRANCH  12  13
ENDBRANCH   1  12
TORSDOF 6
