REMARK  1 active torsions:
REMARK  status: ('A' for Active; 'I' for Inactive)
REMARK    1  A    between atoms: C_2  and  N_1 
ROOT
ATOM      1  C   UNL d   1      -0.013   2.334  -0.009  0.00  0.00     0.084 A 
ATOM      2  C   UNL d   1      -0.660   3.091   0.984  0.00  0.00     0.144 A 
ATOM      3  C   UNL d   1      -0.667   4.487   0.968  0.00  0.00     0.062 A 
ATOM      4  C   UNL d   1       0.658   3.053  -1.014  0.00  0.00     0.034 A 
ATOM      5  C   UNL d   1      -0.006   5.167  -0.046  0.00  0.00     0.009 A 
ATOM      6  F   UNL d   1      -1.216   2.505   2.053  0.00  0.00    -0.204 F 
ATOM      7  C   UNL d   1       0.661   4.455  -1.037  0.00  0.00     0.020 A 
ATOM      8  I   UNL d   1       0.014   7.242  -0.064  0.00  0.00    -0.044 I 
ENDROOT
BRANCH   1   9
ATOM      9  N   UNL d   1      -0.007   0.909   0.003  0.00  0.00    -0.242 N 
ATOM     10  C   UNL d   1      -0.941   0.111   0.608  0.00  0.00     0.255 A 
ATOM     11  C   UNL d   1      -0.532  -1.283   0.396  0.00  0.00     0.080 A 
ATOM     12  O   UNL d   1      -2.003   0.369   1.148  0.00  0.00    -0.268 OA
ATOM     13  C   UNL d   1       0.548  -1.281  -0.375  0.00  0.00     0.080 A 
ATOM     14  C   UNL d   1       0.895   0.117  -0.654  0.00  0.00     0.255 A 
ATOM     15  O   UNL d   1       1.863   0.402  -1.341  0.00  0.00    -0.268 OA
ENDBRANCH   1   9
TORSDOF 1
