REMARK  8 active torsions:
REMARK  status: ('A' for Active; 'I' for Inactive)
REMARK    1  A    between atoms: C_22  and  C_6 
REMARK    2  A    between atoms: C_23  and  C_7 
REMARK    3  A    between atoms: S_25  and  C_12 
REMARK    4  A    between atoms: C_13  and  S_24 
REMARK    5  A    between atoms: C_18  and  C_27 
REMARK    6  A    between atoms: C_26  and  C_19 
REMARK    7  A    between atoms: S_24  and  C_26 
REMARK    8  A    between atoms: C_27  and  S_25 
ROOT
ATOM      1  S   UNL d   1       5.314  -4.187  -0.442  0.00  0.00    -0.038 SA
ATOM      2  C   UNL d   1       4.922  -5.812  -0.057  0.00  0.00     0.129 C 
ATOM      3  C   UNL d   1       3.710  -3.779  -0.017  0.00  0.00     0.129 C 
ATOM      4  N   UNL d   1       3.634  -6.002   0.155  0.00  0.00    -0.287 N 
ATOM      5  HN  UNL d   1       3.210  -6.920   0.287  1.00  0.00     0.188 HD
ATOM      6  N   UNL d   1       2.923  -4.812   0.178  0.00  0.00    -0.287 N 
ATOM      7  HN  UNL d   1       1.916  -4.748   0.328  1.00  0.00     0.188 HD
ENDROOT
BRANCH   2   8
ATOM      8  S   UNL d   1       6.031  -7.167   0.025  0.00  0.00    -0.095 SA
BRANCH   8   9
ATOM      9  C   UNL d   1       7.679  -6.418   0.060  0.00  0.00     0.168 C 
BRANCH   9  10
ATOM     10  C   UNL d   1       7.994  -5.628   1.278  0.00  0.00     0.158 A 
ATOM     11  N   UNL d   1       7.243  -4.826   2.002  0.00  0.00    -0.322 N 
ATOM     12  C   UNL d   1       8.149  -4.250   2.866  0.00  0.00     0.137 A 
ATOM     13  HN  UNL d   1       6.237  -4.670   1.939  1.00  0.00     0.169 HD
ATOM     14  N   UNL d   1       9.403  -4.699   2.707  0.00  0.00    -0.242 N 
ATOM     15  O   UNL d   1       9.305  -5.602   1.652  0.00  0.00    -0.222 OA
ATOM     16  HN  UNL d   1      10.236  -4.439   3.237  1.00  0.00     0.196 HD
BRANCH  12  17
ATOM     17  C   UNL d   1       7.768  -3.197   3.802  0.00  0.00     0.010 A 
ATOM     18  C   UNL d   1       6.511  -2.591   3.705  0.00  0.00     0.017 A 
ATOM     19  C   UNL d   1       6.149  -1.564   4.583  0.00  0.00     0.025 A 
ATOM     20  C   UNL d   1       7.010  -1.181   5.606  0.00  0.00     0.034 A 
ATOM     21  C   UNL d   1       8.267  -1.759   5.709  0.00  0.00     0.025 A 
ATOM     22 CL   UNL d   1       6.482  -0.035   6.777  0.00  0.00    -0.084 Cl
ATOM     23  C   UNL d   1       8.654  -2.751   4.796  0.00  0.00     0.017 A 
ENDBRANCH  12  17
ENDBRANCH   9  10
ENDBRANCH   8   9
ENDBRANCH   2   8
BRANCH   3  24
ATOM     24  S   UNL d   1       3.183  -2.123   0.117  0.00  0.00    -0.095 SA
BRANCH  24  25
ATOM     25  C   UNL d   1       1.968  -2.233   1.458  0.00  0.00     0.168 C 
BRANCH  25  26
ATOM     26  C   UNL d   1       2.537  -2.547   2.794  0.00  0.00     0.158 A 
ATOM     27  N   UNL d   1       3.019  -3.674   3.278  0.00  0.00    -0.322 N 
ATOM     28  C   UNL d   1       3.267  -3.361   4.603  0.00  0.00     0.137 A 
ATOM     29  HN  UNL d   1       3.173  -4.559   2.795  1.00  0.00     0.169 HD
ATOM     30  N   UNL d   1       2.935  -2.104   4.931  0.00  0.00    -0.242 N 
ATOM     31  O   UNL d   1       2.475  -1.558   3.733  0.00  0.00    -0.222 OA
ATOM     32  HN  UNL d   1       3.002  -1.653   5.843  1.00  0.00     0.196 HD
BRANCH  28  33
ATOM     33  C   UNL d   1       3.938  -4.301   5.503  0.00  0.00     0.010 A 
ATOM     34  C   UNL d   1       3.849  -5.683   5.252  0.00  0.00     0.017 A 
ATOM     35  C   UNL d   1       4.548  -6.594   6.053  0.00  0.00     0.025 A 
ATOM     36  C   UNL d   1       5.369  -6.140   7.080  0.00  0.00     0.034 A 
ATOM     37  C   UNL d   1       5.477  -4.773   7.337  0.00  0.00     0.025 A 
ATOM     38 CL   UNL d   1       6.256  -7.265   8.028  0.00  0.00    -0.084 Cl
ATOM     39  C   UNL d   1       4.732  -3.865   6.568  0.00  0.00     0.017 A 
ENDBRANCH  28  33
ENDBRANCH  25  26
ENDBRANCH  24  25
ENDBRANCH   3  24
TORSDOF 8
