REMARK  5 active torsions:
REMARK  status: ('A' for Active; 'I' for Inactive)
REMARK    1  A    between atoms: C_6  and  C_1 
REMARK    2  A    between atoms: C_7  and  C_1 
REMARK    3  A    between atoms: N_9  and  C_2 
REMARK    4  A    between atoms: O_15  and  C_4 
REMARK    5  A    between atoms: C_10  and  N_9 
ROOT
ATOM      1  C   UNL d   1       0.070   0.679  -6.007  0.00  0.00     0.069 A 
ATOM      2  C   UNL d   1      -1.065   1.504  -5.993  0.00  0.00     0.093 A 
ATOM      3  C   UNL d   1      -1.582   1.962  -4.775  0.00  0.00    -0.025 A 
ATOM      4  C   UNL d   1       0.698   0.312  -4.815  0.00  0.00     0.056 A 
ATOM      5  C   UNL d   1       0.203   0.751  -3.585  0.00  0.00     0.034 A 
ATOM      6  C   UNL d   1      -0.944   1.556  -3.584  0.00  0.00     0.039 A 
ATOM      7 CL   UNL d   1       0.722   0.069  -7.488  0.00  0.00    -0.081 Cl
ATOM      8  C   UNL d   1      -2.762   2.882  -4.628  0.00  0.00     0.051 C 
ENDROOT
BRANCH   5   9
ATOM      9  N   UNL d   1       0.820   0.291  -2.410  0.00  0.00    -0.365 N 
ATOM     10  H   UNL d   1       1.836   0.164  -2.470  0.00  0.00     0.165 HD
BRANCH   9  11
ATOM     11  C   UNL d   1       0.301   0.216  -1.136  0.00  0.00     0.107 C 
ATOM     12  C   UNL d   1       0.948  -0.065   0.011  0.00  0.00     0.070 C 
BRANCH  12  13
ATOM     13  C   UNL d   1       0.184  -0.149   1.290  0.00  0.00     0.160 C 
ATOM     14  O   UNL d   1       0.727   0.159   2.349  0.00  0.00    -0.293 OA
ATOM     15  C   UNL d   1      -1.250  -0.633   1.295  0.00  0.00     0.097 C 
ENDBRANCH  12  13
BRANCH  12  16
ATOM     16  C   UNL d   1       2.438  -0.252  -0.029  0.00  0.00     0.160 C 
ATOM     17  O   UNL d   1       3.095   0.103  -1.013  0.00  0.00    -0.293 OA
ATOM     18  C   UNL d   1       3.136  -0.915   1.131  0.00  0.00     0.097 C 
ENDBRANCH  12  16
ENDBRANCH   9  11
ENDBRANCH   5   9
BRANCH   2  19
ATOM     19  O   UNL d   1      -1.626   1.830  -7.197  0.00  0.00    -0.358 OA
ATOM     20  H   UNL d   1      -2.472   2.281  -7.075  0.00  0.00     0.217 HD
ENDBRANCH   2  19
TORSDOF 5
