REMARK  4 active torsions:
REMARK  status: ('A' for Active; 'I' for Inactive)
REMARK    1  A    between atoms: N_2  and  S_1 
REMARK    2  A    between atoms: C_4  and  S_1 
REMARK    3  A    between atoms: C_3  and  N_2 
REMARK       I    between atoms: C_9  and  N_10 
REMARK    4  A    between atoms: N_10  and  C_16 
ROOT
ATOM      1  S   UNL d   1       0.952  -0.062  -0.118  0.00  0.00     0.245 S 
ATOM      2  O   UNL d   1       2.281   0.079  -0.670  0.00  0.00    -0.206 OA
ATOM      3  O   UNL d   1       0.696  -0.914   1.025  0.00  0.00    -0.206 OA
ENDROOT
BRANCH   1   4
ATOM      4  N   UNL d   1      -0.042  -0.523  -1.418  0.00  0.00    -0.178 NA
ATOM      5  H   UNL d   1       0.558  -0.929  -2.140  0.00  0.00     0.146 HD
BRANCH   4   6
ATOM      6  C   UNL d   1      -1.198  -1.297  -1.088  0.00  0.00     0.061 A 
ATOM      7  C   UNL d   1      -1.113  -2.692  -0.989  0.00  0.00     0.141 A 
ATOM      8  C   UNL d   1      -2.212  -3.449  -0.605  0.00  0.00     0.086 A 
ATOM      9  F   UNL d   1       0.040  -3.312  -1.280  0.00  0.00    -0.204 F 
ATOM     10  C   UNL d   1      -3.401  -2.795  -0.311  0.00  0.00     0.119 A 
ATOM     11  C   UNL d   1      -3.503  -1.407  -0.395  0.00  0.00     0.044 A 
ATOM     12  F   UNL d   1      -4.472  -3.509   0.058  0.00  0.00    -0.206 F 
ATOM     13  C   UNL d   1      -2.394  -0.651  -0.780  0.00  0.00     0.030 A 
ENDBRANCH   4   6
ENDBRANCH   1   4
BRANCH   1  14
ATOM     14  C   UNL d   1       0.355   1.568   0.265  0.00  0.00     0.075 A 
ATOM     15  C   UNL d   1      -0.613   1.756   1.254  0.00  0.00     0.027 A 
ATOM     16  C   UNL d   1      -1.020   3.056   1.587  0.00  0.00     0.031 A 
ATOM     17  C   UNL d   1      -0.453   4.171   0.951  0.00  0.00     0.034 A 
ATOM     18  C   UNL d   1       0.525   3.960  -0.025  0.00  0.00     0.031 A 
ATOM     19  C   UNL d   1       0.931   2.667  -0.368  0.00  0.00     0.027 A 
BRANCH  17  20
ATOM     20  N   UNL d   1      -0.897   5.456   1.342  0.00  0.00    -0.328 N 
ATOM     21  C   UNL d   1      -0.468   6.671   0.834  0.00  0.00     0.218 C 
ATOM     22  O   UNL d   1       0.368   6.843  -0.047  0.00  0.00    -0.274 OA
ATOM     23  C   UNL d   1      -1.137   7.866   1.465  0.00  0.00     0.117 C 
ATOM     24  H   UNL d   1      -1.599   5.482   2.072  0.00  0.00     0.169 HD
ENDBRANCH  17  20
ENDBRANCH   1  14
TORSDOF 4
