REMARK  7 active torsions:
REMARK  status: ('A' for Active; 'I' for Inactive)
REMARK    1  A    between atoms: C_7  and  C_1 
REMARK    2  A    between atoms: C_19  and  C_3 
REMARK    3  A    between atoms: C_6  and  N_16 
REMARK    4  A    between atoms: N_8  and  C_6 
REMARK    5  A    between atoms: O_22  and  C_7 
REMARK    6  A    between atoms: C_9  and  N_8 
REMARK    7  A    between atoms: N_16  and  N_12 
ROOT
ATOM      1  N   UNL d   1      -3.704  -1.196   0.475  0.00  0.00    -0.309 N 
ATOM      2  HN  UNL d   1      -3.646  -0.267   0.059  1.00  0.00     0.186 HD
ATOM      3  C   UNL d   1      -2.708  -1.708   1.123  0.00  0.00     0.120 C 
ENDROOT
BRANCH   1   4
ATOM      4  N   UNL d   1      -4.844  -1.958   0.372  0.00  0.00    -0.277 N 
ATOM      5  H   UNL d   1      -4.729  -2.964   0.362  0.00  0.00     0.189 HD
BRANCH   4   6
ATOM      6  C   UNL d   1      -5.994  -1.421  -0.162  0.00  0.00     0.186 C 
ATOM      7  S   UNL d   1      -6.240   0.192  -0.546  0.00  0.00    -0.040 SA
BRANCH   6   8
ATOM      8  N   UNL d   1      -7.051  -2.267  -0.354  0.00  0.00    -0.361 N 
ATOM      9  H   UNL d   1      -7.838  -1.817  -0.810  0.00  0.00     0.162 HD
BRANCH   8  10
ATOM     10  C   UNL d   1      -7.277  -3.601   0.175  0.00  0.00     0.092 C 
ATOM     11  C   UNL d   1      -8.777  -3.929   0.443  0.00  0.00     0.031 C 
ATOM     12  C   UNL d   1      -9.582  -3.877  -0.842  0.00  0.00    -0.024 C 
ATOM     13  C   UNL d   1      -8.690  -5.453   0.584  0.00  0.00     0.019 C 
ATOM     14  C   UNL d   1      -9.188  -4.911  -1.599  0.00  0.00    -0.026 C 
ATOM     15  C   UNL d   1      -8.119  -5.646  -0.826  0.00  0.00     0.010 C 
ATOM     16  C   UNL d   1      -6.853  -4.755  -0.779  0.00  0.00     0.034 C 
ENDBRANCH   8  10
ENDBRANCH   6   8
ENDBRANCH   4   6
ENDBRANCH   1   4
BRANCH   3  17
ATOM     17  C   UNL d   1      -1.457  -0.971   1.168  0.00  0.00    -0.001 A 
ATOM     18  C   UNL d   1      -1.109   0.207   0.454  0.00  0.00     0.050 A 
ATOM     19  C   UNL d   1       0.219   0.537   0.709  0.00  0.00     0.111 A 
ATOM     20  N   UNL d   1       0.655  -0.376   1.651  0.00  0.00    -0.355 N 
ATOM     21  C   UNL d   1      -0.340  -1.298   1.910  0.00  0.00     0.104 A 
ATOM     22  C   UNL d   1       1.945  -0.429   2.309  0.00  0.00     0.156 C 
BRANCH  19  23
ATOM     23  C   UNL d   1       0.990   1.606   0.098  0.00  0.00     0.309 C 
ATOM     24  O   UNL d   1       2.172   1.866   0.308  0.00  0.00    -0.258 OA
BRANCH  23  25
ATOM     25  O   UNL d   1       0.206   2.277  -0.790  0.00  0.00    -0.321 OA
ATOM     26  C   UNL d   1       0.861   3.315  -1.518  0.00  0.00     0.213 C 
ENDBRANCH  23  25
ENDBRANCH  19  23
ENDBRANCH   3  17
TORSDOF 7
