REMARK  6 active torsions:
REMARK  status: ('A' for Active; 'I' for Inactive)
REMARK    1  A    between atoms: C_2  and  C_1 
REMARK       I    between atoms: N_5  and  C_2 
REMARK    2  A    between atoms: S_15  and  C_3 
REMARK    3  A    between atoms: C_17  and  N_5 
REMARK    4  A    between atoms: C_21  and  S_15 
REMARK    5  A    between atoms: C_16  and  C_17 
REMARK    6  A    between atoms: C_23  and  C_21 
ROOT
ATOM      1  C   UNL d   1       1.286   2.657   0.326  0.00  0.00     0.254 C 
ATOM      2  N   UNL d   1       0.524   3.393   1.210  0.00  0.00    -0.353 N 
ATOM      3  O   UNL d   1       2.415   2.977  -0.021  0.00  0.00    -0.268 OA
ATOM      4  H   UNL d   1      -0.403   3.086   1.463  0.00  0.00     0.163 HD
ENDROOT
BRANCH   1   5
ATOM      5  C   UNL d   1       0.618   1.485  -0.304  0.00  0.00     0.065 A 
ATOM      6  C   UNL d   1       1.280   0.281  -0.570  0.00  0.00     0.085 A 
ATOM      7  N   UNL d   1       0.689  -0.720  -1.281  0.00  0.00    -0.360 N 
ATOM      8  C   UNL d   1      -0.565  -0.525  -1.740  0.00  0.00     0.089 A 
ATOM      9  HN  UNL d   1       1.182  -1.594  -1.462  1.00  0.00     0.166 HD
ATOM     10  C   UNL d   1      -1.300   0.618  -1.497  0.00  0.00     0.018 A 
ATOM     11  C   UNL d   1      -0.698   1.640  -0.772  0.00  0.00     0.021 A 
BRANCH   6  12
ATOM     12  S   UNL d   1       2.877  -0.127   0.128  0.00  0.00    -0.111 SA
BRANCH  12  13
ATOM     13  C   UNL d   1       3.512  -1.350  -1.075  0.00  0.00     0.080 C 
BRANCH  13  14
ATOM     14  C   UNL d   1       3.868  -0.782  -2.451  0.00  0.00     0.006 C 
ATOM     15  C   UNL d   1       4.905   0.333  -2.418  0.00  0.00     0.006 C 
ENDBRANCH  13  14
ENDBRANCH  12  13
ENDBRANCH   6  12
ENDBRANCH   1   5
BRANCH   2  16
ATOM     16  C   UNL d   1       0.961   4.697   1.667  0.00  0.00     0.161 C 
BRANCH  16  17
ATOM     17  C   UNL d   1       0.783   4.880   3.152  0.00  0.00    -0.038 A 
ATOM     18  C   UNL d   1      -0.486   4.790   3.749  0.00  0.00     0.048 A 
ATOM     19  C   UNL d   1      -0.584   5.005   5.108  0.00  0.00     0.105 A 
ATOM     20  O   UNL d   1      -1.730   4.954   5.839  0.00  0.00    -0.323 OA
ATOM     21  C   UNL d   1       0.513   5.312   5.877  0.00  0.00     0.105 A 
ATOM     22  C   UNL d   1      -1.224   5.253   7.157  0.00  0.00     0.352 A 
ATOM     23  O   UNL d   1       0.196   5.496   7.186  0.00  0.00    -0.323 OA
ATOM     24  C   UNL d   1       1.772   5.416   5.332  0.00  0.00     0.040 A 
ATOM     25  C   UNL d   1       1.905   5.194   3.957  0.00  0.00     0.012 A 
ENDBRANCH  16  17
ENDBRANCH   2  16
TORSDOF 6
