REMARK  4 active torsions:
REMARK  status: ('A' for Active; 'I' for Inactive)
REMARK    1  A    between atoms: C_7  and  C_1 
REMARK    2  A    between atoms: C_8  and  C_4 
REMARK    3  A    between atoms: C_11  and  C_6 
REMARK    4  A    between atoms: O_10  and  C_7 
ROOT
ATOM      1  C   UNL d   1       1.455   0.801  -0.056  0.00  0.00     0.122 A 
ATOM      2  N   UNL d   1       1.527  -0.605  -0.044  0.00  0.00    -0.344 N 
ATOM      3  HN  UNL d   1       2.396  -1.137  -0.009  1.00  0.00     0.167 HD
ATOM      4  C   UNL d   1       0.329  -1.144  -0.084  0.00  0.00     0.085 A 
ATOM      5  S   UNL d   1      -0.960  -0.010  -0.098  0.00  0.00    -0.074 SA
ATOM      6  C   UNL d   1       0.153   1.298  -0.057  0.00  0.00     0.017 A 
ENDROOT
BRANCH   4   7
ATOM      7  C   UNL d   1       0.042  -2.589  -0.068  0.00  0.00    -0.002 A 
ATOM      8  C   UNL d   1       0.899  -3.471   0.607  0.00  0.00     0.014 A 
ATOM      9  C   UNL d   1       0.621  -4.842   0.652  0.00  0.00     0.001 A 
ATOM     10  C   UNL d   1      -0.507  -5.351   0.013  0.00  0.00     0.000 A 
ATOM     11  C   UNL d   1      -1.359  -4.492  -0.676  0.00  0.00     0.001 A 
ATOM     12  C   UNL d   1      -1.085  -3.125  -0.717  0.00  0.00     0.014 A 
ENDBRANCH   4   7
BRANCH   1  13
ATOM     13  C   UNL d   1       2.687   1.610  -0.045  0.00  0.00     0.310 C 
ATOM     14  O   UNL d   1       2.690   2.839  -0.051  0.00  0.00    -0.258 OA
BRANCH  13  15
ATOM     15  O   UNL d   1       3.825   0.853  -0.035  0.00  0.00    -0.321 OA
ATOM     16  C   UNL d   1       5.041   1.608  -0.053  0.00  0.00     0.213 C 
ENDBRANCH  13  15
ENDBRANCH   1  13
BRANCH   6  17
ATOM     17  C   UNL d   1      -0.409   2.689   0.042  0.00  0.00     0.044 C 
ATOM     18  C   UNL d   1      -0.712   3.344  -1.298  0.00  0.00     0.010 C 
ENDBRANCH   6  17
TORSDOF 4
