REMARK  3 active torsions:
REMARK  status: ('A' for Active; 'I' for Inactive)
REMARK    1  A    between atoms: C_2  and  S_1 
REMARK    2  A    between atoms: C_13  and  S_1 
REMARK    3  A    between atoms: C_3  and  C_4 
ROOT
ATOM      1  C   UNL d   1       0.474  -0.899  -1.451  0.00  0.00     0.146 C 
ATOM      2  C   UNL d   1      -0.331  -1.974  -1.374  0.00  0.00     0.065 C 
ATOM      3  C   UNL d   1       1.010  -0.207  -0.336  0.00  0.00     0.112 C 
ATOM      4  N   UNL d   1       1.445   0.376   0.567  0.00  0.00    -0.191 NA
ENDROOT
BRANCH   1   5
ATOM      5  S   UNL d   1       0.844  -0.261  -3.019  0.00  0.00     0.216 S 
ATOM      6  O   UNL d   1       0.345   1.100  -3.107  0.00  0.00    -0.216 OA
ATOM      7  O   UNL d   1       0.481  -1.218  -4.052  0.00  0.00    -0.216 OA
BRANCH   5   8
ATOM      8  C   UNL d   1       2.627  -0.174  -3.043  0.00  0.00     0.065 A 
ATOM      9  C   UNL d   1       3.366  -1.299  -3.427  0.00  0.00     0.024 A 
ATOM     10  C   UNL d   1       4.755  -1.204  -3.533  0.00  0.00     0.002 A 
ATOM     11  C   UNL d   1       5.396   0.006  -3.263  0.00  0.00     0.000 A 
ATOM     12  C   UNL d   1       4.654   1.125  -2.883  0.00  0.00     0.002 A 
ATOM     13  C   UNL d   1       3.266   1.041  -2.775  0.00  0.00     0.024 A 
ENDBRANCH   5   8
ENDBRANCH   1   5
BRANCH   2  14
ATOM     14  C   UNL d   1      -0.619  -2.598  -0.138  0.00  0.00     0.040 A 
ATOM     15  N   UNL d   1      -1.701  -2.172   0.593  0.00  0.00    -0.359 N 
ATOM     16  C   UNL d   1      -1.746  -2.853   1.786  0.00  0.00     0.006 A 
ATOM     17  H   UNL d   1      -2.346  -1.440   0.323  0.00  0.00     0.166 HD
ATOM     18  C   UNL d   1      -2.751  -2.553   2.836  0.00  0.00     0.068 C 
ATOM     19  C   UNL d   1      -0.722  -3.776   1.773  0.00  0.00     0.033 A 
ATOM     20  C   UNL d   1      -0.007  -3.628   0.552  0.00  0.00    -0.033 A 
ATOM     21  C   UNL d   1       1.186  -4.415   0.143  0.00  0.00     0.050 C 
ENDBRANCH   2  14
TORSDOF 3
