REMARK  7 active torsions:
REMARK  status: ('A' for Active; 'I' for Inactive)
REMARK    1  A    between atoms: C_6  and  C_1 
REMARK    2  A    between atoms: C_16  and  N_2 
REMARK    3  A    between atoms: C_9  and  C_4 
REMARK       I    between atoms: N_7  and  C_6 
REMARK    4  A    between atoms: C_15  and  N_7 
REMARK    5  A    between atoms: C_8  and  C_15 
REMARK    6  A    between atoms: C_21  and  C_16 
REMARK    7  A    between atoms: S_18  and  C_21 
ROOT
ATOM      1  C   UNL d   1      -0.195   1.137   0.052  0.00  0.00     0.056 A 
ATOM      2  N   UNL d   1       1.010  -0.779   0.024  0.00  0.00    -0.348 N 
ATOM      3  C   UNL d   1       1.102   0.624   0.027  0.00  0.00     0.024 A 
ATOM      4  C   UNL d   1      -0.327  -1.173   0.122  0.00  0.00     0.046 A 
ATOM      5  C   UNL d   1      -1.054   0.002   0.126  0.00  0.00     0.049 A 
ATOM      6  C   UNL d   1       2.396   1.374   0.001  0.00  0.00     0.069 C 
ENDROOT
BRANCH   1   7
ATOM      7  C   UNL d   1      -0.737   2.507   0.015  0.00  0.00     0.254 C 
ATOM      8  N   UNL d   1       0.112   3.587  -0.033  0.00  0.00    -0.351 N 
ATOM      9  H   UNL d   1       1.113   3.500  -0.021  0.00  0.00     0.163 HD
ATOM     10  O   UNL d   1      -1.958   2.683   0.026  0.00  0.00    -0.268 OA
BRANCH   8  11
ATOM     11  C   UNL d   1      -0.474   4.912  -0.056  0.00  0.00     0.187 C 
BRANCH  11  12
ATOM     12  C   UNL d   1       0.532   6.010  -0.104  0.00  0.00     0.070 A 
ATOM     13  O   UNL d   1       1.860   5.695  -0.106  0.00  0.00    -0.325 OA
ATOM     14  C   UNL d   1       2.543   6.872  -0.151  0.00  0.00     0.142 A 
ATOM     15  C   UNL d   1       1.678   7.937  -0.178  0.00  0.00     0.027 A 
ATOM     16  C   UNL d   1       0.374   7.382  -0.147  0.00  0.00     0.036 A 
ENDBRANCH  11  12
ENDBRANCH   8  11
ENDBRANCH   1   7
BRANCH   2  17
ATOM     17  C   UNL d   1       2.149  -1.698  -0.032  0.00  0.00     0.139 C 
BRANCH  17  18
ATOM     18  C   UNL d   1       2.210  -2.590  -1.274  0.00  0.00     0.093 C 
BRANCH  18  19
ATOM     19  S   UNL d   1       3.708  -3.640  -1.181  0.00  0.00    -0.172 SA
ATOM     20  C   UNL d   1       3.454  -4.625  -2.676  0.00  0.00     0.089 C 
ENDBRANCH  18  19
ENDBRANCH  17  18
ENDBRANCH   2  17
BRANCH   4  21
ATOM     21  C   UNL d   1      -0.881  -2.548   0.086  0.00  0.00    -0.009 A 
ATOM     22  C   UNL d   1      -2.082  -2.789  -0.606  0.00  0.00     0.014 A 
ATOM     23  C   UNL d   1      -2.571  -4.088  -0.786  0.00  0.00     0.001 A 
ATOM     24  C   UNL d   1      -1.860  -5.174  -0.290  0.00  0.00     0.000 A 
ATOM     25  C   UNL d   1      -0.709  -4.953   0.459  0.00  0.00     0.001 A 
ATOM     26  C   UNL d   1      -0.256  -3.648   0.684  0.00  0.00     0.014 A 
ENDBRANCH   4  21
TORSDOF 7
