REMARK  1 active torsions:
REMARK  status: ('A' for Active; 'I' for Inactive)
REMARK    1  A    between atoms: C_8  and  C_4 
ROOT
ATOM      1  C   UNL d   1       1.327  -1.371   0.052  0.00  0.00     0.305 A 
ATOM      2  N   UNL d   1       1.182   1.425   0.042  0.00  0.00    -0.335 N 
ATOM      3  HN  UNL d   1       1.170   2.444   0.089  1.00  0.00     0.168 HD
ATOM      4  C   UNL d   1       2.289   0.762  -0.018  0.00  0.00     0.162 A 
ATOM      5  O   UNL d   1       2.426  -0.579  -0.021  0.00  0.00    -0.256 OA
ATOM      6  C   UNL d   1       0.022  -0.706   0.047  0.00  0.00     0.105 A 
ATOM      7  C   UNL d   1       0.005   0.681   0.040  0.00  0.00     0.053 A 
ATOM      8  O   UNL d   1       1.438  -2.591   0.094  0.00  0.00    -0.259 OA
ATOM      9  C   UNL d   1      -1.173  -1.421   0.027  0.00  0.00     0.135 A 
ATOM     10  F   UNL d   1      -1.190  -2.760   0.035  0.00  0.00    -0.205 F 
ATOM     11  C   UNL d   1      -1.221   1.353   0.001  0.00  0.00     0.031 A 
ATOM     12  C   UNL d   1      -2.421   0.640  -0.033  0.00  0.00     0.005 A 
ATOM     13  C   UNL d   1      -2.395  -0.752  -0.017  0.00  0.00     0.043 A 
ENDROOT
BRANCH   4  14
ATOM     14  C   UNL d   1       3.619   1.407  -0.070  0.00  0.00     0.016 A 
ATOM     15  C   UNL d   1       4.678   0.803  -0.762  0.00  0.00     0.022 A 
ATOM     16  C   UNL d   1       5.924   1.438  -0.843  0.00  0.00    -0.061 A 
ATOM     17  C   UNL d   1       7.046   0.824  -1.627  0.00  0.00     0.048 C 
ATOM     18  C   UNL d   1       6.104   2.671  -0.204  0.00  0.00     0.007 A 
ATOM     19  C   UNL d   1       5.049   3.275   0.484  0.00  0.00     0.002 A 
ATOM     20  C   UNL d   1       3.803   2.651   0.541  0.00  0.00     0.016 A 
ENDBRANCH   4  14
TORSDOF 1
