REMARK  6 active torsions:
REMARK  status: ('A' for Active; 'I' for Inactive)
REMARK       I    between atoms: N_6  and  C_1 
REMARK    1  A    between atoms: O_9  and  C_1 
REMARK    2  A    between atoms: C_2  and  C_8 
REMARK    3  A    between atoms: N_3  and  O_9 
REMARK    4  A    between atoms: C_8  and  C_5 
REMARK    5  A    between atoms: N_13  and  C_5 
REMARK    6  A    between atoms: C_11  and  N_6 
ROOT
ATOM      1  N   UNL d   1      -0.963   1.126  -0.088  0.00  0.00    -0.244 N 
ATOM      2  HN  UNL d   1       0.049   1.152   0.035  1.00  0.00     0.196 HD
ATOM      3  C   UNL d   1      -1.633   2.059  -0.689  0.00  0.00     0.100 C 
ENDROOT
BRANCH   3   4
ATOM      4  C   UNL d   1      -0.833   3.269  -1.180  0.00  0.00     0.117 C 
BRANCH   4   5
ATOM      5  C   UNL d   1      -0.842   4.454  -0.221  0.00  0.00    -0.040 A 
ATOM      6  C   UNL d   1      -0.693   5.795  -0.685  0.00  0.00    -0.019 A 
ATOM      7  C   UNL d   1      -0.745   6.856   0.259  0.00  0.00    -0.025 A 
ATOM      8  C   UNL d   1      -0.474   6.151  -2.039  0.00  0.00     0.013 A 
ATOM      9  C   UNL d   1      -0.622   8.190  -0.162  0.00  0.00     0.012 A 
ATOM     10  C   UNL d   1      -0.900   6.576   1.622  0.00  0.00     0.012 A 
ATOM     11  C   UNL d   1      -0.415   8.503  -1.503  0.00  0.00     0.001 A 
ATOM     12  C   UNL d   1      -0.334   7.483  -2.440  0.00  0.00     0.001 A 
ATOM     13  C   UNL d   1      -0.967   5.265   2.076  0.00  0.00     0.001 A 
ATOM     14  C   UNL d   1      -0.926   4.216   1.164  0.00  0.00     0.008 A 
ENDBRANCH   4   5
ENDBRANCH   3   4
BRANCH   3  15
ATOM     15  N   UNL d   1      -2.991   2.057  -0.895  0.00  0.00    -0.387 N 
ATOM     16  H   UNL d   1      -3.505   1.391  -0.333  0.00  0.00     0.157 HD
ATOM     17  H   UNL d   1      -3.439   2.962  -0.990  0.00  0.00     0.157 HD
ENDBRANCH   3  15
BRANCH   1  18
ATOM     18  O   UNL d   1      -1.778   0.071   0.378  0.00  0.00    -0.179 OA
BRANCH  18  19
ATOM     19  C   UNL d   1      -1.092  -1.112   0.190  0.00  0.00     0.387 C 
ATOM     20  N   UNL d   1      -1.424  -2.018   1.172  0.00  0.00    -0.301 N 
ATOM     21  H   UNL d   1      -2.144  -1.712   1.812  0.00  0.00     0.171 HD
ATOM     22  O   UNL d   1      -0.300  -1.292  -0.728  0.00  0.00    -0.236 OA
BRANCH  20  23
ATOM     23  C   UNL d   1      -0.790  -3.254   1.425  0.00  0.00     0.037 A 
ATOM     24  C   UNL d   1       0.333  -3.698   0.720  0.00  0.00     0.031 A 
ATOM     25  C   UNL d   1       0.945  -4.915   1.036  0.00  0.00     0.026 A 
ATOM     26  C   UNL d   1       0.434  -5.701   2.059  0.00  0.00     0.034 A 
ATOM     27  C   UNL d   1      -0.685  -5.276   2.776  0.00  0.00     0.026 A 
ATOM     28 CL   UNL d   1       1.187  -7.197   2.448  0.00  0.00    -0.084 Cl
ATOM     29  C   UNL d   1      -1.290  -4.052   2.461  0.00  0.00     0.031 A 
ENDBRANCH  20  23
ENDBRANCH  18  19
ENDBRANCH   1  18
TORSDOF 6
