REMARK  7 active torsions:
REMARK  status: ('A' for Active; 'I' for Inactive)
REMARK    1  A    between atoms: C_2  and  N_1 
REMARK    2  A    between atoms: N_3  and  C_6 
REMARK    3  A    between atoms: C_9  and  N_4 
REMARK    4  A    between atoms: C_5  and  C_9 
REMARK    5  A    between atoms: C_12  and  C_5 
REMARK    6  A    between atoms: C_26  and  C_23 
REMARK    7  A    between atoms: C_28  and  C_26 
ROOT
ATOM      1  N   UNL d   1      -2.190  -0.699  -4.640  0.00  0.00    -0.364 N 
ATOM      2  N   UNL d   1      -2.321  -1.369  -7.513  0.00  0.00     0.103 N 
ATOM      3  C   UNL d   1      -2.591  -2.045  -5.079  0.00  0.00     0.154 C 
ATOM      4  C   UNL d   1      -1.674  -0.123  -7.027  0.00  0.00     0.293 C 
ATOM      5  C   UNL d   1      -2.172   0.375  -5.652  0.00  0.00     0.154 C 
ATOM      6  C   UNL d   1      -2.051  -2.398  -6.478  0.00  0.00     0.293 C 
ENDROOT
BRANCH   2   7
ATOM      7  C   UNL d   1      -3.772  -1.167  -7.782  0.00  0.00     0.293 C 
ATOM      8  C   UNL d   1      -4.530  -2.430  -8.205  0.00  0.00     0.051 C 
BRANCH   7   9
ATOM      9  C   UNL d   1      -4.011  -0.067  -8.839  0.00  0.00     0.192 C 
ATOM     10  O   UNL d   1      -4.656   0.946  -8.551  0.00  0.00    -0.290 OA
BRANCH   9  11
ATOM     11  C   UNL d   1      -3.515  -0.217 -10.242  0.00  0.00     0.012 A 
ATOM     12  C   UNL d   1      -4.244   0.390 -11.271  0.00  0.00     0.016 A 
ATOM     13  C   UNL d   1      -3.824   0.269 -12.601  0.00  0.00     0.008 A 
ATOM     14  C   UNL d   1      -2.659  -0.441 -12.919  0.00  0.00    -0.058 A 
ATOM     15  C   UNL d   1      -1.910  -1.003 -11.880  0.00  0.00     0.008 A 
ATOM     16  C   UNL d   1      -2.341  -0.904 -10.557  0.00  0.00     0.016 A 
BRANCH  14  17
ATOM     17  C   UNL d   1      -2.200  -0.561 -14.354  0.00  0.00     0.042 C 
BRANCH  17  18
ATOM     18  C   UNL d   1      -1.965  -2.007 -14.839  0.00  0.00    -0.019 C 
ATOM     19  C   UNL d   1      -3.242  -2.851 -14.798  0.00  0.00     0.010 C 
ATOM     20  C   UNL d   1      -1.411  -1.985 -16.266  0.00  0.00     0.010 C 
ENDBRANCH  17  18
ENDBRANCH  14  17
ENDBRANCH   9  11
ENDBRANCH   7   9
ENDBRANCH   2   7
BRANCH   1  21
ATOM     21  C   UNL d   1      -1.274  -0.599  -3.605  0.00  0.00     0.103 A 
ATOM     22  C   UNL d   1      -1.245   0.567  -2.831  0.00  0.00     0.051 A 
ATOM     23  C   UNL d   1      -0.356   0.683  -1.765  0.00  0.00     0.041 A 
ATOM     24  C   UNL d   1       0.494  -0.381  -1.495  0.00  0.00     0.118 A 
ATOM     25  C   UNL d   1       0.414  -1.513  -2.289  0.00  0.00     0.125 A 
ATOM     26  N   UNL d   1      -0.454  -1.637  -3.324  0.00  0.00    -0.350 N 
ATOM     27  HN  UNL d   1      -0.488  -2.493  -3.877  1.00  0.00     0.166 HD
BRANCH  24  28
ATOM     28  N   UNL d   1       1.447  -0.317  -0.400  0.00  0.00    -0.114 N 
ATOM     29  O   UNL d   1       2.168  -1.306  -0.206  0.00  0.00    -0.532 OA
ATOM     30  O   UNL d   1       1.482   0.722   0.272  0.00  0.00    -0.532 OA
ENDBRANCH  24  28
ENDBRANCH   1  21
TORSDOF 7
