REMARK  4 active torsions:
REMARK  status: ('A' for Active; 'I' for Inactive)
REMARK    1  A    between atoms: N_3  and  C_1 
REMARK       I    between atoms: C_2  and  N_3 
REMARK    2  A    between atoms: C_11  and  C_2 
REMARK    3  A    between atoms: N_10  and  C_11 
REMARK    4  A    between atoms: C_14  and  N_10 
ROOT
ATOM      1  C   UNL d   1      -1.548  -4.183  -0.380  0.00  0.00     0.250 C 
ATOM      2  N   UNL d   1      -0.714  -3.503  -1.262  0.00  0.00    -0.326 N 
ATOM      3  O   UNL d   1      -2.410  -3.657   0.321  0.00  0.00    -0.271 OA
ATOM      4  H   UNL d   1      -0.188  -4.065  -1.917  0.00  0.00     0.169 HD
ENDROOT
BRANCH   1   5
ATOM      5  C   UNL d   1      -1.279  -5.699  -0.372  0.00  0.00     0.372 C 
BRANCH   5   6
ATOM      6  N   UNL d   1      -2.476  -6.432   0.047  0.00  0.00     0.096 N 
ATOM      7  H   UNL d   1      -3.271  -6.151  -0.525  0.00  0.00     0.317 HD
BRANCH   6   8
ATOM      8  C   UNL d   1      -2.322  -7.889   0.068  0.00  0.00     0.221 C 
ATOM      9  C   UNL d   1      -3.690  -8.534   0.364  0.00  0.00     0.035 C 
ATOM     10  C   UNL d   1      -4.187  -8.252   1.785  0.00  0.00     0.002 C 
ATOM     11  C   UNL d   1      -3.149  -8.615   2.844  0.00  0.00     0.000 C 
ATOM     12  C   UNL d   1      -1.780  -8.008   2.549  0.00  0.00     0.002 C 
ATOM     13  C   UNL d   1      -1.316  -8.357   1.134  0.00  0.00     0.035 C 
ENDBRANCH   6   8
ENDBRANCH   5   6
ENDBRANCH   1   5
BRANCH   2  14
ATOM     14  C   UNL d   1      -0.626  -2.103  -1.420  0.00  0.00     0.037 A 
ATOM     15  C   UNL d   1      -1.159  -1.186  -0.509  0.00  0.00     0.053 A 
ATOM     16  C   UNL d   1      -1.028   0.186  -0.735  0.00  0.00     0.037 A 
ATOM     17 CL   UNL d   1      -1.675   1.304   0.404  0.00  0.00    -0.084 Cl
ATOM     18  C   UNL d   1      -0.375   0.663  -1.867  0.00  0.00     0.048 A 
ATOM     19  C   UNL d   1       0.164  -0.249  -2.767  0.00  0.00     0.037 A 
ATOM     20  C   UNL d   1       0.054  -1.623  -2.545  0.00  0.00     0.053 A 
ATOM     21 CL   UNL d   1       0.972   0.322  -4.176  0.00  0.00    -0.084 Cl
ENDBRANCH   2  14
TORSDOF 4
