REMARK  3 active torsions:
REMARK  status: ('A' for Active; 'I' for Inactive)
REMARK    1  A    between atoms: N_3  and  C_1 
REMARK    2  A    between atoms: N_2  and  C_9 
REMARK       I    between atoms: C_4  and  N_3 
REMARK       I    between atoms: N_10  and  C_4 
REMARK    3  A    between atoms: C_16  and  N_10 
ROOT
ATOM      1  N   UNL d   1      -0.431  -2.844   0.449  0.00  0.00    -0.293 N 
ATOM      2  C   UNL d   1      -1.476  -3.622  -0.001  0.00  0.00     0.326 C 
ATOM      3  N   UNL d   1      -2.689  -2.944   0.097  0.00  0.00    -0.309 N 
ATOM      4  O   UNL d   1      -1.377  -4.754  -0.455  0.00  0.00    -0.247 OA
ATOM      5  H   UNL d   1      -0.626  -1.860   0.569  0.00  0.00     0.172 HD
ATOM      6  H   UNL d   1      -2.658  -1.952  -0.088  0.00  0.00     0.170 HD
ENDROOT
BRANCH   1   7
ATOM      7  C   UNL d   1       0.912  -3.197   0.493  0.00  0.00     0.126 A 
ATOM      8  N   UNL d   1       1.541  -4.431   0.509  0.00  0.00    -0.281 N 
ATOM      9  N   UNL d   1       2.897  -4.317   0.477  0.00  0.00    -0.308 N 
ATOM     10  C   UNL d   1       1.064  -5.765   0.784  0.00  0.00     0.179 C 
ATOM     11  C   UNL d   1       3.125  -3.010   0.534  0.00  0.00     0.111 A 
ATOM     12  HN  UNL d   1       3.585  -5.069   0.422  1.00  0.00     0.186 HD
ATOM     13  C   UNL d   1       1.939  -2.272   0.575  0.00  0.00     0.068 A 
ENDBRANCH   1   7
BRANCH   3  14
ATOM     14  C   UNL d   1      -3.946  -3.576  -0.035  0.00  0.00     0.038 A 
ATOM     15  C   UNL d   1      -4.135  -4.912   0.331  0.00  0.00     0.065 A 
ATOM     16  C   UNL d   1      -5.383  -5.517   0.147  0.00  0.00     0.105 A 
ATOM     17  C   UNL d   1      -6.456  -4.791  -0.385  0.00  0.00     0.036 A 
ATOM     18  C   UNL d   1      -6.276  -3.447  -0.710  0.00  0.00     0.005 A 
ATOM     19  C   UNL d   1      -5.030  -2.837  -0.522  0.00  0.00     0.030 A 
BRANCH  16  20
ATOM     20  N   UNL d   1      -5.561  -6.926   0.516  0.00  0.00    -0.116 N 
ATOM     21  O   UNL d   1      -4.589  -7.532   0.988  0.00  0.00    -0.532 OA
ATOM     22  O   UNL d   1      -6.686  -7.426   0.343  0.00  0.00    -0.532 OA
ENDBRANCH  16  20
ENDBRANCH   3  14
TORSDOF 3
