REMARK  8 active torsions:
REMARK  status: ('A' for Active; 'I' for Inactive)
REMARK    1  A    between atoms: N_5  and  C_1 
REMARK    2  A    between atoms: N_8  and  C_1 
REMARK    3  A    between atoms: N_2  and  N_5 
REMARK    4  A    between atoms: C_16  and  N_8 
REMARK    5  A    between atoms: C_12  and  C_10 
REMARK    6  A    between atoms: C_14  and  C_16 
REMARK    7  A    between atoms: C_18  and  C_14 
REMARK    8  A    between atoms: O_15  and  C_18 
ROOT
ATOM      1  N   UNL d   1      -1.147   0.987  -0.565  0.00  0.00    -0.309 N 
ATOM      2  HN  UNL d   1      -1.676   0.399   0.079  1.00  0.00     0.186 HD
ATOM      3  C   UNL d   1      -1.727   1.836  -1.351  0.00  0.00     0.118 C 
ENDROOT
BRANCH   1   4
ATOM      4  N   UNL d   1       0.214   0.925  -0.647  0.00  0.00    -0.277 N 
ATOM      5  H   UNL d   1       0.725   1.524  -1.291  0.00  0.00     0.189 HD
BRANCH   4   6
ATOM      6  C   UNL d   1       0.938   0.200   0.281  0.00  0.00     0.186 C 
ATOM      7  S   UNL d   1       2.601   0.273   0.284  0.00  0.00    -0.040 SA
BRANCH   6   8
ATOM      8  N   UNL d   1       0.139  -0.516   1.135  0.00  0.00    -0.366 N 
ATOM      9  H   UNL d   1      -0.839  -0.401   0.884  0.00  0.00     0.161 HD
BRANCH   8  10
ATOM     10  C   UNL d   1       0.469  -1.016   2.459  0.00  0.00     0.124 C 
BRANCH  10  11
ATOM     11  C   UNL d   1       0.154   0.011   3.547  0.00  0.00     0.046 C 
BRANCH  11  12
ATOM     12  C   UNL d   1      -1.340   0.311   3.644  0.00  0.00     0.168 C 
BRANCH  12  13
ATOM     13  O   UNL d   1      -1.566   1.215   4.725  0.00  0.00    -0.396 OA
ATOM     14  C   UNL d   1      -2.944   1.549   4.842  0.00  0.00     0.201 C 
ENDBRANCH  12  13
ENDBRANCH  11  12
ENDBRANCH  10  11
ENDBRANCH   8  10
ENDBRANCH   6   8
ENDBRANCH   4   6
ENDBRANCH   1   4
BRANCH   3  15
ATOM     15  C   UNL d   1      -3.198   1.986  -1.334  0.00  0.00    -0.018 A 
ATOM     16  C   UNL d   1      -3.960   1.221  -0.445  0.00  0.00     0.025 A 
ATOM     17  C   UNL d   1      -5.355   1.334  -0.422  0.00  0.00    -0.025 A 
ATOM     18  C   UNL d   1      -6.124   0.564   0.464  0.00  0.00     0.012 A 
ATOM     19  C   UNL d   1      -5.994   2.232  -1.307  0.00  0.00    -0.026 A 
ATOM     20  C   UNL d   1      -7.513   0.673   0.477  0.00  0.00     0.001 A 
ATOM     21  C   UNL d   1      -8.149   1.553  -0.396  0.00  0.00     0.001 A 
ATOM     22  C   UNL d   1      -7.395   2.328  -1.281  0.00  0.00     0.012 A 
ATOM     23  C   UNL d   1      -5.212   3.002  -2.188  0.00  0.00     0.013 A 
ATOM     24  C   UNL d   1      -3.818   2.884  -2.203  0.00  0.00     0.014 A 
ENDBRANCH   3  15
TORSDOF 8
