REMARK  7 active torsions:
REMARK  status: ('A' for Active; 'I' for Inactive)
REMARK    1  A    between atoms: N_2  and  S_1 
REMARK    2  A    between atoms: C_9  and  S_1 
REMARK    3  A    between atoms: C_3  and  N_2 
REMARK       I    between atoms: C_7  and  N_13 
REMARK       I    between atoms: N_15  and  C_7 
REMARK    4  A    between atoms: N_13  and  C_18 
REMARK    5  A    between atoms: C_22  and  N_15 
REMARK    6  A    between atoms: C_23  and  C_22 
REMARK    7  A    between atoms: C_24  and  C_23 
ROOT
ATOM      1  C   UNL d   1       0.456   0.449  -1.516  0.00  0.00     0.075 A 
ATOM      2  C   UNL d   1      -0.169  -0.491  -2.336  0.00  0.00     0.027 A 
ATOM      3  C   UNL d   1       0.557   1.779  -1.915  0.00  0.00     0.027 A 
ATOM      4  C   UNL d   1      -0.516   1.220  -4.030  0.00  0.00     0.036 A 
ATOM      5  C   UNL d   1      -0.651  -0.105  -3.594  0.00  0.00     0.031 A 
ATOM      6  C   UNL d   1       0.068   2.155  -3.168  0.00  0.00     0.031 A 
ENDROOT
BRANCH   1   7
ATOM      7  S   UNL d   1       1.091  -0.026   0.064  0.00  0.00     0.247 S 
ATOM      8  O   UNL d   1       1.139   1.150   0.908  0.00  0.00    -0.205 OA
ATOM      9  O   UNL d   1       0.395  -1.216   0.513  0.00  0.00    -0.205 OA
BRANCH   7  10
ATOM     10  N   UNL d   1       2.700  -0.410  -0.280  0.00  0.00    -0.165 NA
ATOM     11  H   UNL d   1       3.285  -0.003   0.446  0.00  0.00     0.147 HD
BRANCH  10  12
ATOM     12  C   UNL d   1       2.973  -1.714  -0.666  0.00  0.00     0.117 A 
ATOM     13  N   UNL d   1       2.848  -2.126  -1.929  0.00  0.00    -0.249 N 
ATOM     14  O   UNL d   1       3.202  -3.464  -1.920  0.00  0.00    -0.241 OA
ATOM     15  HN  UNL d   1       2.554  -1.571  -2.733  1.00  0.00     0.196 HD
ATOM     16  C   UNL d   1       3.524  -3.835  -0.652  0.00  0.00     0.075 A 
ATOM     17  C   UNL d   1       3.422  -2.746   0.178  0.00  0.00     0.079 A 
ATOM     18  C   UNL d   1       3.876  -5.251  -0.454  0.00  0.00     0.079 C 
ENDBRANCH  10  12
ENDBRANCH   7  10
ENDBRANCH   1   7
BRANCH   4  19
ATOM     19  N   UNL d   1      -0.965   1.541  -5.333  0.00  0.00    -0.309 N 
ATOM     20  C   UNL d   1      -0.825   2.760  -5.959  0.00  0.00     0.320 C 
ATOM     21  O   UNL d   1      -0.306   3.766  -5.490  0.00  0.00    -0.247 OA
ATOM     22  N   UNL d   1      -1.334   2.754  -7.245  0.00  0.00    -0.343 N 
ATOM     23  H   UNL d   1      -2.079   2.101  -7.428  0.00  0.00     0.164 HD
ATOM     24  H   UNL d   1      -1.316   0.781  -5.896  0.00  0.00     0.170 HD
BRANCH  22  25
ATOM     25  C   UNL d   1      -1.352   4.027  -7.944  0.00  0.00     0.124 C 
BRANCH  25  26
ATOM     26  C   UNL d   1      -1.912   3.960  -9.357  0.00  0.00     0.019 C 
BRANCH  26  27
ATOM     27  C   UNL d   1      -3.407   3.641  -9.378  0.00  0.00    -0.003 C 
ATOM     28  C   UNL d   1      -3.962   3.688 -10.792  0.00  0.00     0.005 C 
ENDBRANCH  26  27
ENDBRANCH  25  26
ENDBRANCH  22  25
ENDBRANCH   4  19
TORSDOF 7
