REMARK  2 active torsions:
REMARK  status: ('A' for Active; 'I' for Inactive)
REMARK    1  A    between atoms: C_7  and  C_1 
REMARK    2  A    between atoms: C_8  and  C_5 
ROOT
ATOM      1  C   UNL d   1      -0.169   1.033   0.053  0.00  0.00     0.158 A 
ATOM      2  N   UNL d   1      -1.280   0.322   0.099  0.00  0.00    -0.343 N 
ATOM      3  HN  UNL d   1      -2.241   0.659   0.161  1.00  0.00     0.167 HD
ATOM      4  O   UNL d   1       0.974   0.279  -0.022  0.00  0.00    -0.291 OA
ATOM      5  C   UNL d   1       0.533  -1.020  -0.029  0.00  0.00     0.103 A 
ATOM      6  C   UNL d   1      -0.843  -0.976   0.043  0.00  0.00     0.128 A 
ENDROOT
BRANCH   1   7
ATOM      7  C   UNL d   1      -0.010   2.485   0.074  0.00  0.00     0.015 A 
ATOM      8  C   UNL d   1      -1.145   3.299   0.215  0.00  0.00     0.016 A 
ATOM      9  C   UNL d   1      -1.033   4.691   0.236  0.00  0.00     0.001 A 
ATOM     10  C   UNL d   1       0.219   5.289   0.115  0.00  0.00     0.000 A 
ATOM     11  C   UNL d   1       1.356   4.497  -0.027  0.00  0.00     0.001 A 
ATOM     12  C   UNL d   1       1.244   3.103  -0.047  0.00  0.00     0.016 A 
ENDBRANCH   1   7
BRANCH   5  13
ATOM     13  C   UNL d   1       1.535  -2.074  -0.116  0.00  0.00    -0.001 A 
ATOM     14  C   UNL d   1       2.906  -1.779  -0.149  0.00  0.00     0.014 A 
ATOM     15  C   UNL d   1       3.858  -2.798  -0.247  0.00  0.00     0.001 A 
ATOM     16  C   UNL d   1       3.453  -4.129  -0.311  0.00  0.00     0.000 A 
ATOM     17  C   UNL d   1       2.097  -4.441  -0.272  0.00  0.00     0.001 A 
ATOM     18  C   UNL d   1       1.146  -3.421  -0.174  0.00  0.00     0.014 A 
ENDBRANCH   5  13
TORSDOF 2
