REMARK  5 active torsions:
REMARK  status: ('A' for Active; 'I' for Inactive)
REMARK    1  A    between atoms: C_15  and  C_1 
REMARK    2  A    between atoms: C_9  and  C_3 
REMARK    3  A    between atoms: N_13  and  C_7 
REMARK       I    between atoms: C_11  and  N_14 
REMARK    4  A    between atoms: C_16  and  C_11 
REMARK    5  A    between atoms: O_30  and  C_15 
ROOT
ATOM      1  C   UNL d   1      -0.183  -0.274  -2.326  0.00  0.00     0.074 A 
ATOM      2  C   UNL d   1       0.618  -0.086  -1.141  0.00  0.00     0.068 A 
ATOM      3  C   UNL d   1       0.493  -0.134   1.288  0.00  0.00     0.070 A 
ATOM      4  C   UNL d   1      -0.122  -0.274   0.035  0.00  0.00     0.047 A 
ATOM      5  N   UNL d   1       1.944   0.232  -1.117  0.00  0.00    -0.341 N 
ATOM      6  HN  UNL d   1       2.469   0.345  -1.985  1.00  0.00     0.167 HD
ATOM      7  C   UNL d   1       2.540   0.393   0.067  0.00  0.00     0.104 A 
ATOM      8  S   UNL d   1      -1.754  -0.678  -0.323  0.00  0.00    -0.098 SA
ATOM      9  C   UNL d   1      -1.486  -0.600  -1.994  0.00  0.00     0.070 A 
ATOM     10  C   UNL d   1       1.850   0.207   1.257  0.00  0.00     0.066 A 
ENDROOT
BRANCH   7  11
ATOM     11  N   UNL d   1       3.897   0.660   0.143  0.00  0.00    -0.364 N 
ATOM     12  C   UNL d   1       4.760   0.435  -1.022  0.00  0.00     0.144 C 
ATOM     13  C   UNL d   1       6.171   0.065  -0.498  0.00  0.00     0.146 C 
ATOM     14  N   UNL d   1       6.688   1.033   0.495  0.00  0.00    -0.344 N 
ATOM     15  C   UNL d   1       8.028   1.433   0.411  0.00  0.00     0.260 C 
ATOM     16  C   UNL d   1       5.736   1.406   1.553  0.00  0.00     0.146 C 
ATOM     17  O   UNL d   1       8.722   1.048  -0.530  0.00  0.00    -0.267 OA
ATOM     18  C   UNL d   1       4.355   1.770   0.987  0.00  0.00     0.144 C 
BRANCH  15  19
ATOM     19  C   UNL d   1       8.563   2.334   1.429  0.00  0.00     0.072 A 
ATOM     20  S   UNL d   1       9.565   3.631   0.907  0.00  0.00    -0.097 SA
ATOM     21  C   UNL d   1       9.751   4.226   2.497  0.00  0.00     0.050 A 
ATOM     22  C   UNL d   1       9.097   3.443   3.420  0.00  0.00     0.009 A 
ATOM     23  C   UNL d   1       8.454   2.325   2.810  0.00  0.00     0.025 A 
ENDBRANCH  15  19
ENDBRANCH   7  11
BRANCH   3  24
ATOM     24  C   UNL d   1      -0.148  -0.333   2.633  0.00  0.00     0.418 C 
ATOM     25  F   UNL d   1      -1.472  -0.633   2.615  0.00  0.00    -0.166 F 
ATOM     26  F   UNL d   1       0.452  -1.335   3.337  0.00  0.00    -0.166 F 
ATOM     27  F   UNL d   1      -0.031   0.778   3.416  0.00  0.00    -0.166 F 
ENDBRANCH   3  24
BRANCH   1  28
ATOM     28  C   UNL d   1       0.215  -0.165  -3.727  0.00  0.00     0.295 C 
ATOM     29  O   UNL d   1      -0.575  -0.355  -4.649  0.00  0.00    -0.259 OA
BRANCH  28  30
ATOM     30  O   UNL d   1       1.519   0.172  -3.915  0.00  0.00    -0.322 OA
ATOM     31  C   UNL d   1       1.896   0.284  -5.287  0.00  0.00     0.213 C 
ENDBRANCH  28  30
ENDBRANCH   1  28
TORSDOF 5
