REMARK  4 active torsions:
REMARK  status: ('A' for Active; 'I' for Inactive)
REMARK    1  A    between atoms: C_2  and  C_1 
REMARK    2  A    between atoms: C_15  and  C_10 
REMARK    3  A    between atoms: O_12  and  C_15 
REMARK    4  A    between atoms: C_13  and  O_12 
ROOT
ATOM      1  C   UNL d   1       3.610   0.118   0.070  0.00  0.00     0.057 A 
ATOM      2  N   UNL d   1       4.295   0.868   1.014  0.00  0.00    -0.351 N 
ATOM      3  HN  UNL d   1       3.851   1.424   1.745  1.00  0.00     0.166 HD
ATOM      4  C   UNL d   1       4.429  -0.533  -0.832  0.00  0.00     0.082 A 
ATOM      5  C   UNL d   1       5.595   0.764   0.839  0.00  0.00     0.075 A 
ATOM      6  S   UNL d   1       6.077  -0.223  -0.484  0.00  0.00    -0.084 SA
ENDROOT
BRANCH   1   7
ATOM      7  C   UNL d   1       2.099   0.035   0.047  0.00  0.00     0.039 A 
ATOM      8  S   UNL d   1       1.267  -0.917  -1.109  0.00  0.00    -0.087 SA
ATOM      9  C   UNL d   1      -0.272  -0.537  -0.468  0.00  0.00     0.016 A 
ATOM     10  C   UNL d   1      -1.519  -1.007  -0.928  0.00  0.00     0.019 A 
ATOM     11  C   UNL d   1      -0.166   0.330   0.617  0.00  0.00    -0.012 A 
ATOM     12  C   UNL d   1      -2.682  -0.592  -0.278  0.00  0.00     0.001 A 
ATOM     13  C   UNL d   1      -2.611   0.270   0.806  0.00  0.00     0.001 A 
ATOM     14  C   UNL d   1      -1.370   0.732   1.255  0.00  0.00     0.013 A 
ATOM     15  C   UNL d   1       1.220   0.677   0.911  0.00  0.00    -0.031 A 
ATOM     16  C   UNL d   1       1.556   1.605   2.040  0.00  0.00     0.050 C 
ENDBRANCH   1   7
BRANCH   5  17
ATOM     17  C   UNL d   1       6.629   1.476   1.662  0.00  0.00     0.240 C 
BRANCH  17  18
ATOM     18  O   UNL d   1       7.153   0.531   2.600  0.00  0.00    -0.343 OA
BRANCH  18  19
ATOM     19  C   UNL d   1       8.065   1.049   3.486  0.00  0.00     0.090 A 
ATOM     20  C   UNL d   1       7.998   0.641   4.826  0.00  0.00     0.067 A 
ATOM     21 CL   UNL d   1       6.749  -0.412   5.385  0.00  0.00    -0.081 Cl
ATOM     22  C   UNL d   1       8.945   1.091   5.752  0.00  0.00     0.026 A 
ATOM     23  C   UNL d   1       9.971   1.943   5.342  0.00  0.00     0.002 A 
ATOM     24  C   UNL d   1      10.053   2.339   4.010  0.00  0.00     0.003 A 
ATOM     25  C   UNL d   1       9.108   1.889   3.083  0.00  0.00     0.038 A 
ENDBRANCH  18  19
ENDBRANCH  17  18
ENDBRANCH   5  17
TORSDOF 4
