REMARK  3 active torsions:
REMARK  status: ('A' for Active; 'I' for Inactive)
REMARK    1  A    between atoms: C_7  and  C_1 
REMARK    2  A    between atoms: C_8  and  C_2 
REMARK    3  A    between atoms: S_9  and  C_5 
ROOT
ATOM      1  C   UNL d   1      -0.167  -1.262   0.063  0.00  0.00     0.080 A 
ATOM      2  C   UNL d   1       1.118  -0.751  -0.011  0.00  0.00     0.116 A 
ATOM      3  N   UNL d   1      -1.082  -0.230   0.050  0.00  0.00    -0.328 N 
ATOM      4  HN  UNL d   1      -2.100  -0.293   0.062  1.00  0.00     0.168 HD
ATOM      5  C   UNL d   1      -0.336   0.854   0.018  0.00  0.00     0.185 A 
ATOM      6  O   UNL d   1       1.008   0.616  -0.011  0.00  0.00    -0.285 OA
ENDROOT
BRANCH   1   7
ATOM      7  C   UNL d   1      -0.547  -2.661   0.107  0.00  0.00    -0.006 A 
ATOM      8  C   UNL d   1       0.187  -3.597   0.852  0.00  0.00     0.014 A 
ATOM      9  C   UNL d   1      -0.127  -4.955   0.793  0.00  0.00     0.001 A 
ATOM     10  C   UNL d   1      -1.200  -5.388   0.019  0.00  0.00     0.000 A 
ATOM     11  C   UNL d   1      -1.972  -4.461  -0.680  0.00  0.00     0.001 A 
ATOM     12  C   UNL d   1      -1.650  -3.103  -0.633  0.00  0.00     0.014 A 
ENDBRANCH   1   7
BRANCH   2  13
ATOM     13  C   UNL d   1       2.469  -1.284  -0.104  0.00  0.00     0.000 A 
ATOM     14  C   UNL d   1       2.736  -2.438  -0.856  0.00  0.00     0.014 A 
ATOM     15  C   UNL d   1       4.013  -3.001  -0.874  0.00  0.00     0.001 A 
ATOM     16  C   UNL d   1       5.046  -2.401  -0.161  0.00  0.00     0.000 A 
ATOM     17  C   UNL d   1       4.807  -1.233   0.560  0.00  0.00     0.001 A 
ATOM     18  C   UNL d   1       3.526  -0.675   0.587  0.00  0.00     0.014 A 
ENDBRANCH   2  13
BRANCH   5  19
ATOM     19  S   UNL d   1      -1.004   2.455   0.007  0.00  0.00    -0.099 SA
ATOM     20  H   UNL d   1      -2.286   2.068   0.022  0.00  0.00     0.110 HD
ENDBRANCH   5  19
TORSDOF 3
