REMARK  3 active torsions:
REMARK  status: ('A' for Active; 'I' for Inactive)
REMARK    1  A    between atoms: C_2  and  C_1 
REMARK    2  A    between atoms: O_15  and  C_1 
REMARK    3  A    between atoms: C_11  and  C_7 
ROOT
ATOM      1  C   UNL d   1      -0.523   0.575   1.287  0.00  0.00     0.233 C 
ATOM      2  N   UNL d   1      -0.925   0.181  -0.071  0.00  0.00    -0.198 NA
ATOM      3  N   UNL d   1      -0.079  -0.722  -0.622  0.00  0.00    -0.322 N 
ATOM      4  HN  UNL d   1      -0.261  -1.325  -1.424  1.00  0.00     0.180 HD
ATOM      5  C   UNL d   1       0.984   0.343   1.197  0.00  0.00     0.124 C 
ATOM      6  C   UNL d   1       1.012  -0.664   0.079  0.00  0.00     0.035 C 
ATOM      7  H   UNL d   1      -1.895  -0.129  -0.113  0.00  0.00     0.150 HD
ENDROOT
BRANCH   6   8
ATOM      8  C   UNL d   1       2.211  -1.495  -0.198  0.00  0.00    -0.012 A 
ATOM      9  C   UNL d   1       2.161  -2.393  -1.275  0.00  0.00     0.023 A 
ATOM     10  C   UNL d   1       3.274  -3.172  -1.536  0.00  0.00    -0.021 A 
ATOM     11  C   UNL d   1       3.476  -4.170  -2.606  0.00  0.00     0.073 A 
ATOM     12  C   UNL d   1       4.411  -3.074  -0.758  0.00  0.00     0.075 A 
ATOM     13  C   UNL d   1       4.896  -4.652  -2.271  0.00  0.00     0.129 A 
ATOM     14  C   UNL d   1       5.846  -4.498  -3.453  0.00  0.00     0.040 C 
ATOM     15  O   UNL d   1       5.428  -3.898  -1.151  0.00  0.00    -0.345 OA
ATOM     16  C   UNL d   1       4.489  -2.202   0.309  0.00  0.00     0.038 A 
ATOM     17  C   UNL d   1       3.375  -1.401   0.590  0.00  0.00     0.016 A 
ENDBRANCH   6   8
BRANCH   1  18
ATOM     18  C   UNL d   1      -0.870   2.044   1.690  0.00  0.00     0.434 C 
ATOM     19  F   UNL d   1      -1.400   2.757   0.671  0.00  0.00    -0.166 F 
ATOM     20  F   UNL d   1      -1.805   2.039   2.681  0.00  0.00    -0.166 F 
ATOM     21  F   UNL d   1       0.199   2.728   2.158  0.00  0.00    -0.166 F 
ENDBRANCH   1  18
BRANCH   1  22
ATOM     22  O   UNL d   1      -1.050  -0.382   2.224  0.00  0.00    -0.366 OA
ATOM     23  H   UNL d   1      -1.955  -0.094   2.438  0.00  0.00     0.212 HD
ENDBRANCH   1  22
TORSDOF 3
