REMARK  0 active torsions:
REMARK  status: ('A' for Active; 'I' for Inactive)
ROOT
ATOM      1  C   UNL d   1      -0.697   0.291  -1.028  0.00  0.00     0.065 C 
ATOM      2  C   UNL d   1      -0.624  -1.054   0.983  0.00  0.00     0.065 A 
ATOM      3  C   UNL d   1      -1.334  -0.946  -0.426  0.00  0.00     0.136 C 
ATOM      4  C   UNL d   1      -0.377   0.419   1.403  0.00  0.00     0.007 A 
ATOM      5  C   UNL d   1       1.138   0.242   1.211  0.00  0.00     0.000 A 
ATOM      6  C   UNL d   1      -0.783   1.281   0.174  0.00  0.00     0.003 C 
ATOM      7  C   UNL d   1       0.854   0.086  -1.167  0.00  0.00     0.002 C 
ATOM      8  C   UNL d   1       1.412   1.044  -0.084  0.00  0.00    -0.004 C 
ATOM      9  C   UNL d   1       0.925  -1.237   0.828  0.00  0.00     0.002 A 
ATOM     10  C   UNL d   1       1.349  -1.276  -0.647  0.00  0.00     0.011 C 
ATOM     11  C   UNL d   1       0.417   2.189  -0.022  0.00  0.00     0.011 C 
ATOM     12  O   UNL d   1      -2.158  -1.657  -0.973  0.00  0.00    -0.297 OA
ENDROOT
TORSDOF 0
