REMARK  2 active torsions:
REMARK  status: ('A' for Active; 'I' for Inactive)
REMARK    1  A    between atoms: C_7  and  C_3 
REMARK    2  A    between atoms: C_12  and  C_4 
ROOT
ATOM      1  N   UNL d   1      -1.047  -2.398  -3.406  0.00  0.00    -0.197 NA
ATOM      2  C   UNL d   1      -0.631  -2.433  -2.313  0.00  0.00     0.065 C 
ATOM      3  C   UNL d   1      -0.133  -2.510  -0.921  0.00  0.00     0.188 C 
ENDROOT
BRANCH   3   4
ATOM      4  C   UNL d   1       0.178  -1.131  -0.413  0.00  0.00     0.064 A 
ATOM      5  N   UNL d   1       1.354  -0.541  -0.510  0.00  0.00    -0.352 N 
ATOM      6  C   UNL d   1       1.304   0.737   0.037  0.00  0.00     0.049 A 
ATOM      7  HN  UNL d   1       2.184  -0.962  -0.927  1.00  0.00     0.166 HD
ATOM      8  C   UNL d   1       0.070   1.096   0.545  0.00  0.00     0.081 A 
ATOM      9  S   UNL d   1      -1.042  -0.195   0.367  0.00  0.00    -0.085 SA
BRANCH   6  10
ATOM     10  C   UNL d   1       2.471   1.616   0.038  0.00  0.00    -0.006 A 
ATOM     11  C   UNL d   1       2.681   2.555   1.058  0.00  0.00     0.053 A 
ATOM     12  C   UNL d   1       3.793   3.405   1.037  0.00  0.00     0.102 A 
ATOM     13  O   UNL d   1       3.850   4.304   2.074  0.00  0.00    -0.348 OA
ATOM     14  C   UNL d   1       4.745   3.285   0.015  0.00  0.00     0.102 A 
ATOM     15  C   UNL d   1       4.375   5.576   1.692  0.00  0.00     0.178 C 
ATOM     16  C   UNL d   1       5.892   5.589   1.766  0.00  0.00     0.053 C 
ATOM     17  C   UNL d   1       6.498   4.330   1.170  0.00  0.00     0.178 C 
ATOM     18  O   UNL d   1       5.902   4.016  -0.089  0.00  0.00    -0.348 OA
ATOM     19  C   UNL d   1       4.532   2.364  -1.013  0.00  0.00     0.040 A 
ATOM     20  C   UNL d   1       3.408   1.531  -0.999  0.00  0.00     0.017 A 
ENDBRANCH   6  10
ENDBRANCH   3   4
TORSDOF 2
