REMARK  2 active torsions:
REMARK  status: ('A' for Active; 'I' for Inactive)
REMARK    1  A    between atoms: S_9  and  C_4 
REMARK    2  A    between atoms: C_14  and  S_9 
ROOT
ATOM      1  C   UNL d   1      -0.274  -0.745   0.042  0.00  0.00     0.082 A 
ATOM      2  C   UNL d   1      -1.678  -1.151   0.026  0.00  0.00     0.262 A 
ATOM      3  N   UNL d   1      -2.409  -0.003  -0.039  0.00  0.00    -0.289 N 
ATOM      4  C   UNL d   1       0.909  -1.435   0.066  0.00  0.00     0.091 A 
ATOM      5  C   UNL d   1      -0.247   0.637  -0.005  0.00  0.00     0.052 A 
ATOM      6  C   UNL d   1      -1.628   1.107  -0.053  0.00  0.00     0.259 A 
ATOM      7  N   UNL d   1       2.092  -0.756   0.047  0.00  0.00    -0.353 N 
ATOM      8  HN  UNL d   1       2.975  -1.266   0.069  1.00  0.00     0.166 HD
ATOM      9  C   UNL d   1       0.924   1.360  -0.029  0.00  0.00     0.042 A 
ATOM     10  O   UNL d   1      -2.110  -2.284   0.073  0.00  0.00    -0.267 OA
ATOM     11  C   UNL d   1       2.090   0.611  -0.001  0.00  0.00     0.007 A 
ATOM     12  O   UNL d   1      -1.969   2.272  -0.098  0.00  0.00    -0.267 OA
ATOM     13  C   UNL d   1       3.430   1.283  -0.065  0.00  0.00     0.068 C 
ATOM     14  H   UNL d   1      -3.416   0.020  -0.066  0.00  0.00     0.172 HD
ENDROOT
BRANCH   4  15
ATOM     15  S   UNL d   1       1.018  -3.204   0.027  0.00  0.00    -0.072 SA
BRANCH  15  16
ATOM     16  C   UNL d   1       1.020  -3.598   1.764  0.00  0.00     0.007 A 
ATOM     17  C   UNL d   1      -0.030  -4.350   2.306  0.00  0.00     0.020 A 
ATOM     18  C   UNL d   1      -0.016  -4.716   3.656  0.00  0.00     0.025 A 
ATOM     19  C   UNL d   1       1.051  -4.331   4.465  0.00  0.00     0.034 A 
ATOM     20  C   UNL d   1       2.103  -3.587   3.937  0.00  0.00     0.025 A 
ATOM     21 CL   UNL d   1       1.075  -4.785   6.125  0.00  0.00    -0.084 Cl
ATOM     22  C   UNL d   1       2.089  -3.223   2.586  0.00  0.00     0.020 A 
ENDBRANCH  15  16
ENDBRANCH   4  15
TORSDOF 2
