REMARK  3 active torsions:
REMARK  status: ('A' for Active; 'I' for Inactive)
REMARK    1  A    between atoms: C_7  and  C_2 
REMARK    2  A    between atoms: O_14  and  C_3 
REMARK    3  A    between atoms: O_15  and  C_7 
ROOT
ATOM      1  C   UNL d   1       0.016  -0.729   0.000  0.00  0.00     0.027 A 
ATOM      2  C   UNL d   1       2.466  -0.726  -0.001  0.00  0.00     0.087 A 
ATOM      3  C   UNL d   1       1.249  -1.417   0.000  0.00  0.00     0.096 A 
ATOM      4  C   UNL d   1       0.044   0.683  -0.001  0.00  0.00     0.051 A 
ATOM      5  N   UNL d   1       1.217   1.350  -0.003  0.00  0.00    -0.364 N 
ATOM      6  HN  UNL d   1       1.228   2.370  -0.004  1.00  0.00     0.165 HD
ATOM      7  C   UNL d   1       2.381   0.652  -0.003  0.00  0.00     0.109 A 
ATOM      8  C   UNL d   1      -1.177   1.377  -0.000  0.00  0.00    -0.033 A 
ATOM      9  C   UNL d   1      -1.221  -1.409   0.001  0.00  0.00     0.040 A 
ATOM     10  C   UNL d   1      -2.401   0.682   0.001  0.00  0.00     0.033 A 
ATOM     11  C   UNL d   1      -2.417  -0.705   0.002  0.00  0.00     0.035 A 
ATOM     12 CL   UNL d   1      -3.914  -1.549   0.002  0.00  0.00    -0.084 Cl
ATOM     13  C   UNL d   1      -1.232   2.883  -0.002  0.00  0.00     0.050 C 
ENDROOT
BRANCH   2  14
ATOM     14  C   UNL d   1       3.748  -1.473  -0.001  0.00  0.00     0.180 C 
ATOM     15  O   UNL d   1       3.746  -2.698  -0.000  0.00  0.00    -0.646 OA
BRANCH  14  16
ATOM     16  O   UNL d   1       4.898  -0.775  -0.001  0.00  0.00    -0.773 OA
ATOM     17  H   UNL d   1       4.884   0.196  -0.002  0.00  0.00     0.167 HD
ENDBRANCH  14  16
ENDBRANCH   2  14
BRANCH   3  18
ATOM     18  O   UNL d   1       1.195  -2.796   0.001  0.00  0.00    -0.359 OA
ATOM     19  H   UNL d   1       2.109  -3.162   0.001  0.00  0.00     0.217 HD
ENDBRANCH   3  18
TORSDOF 3
