REMARK  9 active torsions:
REMARK  status: ('A' for Active; 'I' for Inactive)
REMARK    1  A    between atoms: C_2  and  S_1 
REMARK    2  A    between atoms: C_9  and  S_1 
REMARK    3  A    between atoms: C_6  and  C_2 
REMARK    4  A    between atoms: C_3  and  C_7 
REMARK    5  A    between atoms: C_4  and  C_8 
REMARK    6  A    between atoms: N_13  and  C_5 
REMARK    7  A    between atoms: O_26  and  C_6 
REMARK    8  A    between atoms: C_14  and  N_13 
REMARK    9  A    between atoms: C_31  and  O_26 
ROOT
ATOM      1  C   UNL d   1       0.518  -0.843  -1.539  0.00  0.00     0.154 C 
ATOM      2  C   UNL d   1      -0.246  -1.949  -1.418  0.00  0.00     0.118 C 
ENDROOT
BRANCH   2   3
ATOM      3  N   UNL d   1      -0.733  -2.557  -0.279  0.00  0.00    -0.364 N 
ATOM      4  H   UNL d   1      -0.523  -2.085   0.602  0.00  0.00     0.165 HD
BRANCH   3   5
ATOM      5  C   UNL d   1      -1.276  -3.845  -0.135  0.00  0.00     0.033 A 
ATOM      6  C   UNL d   1      -1.047  -4.879  -1.049  0.00  0.00     0.045 A 
ATOM      7  C   UNL d   1      -1.614  -6.155  -0.871  0.00  0.00     0.050 A 
ATOM      8  C   UNL d   1      -2.475  -6.375   0.215  0.00  0.00     0.032 A 
ATOM      9  C   UNL d   1      -2.751  -5.348   1.127  0.00  0.00     0.050 A 
ATOM     10  C   UNL d   1      -2.142  -4.094   0.942  0.00  0.00     0.045 A 
BRANCH   7  11
ATOM     11  C   UNL d   1      -1.263  -7.269  -1.828  0.00  0.00     0.417 C 
ATOM     12  F   UNL d   1      -1.855  -8.457  -1.519  0.00  0.00    -0.166 F 
ATOM     13  F   UNL d   1      -1.622  -6.993  -3.110  0.00  0.00    -0.166 F 
ATOM     14  F   UNL d   1       0.076  -7.518  -1.857  0.00  0.00    -0.166 F 
ENDBRANCH   7  11
BRANCH   9  15
ATOM     15  C   UNL d   1      -3.673  -5.571   2.303  0.00  0.00     0.417 C 
ATOM     16  F   UNL d   1      -4.190  -6.829   2.357  0.00  0.00    -0.166 F 
ATOM     17  F   UNL d   1      -3.046  -5.372   3.495  0.00  0.00    -0.166 F 
ATOM     18  F   UNL d   1      -4.741  -4.727   2.295  0.00  0.00    -0.166 F 
ENDBRANCH   9  15
ENDBRANCH   3   5
ENDBRANCH   2   3
BRANCH   1  19
ATOM     19  S   UNL d   1       0.827  -0.227  -3.131  0.00  0.00     0.214 S 
ATOM     20  O   UNL d   1       0.222   1.088  -3.278  0.00  0.00    -0.217 OA
ATOM     21  O   UNL d   1       0.520  -1.249  -4.119  0.00  0.00    -0.217 OA
BRANCH  19  22
ATOM     22  C   UNL d   1       2.604  -0.004  -3.236  0.00  0.00     0.064 A 
ATOM     23  C   UNL d   1       3.399  -1.052  -3.717  0.00  0.00     0.025 A 
ATOM     24  C   UNL d   1       4.764  -0.842  -3.938  0.00  0.00     0.025 A 
ATOM     25  C   UNL d   1       5.326   0.410  -3.681  0.00  0.00     0.034 A 
ATOM     26  C   UNL d   1       4.536   1.455  -3.204  0.00  0.00     0.025 A 
ATOM     27 CL   UNL d   1       7.000   0.672  -3.981  0.00  0.00    -0.084 Cl
ATOM     28  C   UNL d   1       3.169   1.254  -2.994  0.00  0.00     0.025 A 
ENDBRANCH  19  22
ENDBRANCH   1  19
BRANCH   1  29
ATOM     29  C   UNL d   1       1.080  -0.087  -0.411  0.00  0.00     0.306 C 
ATOM     30  O   UNL d   1       1.510   1.052  -0.485  0.00  0.00    -0.258 OA
BRANCH  29  31
ATOM     31  O   UNL d   1       1.187  -0.882   0.689  0.00  0.00    -0.317 OA
BRANCH  31  32
ATOM     32  C   UNL d   1       2.162  -0.463   1.656  0.00  0.00     0.174 C 
ATOM     33  C   UNL d   1       3.522  -0.972   1.207  0.00  0.00     0.034 C 
ENDBRANCH  31  32
ENDBRANCH  29  31
ENDBRANCH   1  29
TORSDOF 9
