REMARK  4 active torsions:
REMARK  status: ('A' for Active; 'I' for Inactive)
REMARK    1  A    between atoms: N_2  and  C_1 
REMARK    2  A    between atoms: C_3  and  O_11 
REMARK    3  A    between atoms: C_5  and  C_12 
REMARK    4  A    between atoms: O_11  and  C_7 
ROOT
ATOM      1  O   UNL d   1       1.176  -2.473   0.391  0.00  0.00    -0.307 OA
ENDROOT
BRANCH   1   2
ATOM      2  C   UNL d   1       2.542  -2.666   0.266  0.00  0.00     0.090 C 
ATOM      3  C   UNL d   1       3.557  -1.678   0.372  0.00  0.00     0.026 C 
ATOM      4  C   UNL d   1       4.844  -2.050  -0.068  0.00  0.00     0.067 C 
ATOM      5  C   UNL d   1       3.366  -0.360   0.869  0.00  0.00     0.017 C 
ATOM      6  C   UNL d   1       5.810  -1.039  -0.194  0.00  0.00     0.061 C 
ATOM      7  N   UNL d   1       5.143  -3.338  -0.363  0.00  0.00    -0.358 N 
ATOM      8 CL   UNL d   1       7.374  -1.386  -0.862  0.00  0.00    -0.082 Cl
ATOM      9  C   UNL d   1       5.566   0.284   0.189  0.00  0.00     0.026 C 
ATOM     10  C   UNL d   1       4.351   0.615   0.763  0.00  0.00     0.003 C 
ATOM     11  C   UNL d   1       4.194  -4.292  -0.281  0.00  0.00     0.008 C 
ATOM     12  HN  UNL d   1       6.090  -3.587  -0.649  1.00  0.00     0.166 HD
ATOM     13  C   UNL d   1       2.876  -3.989  -0.016  0.00  0.00     0.062 C 
ATOM     14  C   UNL d   1       4.623  -5.710  -0.505  0.00  0.00     0.068 C 
ENDBRANCH   1   2
BRANCH   1  15
ATOM     15  C   UNL d   1       0.599  -1.280   0.025  0.00  0.00     0.109 C 
ATOM     16  C   UNL d   1       0.865  -0.513  -1.117  0.00  0.00     0.137 C 
ATOM     17  C   UNL d   1       0.370   0.800  -1.234  0.00  0.00     0.055 C 
ATOM     18  C   UNL d   1      -0.454   1.331  -0.230  0.00  0.00     0.050 C 
ATOM     19  C   UNL d   1      -0.843   0.501   0.833  0.00  0.00     0.019 C 
ATOM     20  C   UNL d   1      -0.323  -0.790   0.955  0.00  0.00     0.040 C 
BRANCH  16  21
ATOM     21  N   UNL d   1       1.671  -1.025  -2.216  0.00  0.00    -0.113 N 
ATOM     22  O   UNL d   1       1.395  -2.155  -2.641  0.00  0.00    -0.532 OA
ATOM     23  O   UNL d   1       2.538  -0.270  -2.676  0.00  0.00    -0.532 OA
ENDBRANCH  16  21
BRANCH  18  24
ATOM     24  C   UNL d   1      -0.922   2.766  -0.283  0.00  0.00     0.417 C 
ATOM     25  F   UNL d   1      -0.152   3.550  -1.085  0.00  0.00    -0.166 F 
ATOM     26  F   UNL d   1      -2.195   2.883  -0.742  0.00  0.00    -0.166 F 
ATOM     27  F   UNL d   1      -0.904   3.361   0.943  0.00  0.00    -0.166 F 
ENDBRANCH  18  24
ENDBRANCH   1  15
TORSDOF 4
