REMARK  7 active torsions:
REMARK  status: ('A' for Active; 'I' for Inactive)
REMARK    1  A    between atoms: O_14  and  C_1 
REMARK    2  A    between atoms: O_15  and  C_3 
REMARK    3  A    between atoms: O_16  and  C_4 
REMARK    4  A    between atoms: N_9  and  C_18 
REMARK    5  A    between atoms: C_17  and  N_9 
REMARK    6  A    between atoms: C_18  and  C_10 
REMARK    7  A    between atoms: C_11  and  C_17 
ROOT
ATOM      1  N   UNL d   1      -2.544   2.532   0.566  0.00  0.00     0.091 N 
ATOM      2  H   UNL d   1      -2.695   1.961   1.395  0.00  0.00     0.316 HD
ENDROOT
BRANCH   1   3
ATOM      3  C   UNL d   1      -1.122   2.572   0.256  0.00  0.00     0.308 C 
BRANCH   3   4
ATOM      4  C   UNL d   1      -0.575   1.172   0.106  0.00  0.00    -0.028 A 
ATOM      5  C   UNL d   1       0.445   0.713   0.953  0.00  0.00     0.048 A 
ATOM      6  C   UNL d   1       0.998  -0.570   0.799  0.00  0.00     0.102 A 
ATOM      7  C   UNL d   1       0.475  -1.430  -0.178  0.00  0.00     0.101 A 
ATOM      8  C   UNL d   1      -0.547  -0.973  -1.019  0.00  0.00     0.040 A 
ATOM      9  C   UNL d   1      -1.065   0.315  -0.883  0.00  0.00     0.012 A 
BRANCH   6  10
ATOM     10  O   UNL d   1       2.039  -1.006   1.575  0.00  0.00    -0.353 OA
ATOM     11  C   UNL d   1       2.934  -0.004   2.047  0.00  0.00     0.210 C 
ENDBRANCH   6  10
BRANCH   7  12
ATOM     12  O   UNL d   1       0.919  -2.688  -0.497  0.00  0.00    -0.353 OA
ATOM     13  C   UNL d   1       1.340  -3.515   0.580  0.00  0.00     0.210 C 
ENDBRANCH   7  12
ENDBRANCH   3   4
ENDBRANCH   1   3
BRANCH   1  14
ATOM     14  C   UNL d   1      -3.085   3.867   0.797  0.00  0.00     0.308 C 
BRANCH  14  15
ATOM     15  C   UNL d   1      -4.573   3.796   1.033  0.00  0.00    -0.030 A 
ATOM     16  C   UNL d   1      -5.412   3.241   0.050  0.00  0.00     0.018 A 
ATOM     17  C   UNL d   1      -6.810   3.181   0.208  0.00  0.00    -0.028 A 
ATOM     18  C   UNL d   1      -7.606   2.616  -0.932  0.00  0.00     0.051 C 
ATOM     19  C   UNL d   1      -7.368   3.672   1.397  0.00  0.00     0.074 A 
ATOM     20  C   UNL d   1      -6.533   4.235   2.374  0.00  0.00     0.038 A 
ATOM     21  C   UNL d   1      -5.150   4.294   2.198  0.00  0.00     0.012 A 
BRANCH  19  22
ATOM     22  O   UNL d   1      -8.699   3.763   1.705  0.00  0.00    -0.355 OA
ATOM     23  C   UNL d   1      -9.513   2.643   1.385  0.00  0.00     0.210 C 
ENDBRANCH  19  22
ENDBRANCH  14  15
ENDBRANCH   1  14
TORSDOF 7
