REMARK  5 active torsions:
REMARK  status: ('A' for Active; 'I' for Inactive)
REMARK    1  A    between atoms: C_4  and  C_1 
REMARK    2  A    between atoms: C_5  and  C_1 
REMARK    3  A    between atoms: C_3  and  C_2 
REMARK       I    between atoms: N_6  and  C_4 
REMARK    4  A    between atoms: N_7  and  C_5 
REMARK    5  A    between atoms: C_12  and  N_6 
ROOT
ATOM      1  C   UNL d   1       1.067  -0.025  -0.070  0.00  0.00     0.095 C 
ATOM      2  C   UNL d   1       0.394  -0.978  -0.749  0.00  0.00     0.042 C 
ENDROOT
BRANCH   1   3
ATOM      3  C   UNL d   1       0.298   0.949   0.773  0.00  0.00     0.265 C 
ATOM      4  N   UNL d   1       1.038   1.927   1.420  0.00  0.00    -0.322 N 
ATOM      5  H   UNL d   1       2.012   2.046   1.171  0.00  0.00     0.169 HD
ATOM      6  O   UNL d   1      -0.926   0.840   0.844  0.00  0.00    -0.267 OA
BRANCH   4   7
ATOM      7  C   UNL d   1       0.570   2.794   2.445  0.00  0.00     0.036 A 
ATOM      8  C   UNL d   1      -0.686   2.667   3.055  0.00  0.00     0.056 A 
ATOM      9  C   UNL d   1      -1.046   3.498   4.120  0.00  0.00     0.074 A 
ATOM     10 CL   UNL d   1      -2.579   3.288   4.878  0.00  0.00    -0.081 Cl
ATOM     11  C   UNL d   1      -0.162   4.469   4.577  0.00  0.00     0.138 A 
ATOM     12  C   UNL d   1       1.079   4.627   3.969  0.00  0.00     0.046 A 
ATOM     13  F   UNL d   1      -0.480   5.259   5.612  0.00  0.00    -0.204 F 
ATOM     14  C   UNL d   1       1.444   3.789   2.906  0.00  0.00     0.032 A 
ENDBRANCH   4   7
ENDBRANCH   1   3
BRANCH   1  15
ATOM     15  C   UNL d   1       2.587  -0.025  -0.070  0.00  0.00    -0.031 C 
BRANCH  15  16
ATOM     16  N   UNL d   1       3.848  -0.025  -0.070  0.00  0.00    -0.365 N 
ATOM     17  HN2 UNL d   1       2.828  -0.025  -0.070  1.00  0.00     0.165 HD
ATOM     18  HN1 UNL d   1       4.868  -0.025  -0.070  1.00  0.00     0.165 HD
ENDBRANCH  15  16
ENDBRANCH   1  15
BRANCH   2  19
ATOM     19  C   UNL d   1       1.056  -2.029  -1.552  0.00  0.00     0.009 A 
ATOM     20  C   UNL d   1       1.463  -3.245  -0.969  0.00  0.00     0.046 A 
ATOM     21 CL   UNL d   1       1.109  -3.625   0.683  0.00  0.00    -0.083 Cl
ATOM     22  C   UNL d   1       2.180  -4.192  -1.708  0.00  0.00     0.025 A 
ATOM     23  C   UNL d   1       2.491  -3.949  -3.044  0.00  0.00     0.003 A 
ATOM     24  C   UNL d   1       2.069  -2.767  -3.647  0.00  0.00     0.025 A 
ATOM     25  C   UNL d   1       1.356  -1.815  -2.910  0.00  0.00     0.046 A 
ATOM     26 CL   UNL d   1       0.873  -0.368  -3.728  0.00  0.00    -0.083 Cl
ENDBRANCH   2  19
TORSDOF 5
