REMARK  3 active torsions:
REMARK  status: ('A' for Active; 'I' for Inactive)
REMARK    1  A    between atoms: N_2  and  C_1 
REMARK    2  A    between atoms: O_6  and  C_1 
REMARK    3  A    between atoms: C_3  and  N_2 
ROOT
ATOM      1  C   UNL d   1       0.943   2.550  -0.832  0.00  0.00     0.056 A 
ATOM      2  C   UNL d   1       1.933   2.605  -1.827  0.00  0.00     0.060 A 
ATOM      3 CL   UNL d   1       2.410   1.185  -2.689  0.00  0.00    -0.082 Cl
ATOM      4  C   UNL d   1       0.577   3.730  -0.173  0.00  0.00     0.031 A 
ATOM      5  C   UNL d   1       2.524   3.821  -2.171  0.00  0.00     0.026 A 
ATOM      6  C   UNL d   1       1.188   4.944  -0.502  0.00  0.00     0.002 A 
ATOM      7  C   UNL d   1       2.155   4.993  -1.504  0.00  0.00     0.002 A 
ENDROOT
BRANCH   1   8
ATOM      8  N   UNL d   1       0.398   1.299  -0.459  0.00  0.00    -0.326 N 
ATOM      9  H   UNL d   1       0.987   0.490  -0.637  0.00  0.00     0.169 HD
BRANCH   8  10
ATOM     10  C   UNL d   1      -0.746   1.054   0.244  0.00  0.00     0.214 C 
ATOM     11  S   UNL d   1      -0.951  -0.288   1.197  0.00  0.00    -0.033 SA
BRANCH  10  12
ATOM     12  O   UNL d   1      -1.800   1.897   0.119  0.00  0.00    -0.332 OA
ATOM     13  C   UNL d   1      -2.209   2.225  -1.222  0.00  0.00     0.212 C 
ENDBRANCH  10  12
ENDBRANCH   8  10
ENDBRANCH   1   8
TORSDOF 3
