REMARK  6 active torsions:
REMARK  status: ('A' for Active; 'I' for Inactive)
REMARK    1  A    between atoms: C_7  and  C_1 
REMARK    2  A    between atoms: C_5  and  C_2 
REMARK       I    between atoms: N_13  and  C_5 
REMARK    3  A    between atoms: C_11  and  C_6 
REMARK    4  A    between atoms: N_12  and  C_8 
REMARK    5  A    between atoms: O_23  and  C_11 
REMARK    6  A    between atoms: C_19  and  N_13 
ROOT
ATOM      1  C   UNL d   1       0.832  -3.340  -0.966  0.00  0.00     0.261 C 
ATOM      2  N   UNL d   1      -0.280  -3.761  -0.258  0.00  0.00    -0.323 N 
ATOM      3  O   UNL d   1       0.844  -2.806  -2.068  0.00  0.00    -0.267 OA
ATOM      4  H   UNL d   1      -0.093  -4.253   0.608  0.00  0.00     0.169 HD
ENDROOT
BRANCH   2   5
ATOM      5  C   UNL d   1      -1.628  -3.389  -0.468  0.00  0.00     0.036 A 
ATOM      6  C   UNL d   1      -2.053  -2.529  -1.474  0.00  0.00     0.049 A 
ATOM      7  C   UNL d   1      -3.385  -2.034  -1.518  0.00  0.00     0.068 A 
ATOM      8  C   UNL d   1      -4.329  -2.420  -0.529  0.00  0.00     0.046 A 
ATOM      9  C   UNL d   1      -3.884  -3.358   0.425  0.00  0.00     0.032 A 
ATOM     10  C   UNL d   1      -2.563  -3.829   0.460  0.00  0.00     0.032 A 
BRANCH   7  11
ATOM     11  C   UNL d   1      -3.675  -0.979  -2.546  0.00  0.00     0.295 C 
ATOM     12  O   UNL d   1      -4.519  -0.103  -2.461  0.00  0.00    -0.259 OA
BRANCH  11  13
ATOM     13  O   UNL d   1      -2.842  -1.138  -3.611  0.00  0.00    -0.322 OA
ATOM     14  C   UNL d   1      -2.941  -0.129  -4.617  0.00  0.00     0.213 C 
ENDBRANCH  11  13
ENDBRANCH   7  11
BRANCH   8  15
ATOM     15  N   UNL d   1      -5.601  -1.878  -0.411  0.00  0.00    -0.376 N 
ATOM     16  C   UNL d   1      -6.263  -1.744   0.900  0.00  0.00     0.149 C 
ATOM     17  C   UNL d   1      -7.236  -0.551   0.863  0.00  0.00     0.187 C 
ATOM     18  O   UNL d   1      -8.187  -0.669  -0.209  0.00  0.00    -0.388 OA
ATOM     19  C   UNL d   1      -7.496  -0.745  -1.473  0.00  0.00     0.187 C 
ATOM     20  C   UNL d   1      -6.571  -1.976  -1.520  0.00  0.00     0.149 C 
ENDBRANCH   8  15
ENDBRANCH   2   5
BRANCH   1  21
ATOM     21  C   UNL d   1       2.059  -3.598  -0.250  0.00  0.00     0.093 C 
ATOM     22  C   UNL d   1       2.747  -2.783   0.699  0.00  0.00     0.086 C 
ATOM     23  N   UNL d   1       3.811  -3.438   1.191  0.00  0.00    -0.259 N 
ATOM     24  O   UNL d   1       3.933  -4.589   0.442  0.00  0.00    -0.241 OA
ATOM     25  HN  UNL d   1       4.409  -3.143   1.963  1.00  0.00     0.195 HD
ATOM     26  C   UNL d   1       2.914  -4.659  -0.453  0.00  0.00     0.090 C 
ATOM     27  C   UNL d   1       2.983  -5.763  -1.430  0.00  0.00     0.080 C 
BRANCH  22  28
ATOM     28  C   UNL d   1       2.492  -1.393   1.076  0.00  0.00     0.037 A 
ATOM     29  C   UNL d   1       1.346  -1.005   1.790  0.00  0.00     0.048 A 
ATOM     30 CL   UNL d   1       0.225  -2.147   2.448  0.00  0.00    -0.083 Cl
ATOM     31  C   UNL d   1       1.091   0.348   2.058  0.00  0.00     0.025 A 
ATOM     32  C   UNL d   1       1.998   1.329   1.667  0.00  0.00     0.003 A 
ATOM     33  C   UNL d   1       3.165   0.960   1.008  0.00  0.00     0.025 A 
ATOM     34  C   UNL d   1       3.407  -0.385   0.701  0.00  0.00     0.048 A 
ATOM     35 CL   UNL d   1       4.870  -0.717  -0.171  0.00  0.00    -0.083 Cl
ENDBRANCH  22  28
ENDBRANCH   1  21
TORSDOF 6
