REMARK  7 active torsions:
REMARK  status: ('A' for Active; 'I' for Inactive)
REMARK    1  A    between atoms: C_8  and  N_1 
REMARK    2  A    between atoms: C_7  and  C_2 
REMARK    3  A    between atoms: O_18  and  C_7 
REMARK    4  A    between atoms: C_9  and  C_10 
REMARK    5  A    between atoms: O_19  and  C_9 
REMARK    6  A    between atoms: C_21  and  O_18 
REMARK    7  A    between atoms: C_22  and  O_19 
ROOT
ATOM      1  N   UNL d   1      -0.278  -1.121   0.126  0.00  0.00    -0.260 N 
ATOM      2  C   UNL d   1      -0.334   1.103  -0.024  0.00  0.00     0.087 C 
ATOM      3  N   UNL d   1       1.000  -0.716   0.316  0.00  0.00    -0.297 N 
ATOM      4  HN  UNL d   1       1.803  -1.296   0.557  1.00  0.00     0.187 HD
ATOM      5  C   UNL d   1      -1.138  -0.037  -0.010  0.00  0.00     0.049 C 
ATOM      6  C   UNL d   1       0.985   0.600   0.123  0.00  0.00     0.041 C 
ATOM      7  C   UNL d   1      -2.623  -0.154  -0.036  0.00  0.00     0.071 C 
ATOM      8  C   UNL d   1       2.276   1.346   0.096  0.00  0.00     0.071 C 
ENDROOT
BRANCH   1   9
ATOM      9  C   UNL d   1      -0.549  -2.520   0.085  0.00  0.00     0.056 A 
ATOM     10  C   UNL d   1       0.286  -3.390   0.811  0.00  0.00     0.032 A 
ATOM     11  C   UNL d   1       0.060  -4.773   0.786  0.00  0.00     0.020 A 
ATOM     12  C   UNL d   1      -0.972  -5.303   0.007  0.00  0.00     0.039 A 
ATOM     13  C   UNL d   1      -1.788  -4.438  -0.737  0.00  0.00     0.020 A 
ATOM     14  C   UNL d   1      -1.582  -3.052  -0.698  0.00  0.00     0.032 A 
BRANCH  12  15
ATOM     15  C   UNL d   1      -1.106  -6.782  -0.073  0.00  0.00     0.293 C 
ATOM     16  O   UNL d   1      -0.384  -7.563   0.525  0.00  0.00    -0.259 OA
BRANCH  15  17
ATOM     17  O   UNL d   1      -2.057  -7.105  -0.984  0.00  0.00    -0.318 OA
BRANCH  17  18
ATOM     18  C   UNL d   1      -2.014  -8.449  -1.482  0.00  0.00     0.174 C 
ATOM     19  C   UNL d   1      -1.097  -8.471  -2.692  0.00  0.00     0.034 C 
ENDBRANCH  17  18
ENDBRANCH  15  17
ENDBRANCH  12  15
ENDBRANCH   1   9
BRANCH   2  20
ATOM     20  C   UNL d   1      -0.766   2.487  -0.179  0.00  0.00     0.297 C 
ATOM     21  O   UNL d   1      -1.927   2.824  -0.374  0.00  0.00    -0.259 OA
BRANCH  20  22
ATOM     22  O   UNL d   1       0.282   3.359  -0.151  0.00  0.00    -0.318 OA
BRANCH  22  23
ATOM     23  C   UNL d   1       0.031   4.668  -0.677  0.00  0.00     0.174 C 
ATOM     24  C   UNL d   1       0.262   4.627  -2.178  0.00  0.00     0.034 C 
ENDBRANCH  22  23
ENDBRANCH  20  22
ENDBRANCH   2  20
TORSDOF 7
