REMARK  2 active torsions:
REMARK  status: ('A' for Active; 'I' for Inactive)
REMARK    1  A    between atoms: C_2  and  C_3 
REMARK       I    between atoms: C_3  and  N_6 
REMARK    2  A    between atoms: N_6  and  C_5 
ROOT
ATOM      1  C   UNL d   1      -1.694  -2.293  -2.447  0.00  0.00     0.253 C 
ATOM      2  N   UNL d   1      -1.126  -1.147  -1.956  0.00  0.00    -0.351 N 
ATOM      3  O   UNL d   1      -2.207  -3.136  -1.712  0.00  0.00    -0.268 OA
ATOM      4  H   UNL d   1      -0.666  -0.522  -2.609  0.00  0.00     0.163 HD
ENDROOT
BRANCH   2   5
ATOM      5  C   UNL d   1      -1.165  -0.726  -0.562  0.00  0.00     0.094 C 
ATOM      6  C   UNL d   1       0.050  -1.179   0.325  0.00  0.00    -0.016 C 
ATOM      7  C   UNL d   1       0.059  -0.107   1.469  0.00  0.00    -0.035 C 
ATOM      8  C   UNL d   1       1.357  -0.844  -0.445  0.00  0.00     0.012 C 
ATOM      9  C   UNL d   1      -0.014  -2.624   0.783  0.00  0.00     0.018 C 
ATOM     10  C   UNL d   1       0.149   1.049   0.444  0.00  0.00    -0.004 C 
ATOM     11  C   UNL d   1       1.255  -0.156   2.443  0.00  0.00     0.016 C 
ATOM     12  C   UNL d   1      -1.204  -0.065   2.355  0.00  0.00     0.016 C 
ATOM     13  C   UNL d   1       1.397   0.692  -0.395  0.00  0.00     0.006 C 
ATOM     14  C   UNL d   1      -1.081   0.820  -0.461  0.00  0.00     0.031 C 
ENDBRANCH   2   5
BRANCH   1  15
ATOM     15  C   UNL d   1      -1.746  -2.481  -3.946  0.00  0.00     0.053 A 
ATOM     16  C   UNL d   1      -1.335  -1.549  -4.916  0.00  0.00     0.051 A 
ATOM     17  C   UNL d   1      -1.612  -1.765  -6.276  0.00  0.00     0.048 A 
ATOM     18 CL   UNL d   1      -0.438  -0.106  -4.577  0.00  0.00    -0.083 Cl
ATOM     19  C   UNL d   1      -2.230  -2.941  -6.689  0.00  0.00     0.035 A 
ATOM     20  C   UNL d   1      -2.562  -3.917  -5.758  0.00  0.00     0.025 A 
ATOM     21 CL   UNL d   1      -2.575  -3.185  -8.356  0.00  0.00    -0.084 Cl
ATOM     22  C   UNL d   1      -2.334  -3.682  -4.398  0.00  0.00     0.020 A 
ENDBRANCH   1  15
TORSDOF 2
