REMARK  4 active torsions:
REMARK  status: ('A' for Active; 'I' for Inactive)
REMARK    1  A    between atoms: C_13  and  C_3 
REMARK    2  A    between atoms: C_14  and  C_4 
REMARK    3  A    between atoms: C_16  and  C_12 
REMARK       I    between atoms: N_18  and  C_14 
REMARK    4  A    between atoms: O_21  and  C_19 
ROOT
ATOM      1  N   UNL d   1      -0.260  -0.666   0.030  0.00  0.00    -0.235 N 
ATOM      2  C   UNL d   1      -0.196   0.716  -0.016  0.00  0.00     0.144 A 
ATOM      3  C   UNL d   1       0.920  -1.419   0.009  0.00  0.00     0.102 A 
ATOM      4  C   UNL d   1       2.071  -0.710  -0.069  0.00  0.00     0.145 A 
ATOM      5  N   UNL d   1      -1.550  -1.094   0.066  0.00  0.00    -0.291 N 
ATOM      6  HN  UNL d   1      -1.875  -2.059   0.121  1.00  0.00     0.187 HD
ATOM      7  N   UNL d   1       2.068   0.683  -0.094  0.00  0.00    -0.292 N 
ATOM      8  HN  UNL d   1       2.960   1.177  -0.138  1.00  0.00     0.187 HD
ATOM      9  C   UNL d   1      -1.491   1.168  -0.021  0.00  0.00     0.083 A 
ATOM     10  N   UNL d   1       1.003   1.352  -0.063  0.00  0.00    -0.283 N 
ATOM     11  HN  UNL d   1       1.040   2.372  -0.074  1.00  0.00     0.188 HD
ATOM     12  C   UNL d   1      -2.309   0.011   0.013  0.00  0.00     0.062 A 
ENDROOT
BRANCH   3  13
ATOM     13  C   UNL d   1       0.833  -2.889   0.037  0.00  0.00    -0.002 A 
ATOM     14  C   UNL d   1       0.743  -3.606  -1.166  0.00  0.00     0.050 A 
ATOM     15  C   UNL d   1       0.629  -4.997  -1.151  0.00  0.00     0.069 A 
ATOM     16  C   UNL d   1       0.591  -5.668   0.074  0.00  0.00     0.037 A 
ATOM     17  C   UNL d   1       0.685  -4.963   1.274  0.00  0.00     0.004 A 
ATOM     18  C   UNL d   1       0.810  -3.574   1.258  0.00  0.00     0.014 A 
BRANCH  15  19
ATOM     19  O   UNL d   1       0.546  -5.805  -2.253  0.00  0.00    -0.356 OA
ATOM     20  C   UNL d   1       0.603  -5.161  -3.520  0.00  0.00     0.210 C 
ENDBRANCH  15  19
ENDBRANCH   3  13
BRANCH   4  21
ATOM     21  C   UNL d   1       3.431  -1.358  -0.155  0.00  0.00     0.269 C 
ATOM     22  O   UNL d   1       3.647  -2.562  -0.147  0.00  0.00    -0.266 OA
ATOM     23  N   UNL d   1       4.476  -0.485  -0.263  0.00  0.00    -0.365 N 
ATOM     24  H   UNL d   1       4.345   0.518  -0.288  0.00  0.00     0.159 HD
ATOM     25  H   UNL d   1       5.409  -0.869  -0.335  0.00  0.00     0.159 HD
ENDBRANCH   4  21
BRANCH  12  26
ATOM     26  C   UNL d   1      -3.777  -0.058  -0.020  0.00  0.00    -0.008 A 
ATOM     27  C   UNL d   1      -4.439  -1.294   0.038  0.00  0.00     0.014 A 
ATOM     28  C   UNL d   1      -5.835  -1.365  -0.016  0.00  0.00     0.001 A 
ATOM     29  C   UNL d   1      -6.589  -0.200  -0.131  0.00  0.00     0.000 A 
ATOM     30  C   UNL d   1      -5.949   1.036  -0.186  0.00  0.00     0.001 A 
ATOM     31  C   UNL d   1      -4.554   1.106  -0.129  0.00  0.00     0.014 A 
ENDBRANCH  12  26
TORSDOF 4
