REMARK  3 active torsions:
REMARK  status: ('A' for Active; 'I' for Inactive)
REMARK    1  A    between atoms: C_9  and  C_1 
REMARK    2  A    between atoms: S_13  and  C_5 
REMARK    3  A    between atoms: N_14  and  C_6 
ROOT
ATOM      1  C   UNL d   1      -0.736   1.167  -0.010  0.00  0.00     0.070 C 
ATOM      2  C   UNL d   1      -1.464  -0.003  -0.171  0.00  0.00     0.105 C 
ATOM      3  N   UNL d   1       0.620  -1.203  -0.090  0.00  0.00    -0.326 N 
ATOM      4  HN  UNL d   1       1.139  -2.081  -0.092  1.00  0.00     0.169 HD
ATOM      5  C   UNL d   1      -0.727  -1.183  -0.155  0.00  0.00     0.095 C 
ATOM      6  C   UNL d   1       1.239  -0.034  -0.022  0.00  0.00     0.156 C 
ATOM      7  N   UNL d   1       0.615   1.132   0.093  0.00  0.00    -0.331 N 
ATOM      8  HN  UNL d   1       1.144   1.989   0.256  1.00  0.00     0.168 HD
ATOM      9  C   UNL d   1      -2.882  -0.017  -0.363  0.00  0.00     0.104 C 
ATOM     10  N   UNL d   1      -4.034  -0.006  -0.503  0.00  0.00    -0.191 NA
ENDROOT
BRANCH   1  11
ATOM     11  C   UNL d   1      -1.306   2.545   0.116  0.00  0.00     0.014 A 
ATOM     12  C   UNL d   1      -0.698   3.694  -0.449  0.00  0.00     0.046 A 
ATOM     13 CL   UNL d   1       0.705   3.632  -1.469  0.00  0.00    -0.083 Cl
ATOM     14  C   UNL d   1      -1.229   4.979  -0.246  0.00  0.00     0.025 A 
ATOM     15  C   UNL d   1      -2.396   5.157   0.488  0.00  0.00     0.002 A 
ATOM     16  C   UNL d   1      -3.027   4.051   1.038  0.00  0.00     0.001 A 
ATOM     17  C   UNL d   1      -2.477   2.774   0.877  0.00  0.00     0.015 A 
ENDBRANCH   1  11
BRANCH   5  18
ATOM     18  S   UNL d   1      -1.519  -2.797  -0.210  0.00  0.00    -0.115 SA
ATOM     19  C   UNL d   1      -0.081  -3.897  -0.070  0.00  0.00     0.097 C 
ENDBRANCH   5  18
BRANCH   6  20
ATOM     20  N   UNL d   1       2.610  -0.026  -0.087  0.00  0.00    -0.274 NA
ATOM     21  H   UNL d   1       3.019  -0.901   0.200  0.00  0.00     0.127 HD
ATOM     22  H   UNL d   1       3.000   0.836   0.267  0.00  0.00     0.127 HD
ENDBRANCH   6  20
TORSDOF 3
