REMARK  1 active torsions:
REMARK  status: ('A' for Active; 'I' for Inactive)
REMARK    1  A    between atoms: S_6  and  C_1 
ROOT
ATOM      1  C   UNL d   1      -0.113  -1.385  -0.054  0.00  0.00     0.172 A 
ATOM      2  C   UNL d   1       1.189  -0.856  -0.039  0.00  0.00     0.121 A 
ATOM      3  C   UNL d   1       1.024   0.516  -0.031  0.00  0.00     0.139 A 
ATOM      4  N   UNL d   1      -1.042  -0.423  -0.085  0.00  0.00    -0.248 N 
ATOM      5  HN  UNL d   1      -2.055  -0.540  -0.103  1.00  0.00     0.195 HD
ATOM      6  O   UNL d   1      -0.329   0.764  -0.086  0.00  0.00    -0.234 OA
ATOM      7  C   UNL d   1       1.995   1.576   0.039  0.00  0.00     0.042 A 
ATOM      8  C   UNL d   1       2.417  -1.568  -0.037  0.00  0.00     0.105 C 
ATOM      9  N   UNL d   1       3.442  -2.113  -0.029  0.00  0.00    -0.191 NA
ATOM     10  S   UNL d   1       1.673   3.109  -0.663  0.00  0.00    -0.099 SA
ATOM     11  C   UNL d   1       3.235   1.560   0.651  0.00  0.00     0.022 A 
ATOM     12  C   UNL d   1       3.172   3.743  -0.142  0.00  0.00     0.050 A 
ATOM     13  C   UNL d   1       3.910   2.813   0.555  0.00  0.00     0.008 A 
ENDROOT
BRANCH   1  14
ATOM     14  S   UNL d   1      -0.483  -3.067  -0.021  0.00  0.00     0.190 S 
ATOM     15  O   UNL d   1       0.017  -3.558  -1.288  0.00  0.00    -0.221 OA
ATOM     16  O   UNL d   1       0.049  -3.514   1.250  0.00  0.00    -0.221 OA
ATOM     17  C   UNL d   1      -2.251  -3.176   0.005  0.00  0.00     0.168 C 
ENDBRANCH   1  14
TORSDOF 1
