REMARK  3 active torsions:
REMARK  status: ('A' for Active; 'I' for Inactive)
REMARK    1  A    between atoms: N_14  and  C_2 
REMARK    2  A    between atoms: C_13  and  C_4 
REMARK    3  A    between atoms: C_15  and  C_12 
REMARK       I    between atoms: N_17  and  C_13 
ROOT
ATOM      1  N   UNL d   1      -0.258  -0.701   0.038  0.00  0.00    -0.220 N 
ATOM      2  C   UNL d   1       0.940  -1.454   0.049  0.00  0.00     0.157 A 
ATOM      3  C   UNL d   1      -0.197   0.682   0.002  0.00  0.00     0.145 A 
ATOM      4  C   UNL d   1       2.075  -0.715  -0.002  0.00  0.00     0.161 A 
ATOM      5  N   UNL d   1      -1.555  -1.144   0.057  0.00  0.00    -0.290 N 
ATOM      6  HN  UNL d   1      -1.878  -2.111   0.093  1.00  0.00     0.187 HD
ATOM      7  N   UNL d   1       2.074   0.669  -0.029  0.00  0.00    -0.291 N 
ATOM      8  HN  UNL d   1       2.963   1.167  -0.059  1.00  0.00     0.187 HD
ATOM      9  C   UNL d   1      -1.494   1.127  -0.003  0.00  0.00     0.083 A 
ATOM     10  N   UNL d   1       1.002   1.327  -0.018  0.00  0.00    -0.283 N 
ATOM     11  HN  UNL d   1       1.031   2.347  -0.023  1.00  0.00     0.188 HD
ATOM     12  C   UNL d   1      -2.310  -0.033   0.018  0.00  0.00     0.062 A 
ENDROOT
BRANCH  12  13
ATOM     13  C   UNL d   1      -3.781  -0.063   0.006  0.00  0.00    -0.008 A 
ATOM     14  C   UNL d   1      -4.497  -1.109   0.602  0.00  0.00     0.014 A 
ATOM     15  C   UNL d   1      -5.900  -1.095   0.621  0.00  0.00     0.001 A 
ATOM     16  C   UNL d   1      -6.600  -0.042   0.036  0.00  0.00     0.000 A 
ATOM     17  C   UNL d   1      -5.903   0.998  -0.572  0.00  0.00     0.001 A 
ATOM     18  C   UNL d   1      -4.505   0.987  -0.587  0.00  0.00     0.014 A 
ENDBRANCH  12  13
BRANCH   2  19
ATOM     19  N   UNL d   1       0.840  -2.834   0.135  0.00  0.00    -0.382 N 
ATOM     20  H   UNL d   1      -0.065  -3.252  -0.061  0.00  0.00     0.157 HD
ATOM     21  H   UNL d   1       1.693  -3.371  -0.042  0.00  0.00     0.157 HD
ENDBRANCH   2  19
BRANCH   4  22
ATOM     22  C   UNL d   1       3.413  -1.409  -0.019  0.00  0.00     0.271 C 
ATOM     23  O   UNL d   1       3.552  -2.628  -0.050  0.00  0.00    -0.266 OA
ATOM     24  N   UNL d   1       4.514  -0.608  -0.009  0.00  0.00    -0.365 N 
ATOM     25  H   UNL d   1       4.452   0.407  -0.008  0.00  0.00     0.159 HD
ATOM     26  H   UNL d   1       5.419  -1.049  -0.024  0.00  0.00     0.159 HD
ENDBRANCH   4  22
TORSDOF 3
