REMARK  6 active torsions:
REMARK  status: ('A' for Active; 'I' for Inactive)
REMARK    1  A    between atoms: C_2  and  N_1 
REMARK    2  A    between atoms: N_12  and  C_10 
REMARK    3  A    between atoms: C_17  and  N_12 
REMARK    4  A    between atoms: C_14  and  C_17 
REMARK    5  A    between atoms: C_18  and  C_14 
REMARK    6  A    between atoms: O_15  and  C_18 
ROOT
ATOM      1  C   UNL d   1       0.241   0.209   1.316  0.00  0.00     0.115 A 
ATOM      2  C   UNL d   1      -0.835  -0.622   1.713  0.00  0.00     0.026 A 
ATOM      3  C   UNL d   1      -1.466  -0.324   2.949  0.00  0.00     0.071 A 
ATOM      4  C   UNL d   1       0.683   1.302   2.070  0.00  0.00     0.039 A 
ATOM      5  N   UNL d   1      -2.508  -1.072   3.399  0.00  0.00    -0.363 N 
ATOM      6  HN  UNL d   1      -2.959  -0.845   4.285  1.00  0.00     0.165 HD
ATOM      7  C   UNL d   1      -1.027   0.782   3.713  0.00  0.00     0.056 A 
ATOM      8  C   UNL d   1       0.040   1.577   3.265  0.00  0.00     0.034 A 
ATOM      9  C   UNL d   1      -1.320  -1.733   0.985  0.00  0.00     0.017 A 
ATOM     10  C   UNL d   1      -2.941  -2.118   2.663  0.00  0.00     0.088 A 
ATOM     11  C   UNL d   1      -2.386  -2.482   1.457  0.00  0.00     0.018 A 
ENDROOT
BRANCH   7  12
ATOM     12  N   UNL d   1      -1.649   1.059   4.940  0.00  0.00    -0.388 N 
ATOM     13  H   UNL d   1      -2.373   0.381   5.181  0.00  0.00     0.159 HD
BRANCH  12  14
ATOM     14  C   UNL d   1      -1.751   2.398   5.509  0.00  0.00     0.122 C 
BRANCH  14  15
ATOM     15  C   UNL d   1      -2.515   3.380   4.613  0.00  0.00     0.045 C 
BRANCH  15  16
ATOM     16  C   UNL d   1      -2.585   4.765   5.245  0.00  0.00     0.165 C 
BRANCH  16  17
ATOM     17  O   UNL d   1      -1.271   5.268   5.451  0.00  0.00    -0.401 OA
ATOM     18  H   UNL d   1      -1.358   6.147   5.861  0.00  0.00     0.209 HD
ENDBRANCH  16  17
ENDBRANCH  15  16
ENDBRANCH  14  15
ENDBRANCH  12  14
ENDBRANCH   7  12
BRANCH   1  19
ATOM     19  N   UNL d   1       0.951  -0.037   0.067  0.00  0.00    -0.115 N 
ATOM     20  O   UNL d   1       0.294   0.001  -0.979  0.00  0.00    -0.532 OA
ATOM     21  O   UNL d   1       2.170  -0.249   0.157  0.00  0.00    -0.532 OA
ENDBRANCH   1  19
TORSDOF 6
