REMARK  5 active torsions:
REMARK  status: ('A' for Active; 'I' for Inactive)
REMARK    1  A    between atoms: C_2  and  C_1 
REMARK    2  A    between atoms: C_14  and  C_10 
REMARK    3  A    between atoms: O_15  and  C_14 
REMARK    4  A    between atoms: C_17  and  O_15 
REMARK    5  A    between atoms: O_26  and  C_19 
ROOT
ATOM      1  C   UNL d   1       3.969   0.069   0.153  0.00  0.00     0.057 A 
ATOM      2  N   UNL d   1       4.740  -0.595  -0.784  0.00  0.00    -0.351 N 
ATOM      3  HN  UNL d   1       4.367  -1.154  -1.552  1.00  0.00     0.166 HD
ATOM      4  C   UNL d   1       4.702   0.753   1.106  0.00  0.00     0.082 A 
ATOM      5  C   UNL d   1       6.022  -0.407  -0.547  0.00  0.00     0.075 A 
ATOM      6  S   UNL d   1       6.379   0.544   0.841  0.00  0.00    -0.084 SA
ENDROOT
BRANCH   1   7
ATOM      7  C   UNL d   1       2.458   0.068   0.110  0.00  0.00     0.039 A 
ATOM      8  S   UNL d   1       1.538   1.005   1.208  0.00  0.00    -0.087 SA
ATOM      9  C   UNL d   1       0.046   0.512   0.541  0.00  0.00     0.016 A 
ATOM     10  C   UNL d   1      -1.235   0.920   0.962  0.00  0.00     0.021 A 
ATOM     11  C   UNL d   1       0.233  -0.383  -0.511  0.00  0.00    -0.010 A 
ATOM     12  C   UNL d   1      -2.356   0.403   0.313  0.00  0.00     0.025 A 
ATOM     13  C   UNL d   1      -2.202  -0.497  -0.729  0.00  0.00     0.035 A 
ATOM     14  C   UNL d   1      -0.929  -0.893  -1.150  0.00  0.00     0.037 A 
ATOM     15 CL   UNL d   1      -3.594  -1.137  -1.513  0.00  0.00    -0.084 Cl
ATOM     16  C   UNL d   1       1.647  -0.637  -0.772  0.00  0.00    -0.031 A 
ATOM     17  C   UNL d   1       2.071  -1.567  -1.871  0.00  0.00     0.050 C 
ENDBRANCH   1   7
BRANCH   5  18
ATOM     18  C   UNL d   1       7.133  -0.851  -1.447  0.00  0.00     0.240 C 
BRANCH  18  19
ATOM     19  O   UNL d   1       7.716  -2.040  -0.904  0.00  0.00    -0.345 OA
BRANCH  19  20
ATOM     20  C   UNL d   1       8.749  -2.545  -1.652  0.00  0.00     0.069 A 
ATOM     21  C   UNL d   1       9.637  -1.766  -2.393  0.00  0.00     0.039 A 
ATOM     22  C   UNL d   1      10.641  -2.373  -3.148  0.00  0.00     0.039 A 
ATOM     23  C   UNL d   1      10.792  -3.759  -3.145  0.00  0.00     0.068 A 
ATOM     24  C   UNL d   1       9.931  -4.543  -2.377  0.00  0.00     0.039 A 
ATOM     25  C   UNL d   1       8.915  -3.932  -1.628  0.00  0.00     0.039 A 
BRANCH  23  26
ATOM     26  O   UNL d   1      11.773  -4.225  -3.973  0.00  0.00    -0.356 OA
ATOM     27  C   UNL d   1      12.412  -5.430  -3.572  0.00  0.00     0.210 C 
ENDBRANCH  23  26
ENDBRANCH  19  20
ENDBRANCH  18  19
ENDBRANCH   5  18
TORSDOF 5
