REMARK  6 active torsions:
REMARK  status: ('A' for Active; 'I' for Inactive)
REMARK    1  A    between atoms: N_2  and  C_1 
REMARK    2  A    between atoms: C_5  and  C_4 
REMARK       I    between atoms: N_7  and  C_5 
REMARK    3  A    between atoms: C_8  and  C_6 
REMARK    4  A    between atoms: C_9  and  N_7 
REMARK       I    between atoms: N_12  and  C_8 
REMARK    5  A    between atoms: C_22  and  N_12 
REMARK    6  A    between atoms: C_14  and  C_22 
ROOT
ATOM      1  C   UNL d   1      -3.102  -0.519  -0.983  0.00  0.00     0.058 A 
ATOM      2  C   UNL d   1      -3.164  -1.598  -0.067  0.00  0.00     0.050 A 
ATOM      3  C   UNL d   1      -4.141   0.428  -0.982  0.00  0.00     0.019 A 
ATOM      4  C   UNL d   1      -4.256  -1.700   0.813  0.00  0.00     0.030 A 
ATOM      5  C   UNL d   1      -5.207   0.322  -0.082  0.00  0.00     0.001 A 
ATOM      6  C   UNL d   1      -5.267  -0.742   0.810  0.00  0.00     0.002 A 
ENDROOT
BRANCH   2   7
ATOM      7  N   UNL d   1      -2.124  -2.561   0.025  0.00  0.00    -0.320 N 
ATOM      8  C   UNL d   1      -2.345  -3.918   0.175  0.00  0.00     0.280 C 
ATOM      9  O   UNL d   1      -3.466  -4.430   0.152  0.00  0.00    -0.265 OA
ATOM     10  H   UNL d   1      -1.238  -2.312  -0.418  0.00  0.00     0.169 HD
BRANCH   8  11
ATOM     11  C   UNL d   1      -1.153  -4.734   0.318  0.00  0.00     0.146 A 
ATOM     12  O   UNL d   1       0.061  -4.168   0.623  0.00  0.00    -0.283 OA
ATOM     13  C   UNL d   1       0.934  -5.204   0.778  0.00  0.00     0.215 A 
ATOM     14  C   UNL d   1       0.332  -6.419   0.554  0.00  0.00     0.066 A 
ATOM     15  C   UNL d   1      -1.019  -6.116   0.260  0.00  0.00     0.047 A 
BRANCH  13  16
ATOM     16  N   UNL d   1       2.276  -4.877   1.148  0.00  0.00    -0.090 N 
ATOM     17  O   UNL d   1       3.075  -5.823   1.198  0.00  0.00    -0.530 OA
ATOM     18  O   UNL d   1       2.535  -3.695   1.403  0.00  0.00    -0.530 OA
ENDBRANCH  13  16
ENDBRANCH   8  11
ENDBRANCH   2   7
BRANCH   1  19
ATOM     19  C   UNL d   1      -2.002  -0.472  -2.008  0.00  0.00     0.254 C 
ATOM     20  N   UNL d   1      -1.976   0.553  -2.942  0.00  0.00    -0.352 N 
ATOM     21  H   UNL d   1      -2.517   1.398  -2.831  0.00  0.00     0.163 HD
ATOM     22  O   UNL d   1      -1.142  -1.352  -2.015  0.00  0.00    -0.268 OA
BRANCH  20  23
ATOM     23  C   UNL d   1      -0.909   0.551  -3.918  0.00  0.00     0.169 C 
BRANCH  23  24
ATOM     24  C   UNL d   1      -0.995   1.676  -4.901  0.00  0.00     0.000 A 
ATOM     25  S   UNL d   1      -1.004   3.312  -4.386  0.00  0.00    -0.105 SA
ATOM     26  C   UNL d   1      -0.862   3.888  -5.992  0.00  0.00     0.050 A 
ATOM     27  C   UNL d   1      -0.849   2.863  -6.910  0.00  0.00     0.008 A 
ATOM     28  C   UNL d   1      -0.950   1.588  -6.280  0.00  0.00     0.017 A 
ENDBRANCH  23  24
ENDBRANCH  20  23
ENDBRANCH   1  19
TORSDOF 6
