REMARK  3 active torsions:
REMARK  status: ('A' for Active; 'I' for Inactive)
REMARK    1  A    between atoms: C_9  and  N_6 
REMARK    2  A    between atoms: C_10  and  C_9 
REMARK    3  A    between atoms: C_11  and  C_10 
ROOT
ATOM      1  C   UNL d   1      -0.347  -1.316   0.204  0.00  0.00     0.709 A 
ATOM      2  N   UNL d   1       0.819  -0.847   0.669  0.00  0.00    -0.116 N 
ATOM      3  HN  UNL d   1       1.534  -1.316   1.224  1.00  0.00     0.207 HD
ATOM      4  N   UNL d   1      -1.059  -0.350  -0.469  0.00  0.00    -0.113 N 
ATOM      5  HN  UNL d   1      -1.982  -0.462  -0.888  1.00  0.00     0.203 HD
ATOM      6  N   UNL d   1       0.788   0.415   0.201  0.00  0.00    -0.196 N 
ATOM      7  N   UNL d   1      -0.323   0.752  -0.471  0.00  0.00     0.011 NA
ATOM      8  N   UNL d   1      -0.795  -2.596   0.303  0.00  0.00    -0.215 N 
ATOM      9  C   UNL d   1      -0.271  -3.426   1.389  0.00  0.00     0.141 C 
ATOM     10  C   UNL d   1      -2.164  -2.895  -0.127  0.00  0.00     0.141 C 
ATOM     11  C   UNL d   1      -0.385  -4.907   1.033  0.00  0.00     0.020 C 
ATOM     12  C   UNL d   1      -2.303  -4.376  -0.483  0.00  0.00     0.020 C 
ATOM     13  C   UNL d   1      -1.811  -5.277   0.644  0.00  0.00     0.003 C 
ENDROOT
BRANCH   6  14
ATOM     14  C   UNL d   1       2.000   1.188   0.094  0.00  0.00     0.251 C 
BRANCH  14  15
ATOM     15  C   UNL d   1       2.153   2.184   1.209  0.00  0.00     0.180 C 
ATOM     16  O   UNL d   1       1.682   3.318   1.130  0.00  0.00    -0.290 OA
BRANCH  15  17
ATOM     17  C   UNL d   1       2.954   1.837   2.420  0.00  0.00     0.013 A 
ATOM     18  C   UNL d   1       3.063   0.532   2.912  0.00  0.00     0.040 A 
ATOM     19  C   UNL d   1       3.772   0.282   4.094  0.00  0.00     0.056 A 
ATOM     20 CL   UNL d   1       3.832  -1.352   4.657  0.00  0.00    -0.083 Cl
ATOM     21  C   UNL d   1       4.385   1.332   4.786  0.00  0.00     0.055 A 
ATOM     22  C   UNL d   1       4.302   2.632   4.283  0.00  0.00     0.026 A 
ATOM     23 CL   UNL d   1       5.240   1.095   6.267  0.00  0.00    -0.083 Cl
ATOM     24  C   UNL d   1       3.587   2.882   3.108  0.00  0.00     0.017 A 
ENDBRANCH  15  17
ENDBRANCH  14  15
ENDBRANCH   6  14
TORSDOF 3
