REMARK  5 active torsions:
REMARK  status: ('A' for Active; 'I' for Inactive)
REMARK    1  A    between atoms: C_12  and  N_3 
REMARK    2  A    between atoms: C_7  and  C_4 
REMARK    3  A    between atoms: C_11  and  C_5 
REMARK    4  A    between atoms: O_17  and  C_8 
REMARK    5  A    between atoms: O_22  and  C_15 
ROOT
ATOM      1  N   UNL d   1       1.135  -0.242  -0.009  0.00  0.00    -0.301 N 
ATOM      2  HN  UNL d   1       2.135  -0.418   0.084  1.00  0.00     0.187 HD
ATOM      3  N   UNL d   1       0.151  -1.190  -0.062  0.00  0.00    -0.283 N 
ATOM      4  C   UNL d   1       0.570   0.917  -0.099  0.00  0.00     0.041 A 
ATOM      5  C   UNL d   1      -1.194  -0.627  -0.166  0.00  0.00     0.147 A 
ATOM      6  C   UNL d   1      -0.926   0.872  -0.314  0.00  0.00     0.091 A 
ENDROOT
BRANCH   4   7
ATOM      7  C   UNL d   1       1.297   2.208  -0.045  0.00  0.00     0.021 A 
ATOM      8  C   UNL d   1       2.476   2.433   0.685  0.00  0.00     0.083 A 
ATOM      9  C   UNL d   1       3.124   3.683   0.588  0.00  0.00     0.074 A 
ATOM     10  C   UNL d   1       2.623   4.702  -0.223  0.00  0.00     0.070 A 
ATOM     11  C   UNL d   1       1.458   4.470  -0.947  0.00  0.00     0.038 A 
ATOM     12  C   UNL d   1       0.799   3.243  -0.856  0.00  0.00     0.019 A 
BRANCH   8  13
ATOM     13  O   UNL d   1       3.183   1.530   1.435  0.00  0.00    -0.355 OA
ATOM     14  C   UNL d   1       2.470   0.828   2.447  0.00  0.00     0.210 C 
ENDBRANCH   8  13
BRANCH  10  15
ATOM     15  O   UNL d   1       3.171   5.938  -0.412  0.00  0.00    -0.356 OA
ATOM     16  C   UNL d   1       4.378   6.225   0.284  0.00  0.00     0.210 C 
ENDBRANCH  10  15
ENDBRANCH   4   7
BRANCH   3  17
ATOM     17  C   UNL d   1       0.472  -2.547  -0.042  0.00  0.00     0.051 A 
ATOM     18  C   UNL d   1       1.784  -2.971   0.221  0.00  0.00     0.031 A 
ATOM     19  C   UNL d   1       2.130  -4.323   0.280  0.00  0.00     0.002 A 
ATOM     20  C   UNL d   1       1.159  -5.298   0.065  0.00  0.00     0.000 A 
ATOM     21  C   UNL d   1      -0.148  -4.907  -0.213  0.00  0.00     0.002 A 
ATOM     22  C   UNL d   1      -0.485  -3.551  -0.266  0.00  0.00     0.031 A 
ENDBRANCH   3  17
BRANCH   5  23
ATOM     23  C   UNL d   1      -2.082  -0.921   1.036  0.00  0.00    -0.033 A 
ATOM     24  C   UNL d   1      -1.569  -1.010   2.341  0.00  0.00     0.011 A 
ATOM     25  C   UNL d   1      -2.410  -1.288   3.423  0.00  0.00     0.024 A 
ATOM     26  C   UNL d   1      -3.773  -1.469   3.211  0.00  0.00     0.034 A 
ATOM     27  C   UNL d   1      -4.304  -1.378   1.927  0.00  0.00     0.024 A 
ATOM     28 CL   UNL d   1      -4.810  -1.809   4.541  0.00  0.00    -0.084 Cl
ATOM     29  C   UNL d   1      -3.463  -1.102   0.845  0.00  0.00     0.011 A 
ENDBRANCH   5  23
TORSDOF 5
