REMARK  3 active torsions:
REMARK  status: ('A' for Active; 'I' for Inactive)
REMARK    1  A    between atoms: C_18  and  N_2 
REMARK    2  A    between atoms: C_20  and  N_5 
REMARK    3  A    between atoms: N_13  and  C_15 
ROOT
ATOM      1  C   UNL d   1       2.672  -0.726   0.002  0.00  0.00     0.139 C 
ATOM      2  N   UNL d   1       4.042  -0.378  -0.062  0.00  0.00    -0.248 N 
ATOM      3  C   UNL d   1       1.737   0.266   0.012  0.00  0.00     0.105 C 
ATOM      4  C   UNL d   1       4.489   0.964  -0.125  0.00  0.00     0.342 C 
ATOM      5  N   UNL d   1       3.522   1.952  -0.033  0.00  0.00    -0.229 N 
ATOM      6  N   UNL d   1       2.219  -2.072   0.095  0.00  0.00    -0.302 N 
ATOM      7  C   UNL d   1       2.170   1.700   0.096  0.00  0.00     0.272 C 
ATOM      8  C   UNL d   1      -0.123  -1.379  -0.045  0.00  0.00     0.061 A 
ATOM      9  C   UNL d   1       0.289  -0.067  -0.009  0.00  0.00     0.068 A 
ATOM     10  C   UNL d   1       0.871  -2.441  -0.024  0.00  0.00     0.261 C 
ATOM     11  N   UNL d   1      -0.630   0.933  -0.016  0.00  0.00    -0.354 N 
ATOM     12  HN  UNL d   1      -0.318   1.905  -0.017  1.00  0.00     0.166 HD
ATOM     13  C   UNL d   1      -1.485  -1.690  -0.056  0.00  0.00     0.033 A 
ATOM     14  C   UNL d   1      -4.721   0.115  -0.004  0.00  0.00     0.103 A 
ATOM     15  C   UNL d   1      -2.428  -0.666  -0.036  0.00  0.00    -0.006 A 
ATOM     16  C   UNL d   1      -1.949   0.657  -0.020  0.00  0.00     0.043 A 
ATOM     17  O   UNL d   1       5.689   1.248  -0.238  0.00  0.00    -0.245 OA
ATOM     18  C   UNL d   1      -3.806  -0.942  -0.026  0.00  0.00     0.049 A 
ATOM     19  O   UNL d   1       1.348   2.602   0.256  0.00  0.00    -0.266 OA
ATOM     20  O   UNL d   1       0.474  -3.603  -0.079  0.00  0.00    -0.267 OA
ATOM     21  C   UNL d   1      -4.266   1.434   0.006  0.00  0.00     0.038 A 
ATOM     22  C   UNL d   1      -2.886   1.686  -0.002  0.00  0.00     0.033 A 
ATOM     23  C   UNL d   1       3.066  -3.217   0.400  0.00  0.00     0.161 C 
ENDROOT
BRANCH   2  24
ATOM     24  C   UNL d   1       5.128  -1.302  -0.250  0.00  0.00     0.045 A 
ATOM     25  C   UNL d   1       6.165  -1.349   0.701  0.00  0.00     0.030 A 
ATOM     26  C   UNL d   1       7.295  -2.133   0.479  0.00  0.00     0.002 A 
ATOM     27  C   UNL d   1       7.401  -2.876  -0.693  0.00  0.00     0.000 A 
ATOM     28  C   UNL d   1       6.375  -2.842  -1.640  0.00  0.00     0.002 A 
ATOM     29  C   UNL d   1       5.242  -2.051  -1.426  0.00  0.00     0.030 A 
ENDBRANCH   2  24
BRANCH   5  30
ATOM     30  C   UNL d   1       3.977   3.315  -0.021  0.00  0.00     0.047 A 
ATOM     31  C   UNL d   1       4.794   3.802  -1.053  0.00  0.00     0.030 A 
ATOM     32  C   UNL d   1       5.287   5.108  -1.016  0.00  0.00     0.002 A 
ATOM     33  C   UNL d   1       4.988   5.933   0.066  0.00  0.00     0.000 A 
ATOM     34  C   UNL d   1       4.179   5.461   1.098  0.00  0.00     0.002 A 
ATOM     35  C   UNL d   1       3.661   4.164   1.049  0.00  0.00     0.030 A 
ENDBRANCH   5  30
BRANCH  14  36
ATOM     36  N   UNL d   1      -6.161  -0.174   0.011  0.00  0.00    -0.116 N 
ATOM     37  O   UNL d   1      -6.511  -1.362   0.017  0.00  0.00    -0.532 OA
ATOM     38  O   UNL d   1      -6.939   0.791   0.020  0.00  0.00    -0.532 OA
ENDBRANCH  14  36
TORSDOF 3
