REMARK  0 active torsions:
REMARK  status: ('A' for Active; 'I' for Inactive)
ROOT
ATOM      1  C   UNL d   1       0.009   0.474   0.005  0.00  0.00     0.038 A 
ATOM      2  C   UNL d   1      -1.198  -0.220  -0.004  0.00  0.00     0.012 A 
ATOM      3  C   UNL d   1       1.203  -0.244   0.011  0.00  0.00     0.012 A 
ATOM      4  C   UNL d   1      -0.018  -2.338   0.003  0.00  0.00    -0.059 A 
ATOM      5  C   UNL d   1      -1.219  -1.615  -0.006  0.00  0.00     0.026 A 
ATOM      6  C   UNL d   1       1.197  -1.641   0.012  0.00  0.00     0.026 A 
ATOM      7 BR   UNL d   1       2.851   0.684   0.016  0.00  0.00    -0.051 Br
ATOM      8 BR   UNL d   1      -2.828   0.739  -0.011  0.00  0.00    -0.051 Br
ATOM      9  C   UNL d   1      -0.051  -3.838   0.004  0.00  0.00     0.048 C 
ENDROOT
TORSDOF 0
