REMARK  1 active torsions:
REMARK  status: ('A' for Active; 'I' for Inactive)
REMARK    1  A    between atoms: C_5  and  N_1 
ROOT
ATOM      1  N   UNL d   1      -1.902   0.170   0.072  0.00  0.00    -0.242 N 
ATOM      2  C   UNL d   1      -1.246  -1.038   0.135  0.00  0.00     0.268 A 
ATOM      3  C   UNL d   1      -1.019   1.217  -0.079  0.00  0.00     0.283 A 
ATOM      4  C   UNL d   1       0.178  -0.740   0.081  0.00  0.00     0.065 A 
ATOM      5  C   UNL d   1       0.321   0.620  -0.021  0.00  0.00     0.117 A 
ATOM      6  N   UNL d   1       1.490   1.283  -0.083  0.00  0.00    -0.361 N 
ATOM      7  HN  UNL d   1       1.549   2.300  -0.147  1.00  0.00     0.165 HD
ATOM      8  O   UNL d   1      -1.671  -2.179   0.168  0.00  0.00    -0.267 OA
ATOM      9  O   UNL d   1      -1.245   2.407  -0.218  0.00  0.00    -0.265 OA
ATOM     10  C   UNL d   1       1.290  -1.553   0.085  0.00  0.00     0.021 A 
ATOM     11  C   UNL d   1       2.582   0.482  -0.051  0.00  0.00     0.088 A 
ATOM     12  C   UNL d   1       2.532  -0.917   0.019  0.00  0.00     0.018 A 
ENDROOT
BRANCH   1  13
ATOM     13  C   UNL d   1      -3.306   0.302  -0.012  0.00  0.00     0.054 A 
ATOM     14  C   UNL d   1      -3.845   1.030  -1.084  0.00  0.00     0.073 A 
ATOM     15  C   UNL d   1      -5.222   1.119  -1.249  0.00  0.00     0.118 A 
ATOM     16  F   UNL d   1      -5.718   1.778  -2.304  0.00  0.00    -0.206 F 
ATOM     17  C   UNL d   1      -6.089   0.523  -0.347  0.00  0.00     0.043 A 
ATOM     18  C   UNL d   1      -5.569  -0.170   0.744  0.00  0.00     0.012 A 
ATOM     19  C   UNL d   1      -4.177  -0.288   0.930  0.00  0.00    -0.034 A 
ATOM     20  C   UNL d   1      -3.714  -0.966   2.193  0.00  0.00     0.050 C 
ENDBRANCH   1  13
TORSDOF 1
