REMARK  8 active torsions:
REMARK  status: ('A' for Active; 'I' for Inactive)
REMARK    1  A    between atoms: C_8  and  C_1 
REMARK    2  A    between atoms: C_3  and  C_2 
REMARK    3  A    between atoms: N_12  and  C_6 
REMARK    4  A    between atoms: C_7  and  O_13 
REMARK    5  A    between atoms: O_23  and  C_8 
REMARK    6  A    between atoms: C_21  and  N_12 
REMARK    7  A    between atoms: O_13  and  C_22 
REMARK    8  A    between atoms: C_28  and  O_23 
ROOT
ATOM      1  C   UNL d   1      -0.018  -1.565   0.057  0.00  0.00     0.087 A 
ATOM      2  C   UNL d   1       1.151  -0.832  -0.019  0.00  0.00     0.150 A 
ATOM      3  N   UNL d   1       1.120   0.539  -0.133  0.00  0.00    -0.185 N 
ATOM      4  HN  UNL d   1       1.983   1.069  -0.254  1.00  0.00     0.184 HD
ATOM      5  C   UNL d   1      -0.062   1.167  -0.082  0.00  0.00     0.683 A 
ATOM      6  N   UNL d   1      -1.222   0.513   0.038  0.00  0.00    -0.201 N 
ATOM      7  HN  UNL d   1      -2.108   1.015   0.085  1.00  0.00     0.183 HD
ATOM      8  C   UNL d   1      -1.181  -0.830   0.096  0.00  0.00     0.126 A 
ENDROOT
BRANCH   5   9
ATOM      9  N   UNL d   1      -0.055   2.552  -0.198  0.00  0.00    -0.192 N 
ATOM     10  H   UNL d   1       0.872   2.902  -0.385  0.00  0.00     0.184 HD
BRANCH   9  11
ATOM     11  C   UNL d   1      -0.985   3.487   0.284  0.00  0.00     0.049 A 
ATOM     12  C   UNL d   1      -1.878   3.208   1.322  0.00  0.00     0.033 A 
ATOM     13  C   UNL d   1      -2.801   4.160   1.775  0.00  0.00     0.039 A 
ATOM     14  C   UNL d   1      -2.849   5.419   1.179  0.00  0.00     0.078 A 
ATOM     15  C   UNL d   1      -2.003   5.688   0.102  0.00  0.00     0.039 A 
ATOM     16  C   UNL d   1      -1.070   4.739  -0.334  0.00  0.00     0.033 A 
BRANCH  14  17
ATOM     17  O   UNL d   1      -3.668   6.450   1.534  0.00  0.00    -0.255 OA
BRANCH  17  18
ATOM     18  C   UNL d   1      -4.306   6.376   2.798  0.00  0.00     0.530 C 
ATOM     19  F   UNL d   1      -3.447   6.018   3.777  0.00  0.00    -0.144 F 
ATOM     20  F   UNL d   1      -4.796   7.598   3.104  0.00  0.00    -0.144 F 
ATOM     21  F   UNL d   1      -5.337   5.505   2.763  0.00  0.00    -0.144 F 
ENDBRANCH  17  18
ENDBRANCH  14  17
ENDBRANCH   9  11
ENDBRANCH   5   9
BRANCH   2  22
ATOM     22  C   UNL d   1       2.519  -1.477   0.057  0.00  0.00     0.434 C 
ATOM     23  F   UNL d   1       2.555  -2.654   0.743  0.00  0.00    -0.165 F 
ATOM     24  F   UNL d   1       3.055  -1.729  -1.169  0.00  0.00    -0.165 F 
ATOM     25  F   UNL d   1       3.432  -0.686   0.699  0.00  0.00    -0.165 F 
ENDBRANCH   2  22
BRANCH   1  26
ATOM     26  C   UNL d   1      -0.171  -3.019   0.144  0.00  0.00     0.296 C 
ATOM     27  O   UNL d   1      -1.068  -3.540   0.785  0.00  0.00    -0.259 OA
BRANCH  26  28
ATOM     28  O   UNL d   1       0.721  -3.649  -0.653  0.00  0.00    -0.318 OA
BRANCH  28  29
ATOM     29  C   UNL d   1       0.595  -5.082  -0.680  0.00  0.00     0.174 C 
ATOM     30  C   UNL d   1       1.139  -5.707   0.594  0.00  0.00     0.034 C 
ENDBRANCH  28  29
ENDBRANCH  26  28
ENDBRANCH   1  26
TORSDOF 8
