REMARK  3 active torsions:
REMARK  status: ('A' for Active; 'I' for Inactive)
REMARK    1  A    between atoms: N_2  and  C_1 
REMARK       I    between atoms: C_3  and  N_2 
REMARK    2  A    between atoms: C_4  and  C_3 
REMARK    3  A    between atoms: O_13  and  N_6 
ROOT
ATOM      1  N   UNL d   1       1.346  -2.461  -0.356  0.00  0.00    -0.321 N 
ATOM      2  C   UNL d   1       0.884  -3.725  -0.056  0.00  0.00     0.263 C 
ATOM      3  O   UNL d   1      -0.261  -4.082   0.173  0.00  0.00    -0.267 OA
ATOM      4  H   UNL d   1       2.327  -2.358  -0.601  0.00  0.00     0.169 HD
ENDROOT
BRANCH   1   5
ATOM      5  C   UNL d   1       0.592  -1.257  -0.339  0.00  0.00     0.058 A 
ATOM      6  C   UNL d   1      -0.756  -1.211   0.036  0.00  0.00     0.055 A 
ATOM      7  C   UNL d   1      -1.437   0.008   0.087  0.00  0.00     0.036 A 
ATOM      8 CL   UNL d   1      -3.088   0.042   0.574  0.00  0.00    -0.084 Cl
ATOM      9  C   UNL d   1      -0.794   1.198  -0.239  0.00  0.00     0.026 A 
ATOM     10  C   UNL d   1       0.546   1.170  -0.626  0.00  0.00     0.028 A 
ATOM     11  C   UNL d   1       1.233  -0.048  -0.676  0.00  0.00     0.060 A 
ATOM     12 CL   UNL d   1       2.897  -0.023  -1.149  0.00  0.00    -0.082 Cl
ENDBRANCH   1   5
BRANCH   2  13
ATOM     13  C   UNL d   1       1.981  -4.751   0.070  0.00  0.00     0.188 C 
ATOM     14  N   UNL d   1       1.946  -5.844  -0.617  0.00  0.00    -0.275 N 
ATOM     15  HN  UNL d   1       1.240  -6.086  -1.312  1.00  0.00     0.193 HD
BRANCH  14  16
ATOM     16  O   UNL d   1       3.037  -6.642  -0.249  0.00  0.00    -0.290 OA
ATOM     17  H   UNL d   1       2.816  -7.499  -0.662  0.00  0.00     0.244 HD
ENDBRANCH  14  16
ENDBRANCH   2  13
TORSDOF 3
