REMARK  1 active torsions:
REMARK  status: ('A' for Active; 'I' for Inactive)
REMARK    1  A    between atoms: C_6  and  C_4 
ROOT
ATOM      1  N   UNL d   1       1.174   1.129   0.165  0.00  0.00    -0.301 N 
ATOM      2  HN  UNL d   1       1.650   2.007   0.369  1.00  0.00     0.186 HD
ATOM      3  N   UNL d   1      -0.176   1.089   0.003  0.00  0.00    -0.270 N 
ATOM      4  C   UNL d   1       1.841   0.020   0.053  0.00  0.00     0.036 C 
ATOM      5  C   UNL d   1      -0.958  -0.034  -0.047  0.00  0.00     0.236 C 
ATOM      6  O   UNL d   1      -2.174   0.032  -0.206  0.00  0.00    -0.272 OA
ATOM      7  C   UNL d   1       1.181  -1.301  -0.272  0.00  0.00     0.069 C 
ATOM      8  C   UNL d   1      -0.253  -1.335   0.204  0.00  0.00     0.110 C 
ATOM      9  H   UNL d   1      -0.650   1.984  -0.068  0.00  0.00     0.190 HD
ENDROOT
BRANCH   4  10
ATOM     10  C   UNL d   1       3.328   0.052   0.184  0.00  0.00    -0.012 A 
ATOM     11  C   UNL d   1       3.924   1.037   0.983  0.00  0.00     0.015 A 
ATOM     12  C   UNL d   1       5.316   1.086   1.115  0.00  0.00     0.024 A 
ATOM     13  C   UNL d   1       6.109   0.159   0.441  0.00  0.00     0.034 A 
ATOM     14  C   UNL d   1       5.524  -0.814  -0.368  0.00  0.00     0.024 A 
ATOM     15 CL   UNL d   1       7.819   0.219   0.602  0.00  0.00    -0.084 Cl
ATOM     16  C   UNL d   1       4.133  -0.869  -0.498  0.00  0.00     0.015 A 
ENDBRANCH   4  10
TORSDOF 1
