REMARK  7 active torsions:
REMARK  status: ('A' for Active; 'I' for Inactive)
REMARK    1  A    between atoms: C_2  and  S_1 
REMARK    2  A    between atoms: N_5  and  S_1 
REMARK    3  A    between atoms: C_6  and  C_3 
REMARK    4  A    between atoms: S_4  and  C_9 
REMARK    5  A    between atoms: N_15  and  S_4 
REMARK    6  A    between atoms: C_17  and  N_5 
REMARK    7  A    between atoms: O_20  and  C_6 
ROOT
ATOM      1  N   UNL d   1       0.770  -1.026   1.113  0.00  0.00    -0.181 NA
ATOM      2  H   UNL d   1      -0.011  -0.832   0.483  0.00  0.00     0.146 HD
ENDROOT
BRANCH   1   3
ATOM      3  S   UNL d   1       0.629  -0.074   2.493  0.00  0.00     0.247 S 
ATOM      4  O   UNL d   1       0.407   1.284   2.036  0.00  0.00    -0.205 OA
ATOM      5  O   UNL d   1      -0.241  -0.709   3.453  0.00  0.00    -0.205 OA
BRANCH   3   6
ATOM      6  C   UNL d   1       2.171   0.068   3.265  0.00  0.00     0.099 A 
ATOM      7  C   UNL d   1       3.323   0.497   2.628  0.00  0.00     0.101 A 
ATOM      8  S   UNL d   1       4.660   0.466   3.715  0.00  0.00    -0.094 SA
ATOM      9  C   UNL d   1       3.689  -0.042   5.023  0.00  0.00     0.052 A 
ATOM     10  C   UNL d   1       2.378  -0.224   4.649  0.00  0.00     0.033 A 
BRANCH   7  11
ATOM     11  C   UNL d   1       3.590   0.897   1.256  0.00  0.00     0.184 C 
ATOM     12  O   UNL d   1       4.619   0.656   0.642  0.00  0.00    -0.646 OA
BRANCH  11  13
ATOM     13  O   UNL d   1       2.589   1.604   0.676  0.00  0.00    -0.772 OA
ATOM     14  H   UNL d   1       1.817   1.847   1.236  0.00  0.00     0.167 HD
ENDBRANCH  11  13
ENDBRANCH   7  11
ENDBRANCH   3   6
ENDBRANCH   1   3
BRANCH   1  15
ATOM     15  C   UNL d   1       1.015  -2.419   1.287  0.00  0.00     0.022 A 
ATOM     16  C   UNL d   1      -0.024  -3.300   1.598  0.00  0.00     0.026 A 
ATOM     17  C   UNL d   1       0.234  -4.670   1.694  0.00  0.00     0.026 A 
ATOM     18  C   UNL d   1       1.535  -5.142   1.491  0.00  0.00     0.074 A 
ATOM     19  C   UNL d   1       2.575  -4.259   1.188  0.00  0.00     0.026 A 
ATOM     20  C   UNL d   1       2.312  -2.892   1.094  0.00  0.00     0.026 A 
BRANCH  18  21
ATOM     21  S   UNL d   1       1.865  -6.880   1.548  0.00  0.00     0.239 S 
ATOM     22  O   UNL d   1       0.628  -7.604   1.360  0.00  0.00    -0.206 OA
ATOM     23  O   UNL d   1       3.054  -7.163   0.780  0.00  0.00    -0.206 OA
BRANCH  21  24
ATOM     24  N   UNL d   1       2.288  -7.092   3.157  0.00  0.00    -0.225 NA
ATOM     25  H   UNL d   1       1.629  -7.725   3.609  0.00  0.00     0.136 HD
ATOM     26  H   UNL d   1       3.261  -7.396   3.222  0.00  0.00     0.136 HD
ENDBRANCH  21  24
ENDBRANCH  18  21
ENDBRANCH   1  15
TORSDOF 7
