REMARK  2 active torsions:
REMARK  status: ('A' for Active; 'I' for Inactive)
REMARK       I    between atoms: N_2  and  C_1 
REMARK       I    between atoms: N_4  and  C_1 
REMARK    1  A    between atoms: C_5  and  N_2 
REMARK    2  A    between atoms: C_8  and  C_5 
ROOT
ATOM      1  C   UNL d   1       1.085  -1.859  -1.600  0.00  0.00     0.162 C 
ENDROOT
BRANCH   1   2
ATOM      2  N   UNL d   1       0.567  -1.535  -0.293  0.00  0.00    -0.339 N 
ATOM      3  C   UNL d   1       1.323  -0.790   0.558  0.00  0.00     0.314 C 
ATOM      4  O   UNL d   1       2.373  -0.231   0.268  0.00  0.00    -0.248 OA
ATOM      5  N   UNL d   1       0.811  -0.734   1.811  0.00  0.00    -0.352 N 
ATOM      6  H   UNL d   1      -0.186  -0.818   1.937  0.00  0.00     0.160 HD
ATOM      7  H   UNL d   1       1.283  -0.080   2.423  0.00  0.00     0.160 HD
ATOM      8  H   UNL d   1      -0.105  -2.163   0.121  0.00  0.00     0.164 HD
ENDBRANCH   1   2
BRANCH   1   9
ATOM      9  C   UNL d   1       0.155  -2.768  -2.359  0.00  0.00    -0.039 A 
ATOM     10  C   UNL d   1      -0.906  -2.237  -3.108  0.00  0.00     0.032 A 
ATOM     11  C   UNL d   1      -1.751  -3.085  -3.825  0.00  0.00     0.034 A 
ATOM     12 CL   UNL d   1      -3.036  -2.421  -4.758  0.00  0.00    -0.084 Cl
ATOM     13  C   UNL d   1      -1.561  -4.465  -3.797  0.00  0.00     0.024 A 
ATOM     14  C   UNL d   1      -0.522  -5.004  -3.038  0.00  0.00     0.002 A 
ATOM     15  C   UNL d   1       0.327  -4.160  -2.318  0.00  0.00     0.009 A 
ENDBRANCH   1   9
TORSDOF 2
