REMARK  5 active torsions:
REMARK  status: ('A' for Active; 'I' for Inactive)
REMARK    1  A    between atoms: C_18  and  C_3 
REMARK    2  A    between atoms: C_12  and  C_4 
REMARK    3  A    between atoms: C_6  and  C_9 
REMARK    4  A    between atoms: C_19  and  O_25 
REMARK    5  A    between atoms: O_25  and  C_31 
ROOT
ATOM      1  N   UNL d   1       1.291  -0.480  -0.469  0.00  0.00    -0.349 N 
ATOM      2  HN  UNL d   1       2.118  -0.931  -0.859  1.00  0.00     0.166 HD
ATOM      3  C   UNL d   1       0.093  -1.033  -0.403  0.00  0.00     0.084 A 
ATOM      4  C   UNL d   1       1.267   0.798   0.064  0.00  0.00     0.050 A 
ATOM      5  S   UNL d   1      -1.118  -0.043   0.317  0.00  0.00    -0.081 SA
ATOM      6  C   UNL d   1       0.036   1.201   0.541  0.00  0.00     0.082 A 
ENDROOT
BRANCH   3   7
ATOM      7  C   UNL d   1      -0.200  -2.405  -0.835  0.00  0.00    -0.002 A 
ATOM      8  C   UNL d   1       0.798  -3.381  -0.699  0.00  0.00     0.017 A 
ATOM      9  C   UNL d   1       0.567  -4.702  -1.084  0.00  0.00     0.038 A 
ATOM     10  C   UNL d   1      -0.649  -5.063  -1.669  0.00  0.00     0.077 A 
ATOM     11  C   UNL d   1      -1.657  -4.107  -1.799  0.00  0.00     0.038 A 
ATOM     12  C   UNL d   1      -1.433  -2.787  -1.389  0.00  0.00     0.017 A 
BRANCH  10  13
ATOM     13  O   UNL d   1      -0.956  -6.341  -2.087  0.00  0.00    -0.294 OA
BRANCH  13  14
ATOM     14  C   UNL d   1       0.078  -7.123  -2.579  0.00  0.00     0.147 A 
ATOM     15  N   UNL d   1       1.086  -6.536  -3.269  0.00  0.00    -0.346 N 
ATOM     16  C   UNL d   1       2.126  -7.319  -3.621  0.00  0.00     0.106 A 
ATOM     17  HN  UNL d   1       1.059  -5.546  -3.512  1.00  0.00     0.167 HD
ATOM     18  C   UNL d   1       2.204  -8.676  -3.345  0.00  0.00     0.063 A 
ATOM     19  C   UNL d   1       1.107  -9.267  -2.708  0.00  0.00     0.022 A 
ATOM     20  C   UNL d   1       0.023  -8.482  -2.319  0.00  0.00     0.057 A 
BRANCH  18  21
ATOM     21  C   UNL d   1       3.429  -9.453  -3.707  0.00  0.00     0.418 C 
ATOM     22  F   UNL d   1       4.408  -8.695  -4.270  0.00  0.00    -0.166 F 
ATOM     23  F   UNL d   1       3.996 -10.048  -2.623  0.00  0.00    -0.166 F 
ATOM     24  F   UNL d   1       3.171 -10.453  -4.592  0.00  0.00    -0.166 F 
ENDBRANCH  18  21
ENDBRANCH  13  14
ENDBRANCH  10  13
ENDBRANCH   3   7
BRANCH   4  25
ATOM     25  C   UNL d   1       2.450   1.648   0.050  0.00  0.00    -0.008 A 
ATOM     26  C   UNL d   1       3.384   1.511  -0.986  0.00  0.00     0.022 A 
ATOM     27  C   UNL d   1       4.520   2.346  -1.101  0.00  0.00    -0.042 A 
ATOM     28  C   UNL d   1       5.480   2.134  -2.276  0.00  0.00    -0.020 C 
ATOM     29  C   UNL d   1       4.694   3.376  -0.153  0.00  0.00    -0.043 A 
ATOM     30  C   UNL d   1       6.799   2.919  -2.092  0.00  0.00     0.015 C 
ATOM     31  C   UNL d   1       4.770   2.575  -3.575  0.00  0.00     0.020 C 
ATOM     32  C   UNL d   1       5.885   0.647  -2.418  0.00  0.00     0.020 C 
ATOM     33  C   UNL d   1       6.576   4.337  -1.598  0.00  0.00     0.015 C 
ATOM     34  C   UNL d   1       5.835   4.397  -0.243  0.00  0.00    -0.020 C 
ATOM     35  C   UNL d   1       6.826   4.146   0.914  0.00  0.00     0.020 C 
ATOM     36  C   UNL d   1       5.289   5.841  -0.117  0.00  0.00     0.020 C 
ATOM     37  C   UNL d   1       3.786   3.457   0.926  0.00  0.00     0.009 A 
ATOM     38  C   UNL d   1       2.683   2.608   1.028  0.00  0.00     0.014 A 
ENDBRANCH   4  25
TORSDOF 5
