REMARK  5 active torsions:
REMARK  status: ('A' for Active; 'I' for Inactive)
REMARK    1  A    between atoms: C_7  and  N_1 
REMARK    2  A    between atoms: N_6  and  C_3 
REMARK    3  A    between atoms: C_18  and  N_6 
REMARK    4  A    between atoms: C_10  and  C_12 
REMARK    5  A    between atoms: C_11  and  C_13 
ROOT
ATOM      1  N   UNL d   1      -0.007   0.843   0.067  0.00  0.00    -0.243 N 
ATOM      2  C   UNL d   1      -1.159   0.111   0.165  0.00  0.00     0.257 A 
ATOM      3  C   UNL d   1       0.532  -1.391   0.086  0.00  0.00     0.107 A 
ATOM      4  C   UNL d   1       1.064  -0.003   0.015  0.00  0.00     0.282 A 
ATOM      5  C   UNL d   1      -0.791  -1.304   0.178  0.00  0.00     0.110 A 
ATOM      6  O   UNL d   1      -2.326   0.459   0.194  0.00  0.00    -0.268 OA
ATOM      7  O   UNL d   1       2.267   0.225  -0.034  0.00  0.00    -0.265 OA
ENDROOT
BRANCH   3   8
ATOM      8  N   UNL d   1       1.379  -2.474   0.101  0.00  0.00    -0.352 N 
ATOM      9  H   UNL d   1       2.342  -2.185   0.296  0.00  0.00     0.166 HD
BRANCH   8  10
ATOM     10  C   UNL d   1       1.376  -3.513  -0.858  0.00  0.00     0.032 A 
ATOM     11  C   UNL d   1       0.456  -3.608  -1.903  0.00  0.00     0.030 A 
ATOM     12  C   UNL d   1       0.521  -4.657  -2.828  0.00  0.00     0.010 A 
ATOM     13  C   UNL d   1       1.497  -5.664  -2.732  0.00  0.00    -0.051 A 
ATOM     14  C   UNL d   1       2.386  -5.587  -1.651  0.00  0.00     0.010 A 
ATOM     15  C   UNL d   1       2.322  -4.534  -0.729  0.00  0.00     0.030 A 
BRANCH  13  16
ATOM     16  C   UNL d   1       1.562  -6.781  -3.786  0.00  0.00    -0.024 C 
ATOM     17  C   UNL d   1       2.711  -7.785  -3.546  0.00  0.00     0.019 C 
ATOM     18  C   UNL d   1       0.241  -7.579  -3.787  0.00  0.00     0.019 C 
ATOM     19  C   UNL d   1       1.778  -6.167  -5.187  0.00  0.00     0.019 C 
ENDBRANCH  13  16
ENDBRANCH   8  10
ENDBRANCH   3   8
BRANCH   1  20
ATOM     20  C   UNL d   1       0.059   2.258   0.047  0.00  0.00     0.046 A 
ATOM     21  C   UNL d   1      -0.953   3.032   0.621  0.00  0.00     0.031 A 
ATOM     22  C   UNL d   1      -0.884   4.430   0.627  0.00  0.00     0.010 A 
ATOM     23  C   UNL d   1       0.182   5.115   0.023  0.00  0.00    -0.051 A 
ATOM     24  C   UNL d   1       1.190   4.334  -0.559  0.00  0.00     0.010 A 
ATOM     25  C   UNL d   1       1.137   2.932  -0.537  0.00  0.00     0.031 A 
BRANCH  23  26
ATOM     26  C   UNL d   1       0.200   6.653   0.006  0.00  0.00    -0.024 C 
ATOM     27  C   UNL d   1       1.407   7.244  -0.754  0.00  0.00     0.019 C 
ATOM     28  C   UNL d   1      -1.079   7.177  -0.684  0.00  0.00     0.019 C 
ATOM     29  C   UNL d   1       0.252   7.200   1.448  0.00  0.00     0.019 C 
ENDBRANCH  23  26
ENDBRANCH   1  20
TORSDOF 5
