REMARK  8 active torsions:
REMARK  status: ('A' for Active; 'I' for Inactive)
REMARK    1  A    between atoms: C_4  and  C_1 
REMARK    2  A    between atoms: C_9  and  N_5 
REMARK    3  A    between atoms: C_6  and  C_14 
REMARK    4  A    between atoms: C_8  and  C_9 
REMARK    5  A    between atoms: N_25  and  C_8 
REMARK    6  A    between atoms: C_10  and  O_17 
REMARK    7  A    between atoms: C_15  and  C_10 
REMARK    8  A    between atoms: O_17  and  N_12 
ROOT
ATOM      1  C   UNL d   1       3.216   0.513  -0.005  0.00  0.00     0.095 C 
ATOM      2  N   UNL d   1       3.074  -0.770  -0.159  0.00  0.00    -0.249 N 
ATOM      3  HN  UNL d   1       3.851  -1.400  -0.360  1.00  0.00     0.196 HD
ENDROOT
BRANCH   1   4
ATOM      4  C   UNL d   1       4.657   1.027  -0.052  0.00  0.00     0.219 C 
BRANCH   4   5
ATOM      5  N   UNL d   1       4.877   2.359  -0.615  0.00  0.00    -0.296 N 
ATOM      6  N   UNL d   1       3.959   3.350  -0.505  0.00  0.00    -0.294 N 
ATOM      7  C   UNL d   1       4.583   4.447  -0.990  0.00  0.00     0.133 A 
ATOM      8  HN  UNL d   1       3.010   3.283  -0.139  1.00  0.00     0.187 HD
ATOM      9  C   UNL d   1       5.901   4.133  -1.417  0.00  0.00     0.054 A 
ATOM     10  C   UNL d   1       6.060   2.795  -1.153  0.00  0.00     0.113 A 
BRANCH   7  11
ATOM     11  C   UNL d   1       3.951   5.815  -1.040  0.00  0.00     0.433 C 
ATOM     12  F   UNL d   1       2.725   5.868  -0.454  0.00  0.00    -0.165 F 
ATOM     13  F   UNL d   1       4.723   6.746  -0.413  0.00  0.00    -0.165 F 
ATOM     14  F   UNL d   1       3.792   6.250  -2.320  0.00  0.00    -0.165 F 
ENDBRANCH   7  11
ENDBRANCH   4   5
ENDBRANCH   1   4
BRANCH   1  15
ATOM     15  N   UNL d   1       2.182   1.382   0.254  0.00  0.00    -0.289 NA
ATOM     16  H   UNL d   1       2.387   2.356   0.003  0.00  0.00     0.125 HD
ATOM     17  H   UNL d   1       1.277   1.065  -0.067  0.00  0.00     0.125 HD
ENDBRANCH   1  15
BRANCH   2  18
ATOM     18  O   UNL d   1       1.733  -1.206  -0.022  0.00  0.00    -0.194 OA
BRANCH  18  19
ATOM     19  C   UNL d   1       1.711  -2.575  -0.087  0.00  0.00     0.315 C 
ATOM     20  O   UNL d   1       2.675  -3.318  -0.237  0.00  0.00    -0.257 OA
BRANCH  19  21
ATOM     21  C   UNL d   1       0.327  -3.125   0.024  0.00  0.00     0.042 A 
ATOM     22  C   UNL d   1      -0.802  -2.346   0.318  0.00  0.00     0.034 A 
ATOM     23  C   UNL d   1      -2.077  -2.944   0.409  0.00  0.00     0.048 A 
ATOM     24  C   UNL d   1      -2.206  -4.327   0.195  0.00  0.00     0.016 A 
ATOM     25  C   UNL d   1      -1.088  -5.105  -0.089  0.00  0.00     0.002 A 
ATOM     26  C   UNL d   1       0.169  -4.508  -0.171  0.00  0.00     0.018 A 
BRANCH  23  27
ATOM     27  C   UNL d   1      -3.309  -2.133   0.738  0.00  0.00     0.417 C 
ATOM     28  F   UNL d   1      -3.048  -0.814   0.947  0.00  0.00    -0.166 F 
ATOM     29  F   UNL d   1      -4.242  -2.180  -0.252  0.00  0.00    -0.166 F 
ATOM     30  F   UNL d   1      -3.934  -2.575   1.864  0.00  0.00    -0.166 F 
ENDBRANCH  23  27
ENDBRANCH  19  21
ENDBRANCH  18  19
ENDBRANCH   2  18
TORSDOF 8
