REMARK  4 active torsions:
REMARK  status: ('A' for Active; 'I' for Inactive)
REMARK    1  A    between atoms: S_8  and  C_2 
REMARK    2  A    between atoms: C_14  and  S_8 
REMARK    3  A    between atoms: O_15  and  C_9 
REMARK    4  A    between atoms: O_16  and  C_10 
ROOT
ATOM      1  C   UNL d   1       0.184   0.780   0.210  0.00  0.00     0.027 A 
ATOM      2  C   UNL d   1      -1.096   1.364   0.189  0.00  0.00     0.088 A 
ATOM      3  C   UNL d   1       0.205  -0.613   0.074  0.00  0.00     0.049 A 
ATOM      4  C   UNL d   1       1.411   1.479   0.308  0.00  0.00     0.056 A 
ATOM      5  N   UNL d   1      -2.236   0.646   0.130  0.00  0.00    -0.346 N 
ATOM      6  HN  UNL d   1      -3.155   1.087   0.141  1.00  0.00     0.167 HD
ATOM      7  C   UNL d   1       1.437  -1.244  -0.060  0.00  0.00     0.070 A 
ATOM      8  C   UNL d   1       2.648   0.838   0.180  0.00  0.00     0.102 A 
ATOM      9  C   UNL d   1       2.655  -0.539  -0.033  0.00  0.00     0.103 A 
ATOM     10  N   UNL d   1      -0.922  -1.339   0.013  0.00  0.00    -0.351 N 
ATOM     11  HN  UNL d   1      -0.895  -2.356  -0.062  1.00  0.00     0.166 HD
ATOM     12  C   UNL d   1      -2.083  -0.677   0.057  0.00  0.00     0.181 A 
ENDROOT
BRANCH   2  13
ATOM     13  S   UNL d   1      -1.320   3.122  -0.068  0.00  0.00    -0.072 SA
BRANCH  13  14
ATOM     14  C   UNL d   1      -1.570   3.815   1.551  0.00  0.00     0.007 A 
ATOM     15  C   UNL d   1      -1.139   5.133   1.761  0.00  0.00     0.019 A 
ATOM     16  C   UNL d   1      -1.400   5.790   2.966  0.00  0.00     0.008 A 
ATOM     17  C   UNL d   1      -2.103   5.141   3.985  0.00  0.00    -0.062 A 
ATOM     18  C   UNL d   1      -2.517   3.819   3.785  0.00  0.00     0.008 A 
ATOM     19  C   UNL d   1      -2.421   5.874   5.255  0.00  0.00     0.048 C 
ATOM     20  C   UNL d   1      -2.256   3.163   2.576  0.00  0.00     0.019 A 
ENDBRANCH  13  14
ENDBRANCH   2  13
BRANCH   8  21
ATOM     21  O   UNL d   1       3.687   1.719   0.249  0.00  0.00    -0.353 OA
ATOM     22  C   UNL d   1       5.016   1.256   0.101  0.00  0.00     0.210 C 
ENDBRANCH   8  21
BRANCH   9  23
ATOM     23  O   UNL d   1       3.782  -1.222  -0.399  0.00  0.00    -0.353 OA
ATOM     24  C   UNL d   1       4.438  -1.851   0.699  0.00  0.00     0.210 C 
ENDBRANCH   9  23
TORSDOF 4
