REMARK  2 active torsions:
REMARK  status: ('A' for Active; 'I' for Inactive)
REMARK    1  A    between atoms: C_2  and  S_1 
REMARK    2  A    between atoms: N_7  and  S_1 
ROOT
ATOM      1  S   UNL d   1       0.914  -0.136  -0.093  0.00  0.00     0.250 S 
ATOM      2  O   UNL d   1       2.332  -0.340  -0.301  0.00  0.00    -0.205 OA
ATOM      3  O   UNL d   1      -0.048  -0.452  -1.128  0.00  0.00    -0.205 OA
ENDROOT
BRANCH   1   4
ATOM      4  C   UNL d   1       0.749   1.610   0.187  0.00  0.00     0.118 A 
ATOM      5  S   UNL d   1      -0.841   2.183   0.475  0.00  0.00    -0.064 SA
ATOM      6  C   UNL d   1      -0.296   3.783   0.604  0.00  0.00     0.093 A 
ATOM      7 CL   UNL d   1      -1.443   5.031   0.890  0.00  0.00    -0.075 Cl
ATOM      8  C   UNL d   1       1.061   3.891   0.463  0.00  0.00     0.041 A 
ATOM      9  C   UNL d   1       1.678   2.636   0.224  0.00  0.00     0.053 A 
ATOM     10 BR   UNL d   1       2.080   5.477   0.553  0.00  0.00    -0.049 Br
ENDBRANCH   1   4
BRANCH   1  11
ATOM     11  N   UNL d   1       0.460  -0.941   1.338  0.00  0.00    -0.206 NA
ATOM     12  C   UNL d   1       1.356  -0.762   2.504  0.00  0.00     0.107 C 
ATOM     13  C   UNL d   1       2.286  -1.958   2.455  0.00  0.00     0.017 C 
ATOM     14  C   UNL d   1       1.422  -3.082   1.909  0.00  0.00     0.017 C 
ATOM     15  C   UNL d   1       0.262  -2.408   1.184  0.00  0.00     0.107 C 
ENDBRANCH   1  11
TORSDOF 2
