REMARK  12 active torsions:
REMARK  status: ('A' for Active; 'I' for Inactive)
REMARK    1  A    between atoms: C_2  and  N_1 
REMARK       I    between atoms: C_4  and  N_1 
REMARK    2  A    between atoms: O_12  and  C_3 
REMARK    3  A    between atoms: C_15  and  C_4 
REMARK    4  A    between atoms: C_6  and  C_16 
REMARK    5  A    between atoms: O_13  and  C_6 
REMARK    6  A    between atoms: O_14  and  C_10 
REMARK    7  A    between atoms: C_21  and  C_15 
REMARK    8  A    between atoms: C_16  and  C_20 
REMARK    9  A    between atoms: C_20  and  C_24 
REMARK   10  A    between atoms: C_22  and  C_21 
REMARK   11  A    between atoms: C_23  and  C_22 
REMARK   12  A    between atoms: C_24  and  C_23 
ROOT
ATOM      1  N   UNL d   1       2.272   1.829   0.435  0.00  0.00    -0.325 N 
ATOM      2  C   UNL d   1       2.515   0.574  -0.093  0.00  0.00     0.222 C 
ATOM      3  O   UNL d   1       2.158  -0.486   0.415  0.00  0.00    -0.273 OA
ATOM      4  H   UNL d   1       2.274   2.621  -0.194  0.00  0.00     0.169 HD
ENDROOT
BRANCH   2   5
ATOM      5  C   UNL d   1       3.291   0.590  -1.394  0.00  0.00     0.103 C 
BRANCH   5   6
ATOM      6  C   UNL d   1       4.762   0.290  -1.122  0.00  0.00     0.009 C 
BRANCH   6   7
ATOM      7  C   UNL d   1       5.569   0.211  -2.418  0.00  0.00     0.000 C 
BRANCH   7   8
ATOM      8  C   UNL d   1       7.041  -0.080  -2.129  0.00  0.00     0.000 C 
BRANCH   8   9
ATOM      9  C   UNL d   1       7.870  -0.156  -3.412  0.00  0.00     0.000 C 
BRANCH   9  10
ATOM     10  C   UNL d   1       9.332  -0.442  -3.078  0.00  0.00     0.010 C 
BRANCH  10  11
ATOM     11  C   UNL d   1      10.211  -0.531  -4.324  0.00  0.00     0.111 C 
BRANCH  11  12
ATOM     12  C   UNL d   1      11.641  -0.820  -3.947  0.00  0.00     0.258 C 
ATOM     13  O   UNL d   1      12.049  -0.978  -2.799  0.00  0.00    -0.265 OA
BRANCH  12  14
ATOM     14  O   UNL d   1      12.418  -0.885  -5.060  0.00  0.00    -0.326 OA
ATOM     15  C   UNL d   1      13.792  -1.155  -4.779  0.00  0.00     0.213 C 
ENDBRANCH  12  14
ENDBRANCH  11  12
ENDBRANCH  10  11
ENDBRANCH   9  10
ENDBRANCH   8   9
ENDBRANCH   7   8
ENDBRANCH   6   7
ENDBRANCH   5   6
ENDBRANCH   2   5
BRANCH   1  16
ATOM     16  C   UNL d   1       1.640   2.016   1.683  0.00  0.00     0.068 A 
ATOM     17  C   UNL d   1       0.601   2.943   1.860  0.00  0.00     0.097 A 
ATOM     18  C   UNL d   1       0.134   3.226   3.156  0.00  0.00     0.075 A 
ATOM     19  C   UNL d   1       0.699   2.608   4.272  0.00  0.00     0.070 A 
ATOM     20  C   UNL d   1       1.709   1.665   4.085  0.00  0.00     0.039 A 
ATOM     21  C   UNL d   1       2.166   1.358   2.801  0.00  0.00     0.035 A 
BRANCH  17  22
ATOM     22  O   UNL d   1      -0.030   3.659   0.872  0.00  0.00    -0.354 OA
ATOM     23  C   UNL d   1      -0.319   2.964  -0.338  0.00  0.00     0.210 C 
ENDBRANCH  17  22
BRANCH  19  24
ATOM     24  O   UNL d   1       0.372   2.840   5.580  0.00  0.00    -0.356 OA
ATOM     25  C   UNL d   1      -0.641   3.804   5.835  0.00  0.00     0.210 C 
ENDBRANCH  19  24
ENDBRANCH   1  16
TORSDOF 12
