REMARK  3 active torsions:
REMARK  status: ('A' for Active; 'I' for Inactive)
REMARK    1  A    between atoms: C_4  and  C_1 
REMARK       I    between atoms: N_10  and  C_4 
REMARK    2  A    between atoms: C_7  and  C_13 
REMARK    3  A    between atoms: N_8  and  N_10 
ROOT
ATOM      1  C   UNL d   1       3.957  -0.068   0.205  0.00  0.00     0.278 C 
ATOM      2  N   UNL d   1       4.585  -1.295  -0.017  0.00  0.00    -0.266 N 
ATOM      3  O   UNL d   1       4.609   0.964   0.376  0.00  0.00    -0.265 OA
ATOM      4  H   UNL d   1       4.042  -2.142  -0.147  0.00  0.00     0.190 HD
ENDROOT
BRANCH   2   5
ATOM      5  N   UNL d   1       5.942  -1.331  -0.154  0.00  0.00    -0.308 N 
ATOM      6  C   UNL d   1       6.488  -2.491  -0.316  0.00  0.00     0.122 C 
ATOM      7  HN  UNL d   1       6.502  -0.479  -0.130  1.00  0.00     0.186 HD
BRANCH   6   8
ATOM      8  C   UNL d   1       7.949  -2.634  -0.532  0.00  0.00     0.024 A 
ATOM      9  C   UNL d   1       8.889  -1.760   0.042  0.00  0.00     0.047 A 
ATOM     10 CL   UNL d   1       8.489  -0.520   1.180  0.00  0.00    -0.083 Cl
ATOM     11  C   UNL d   1      10.254  -1.904  -0.245  0.00  0.00     0.025 A 
ATOM     12  C   UNL d   1      10.699  -2.921  -1.086  0.00  0.00     0.003 A 
ATOM     13  C   UNL d   1       9.780  -3.806  -1.637  0.00  0.00     0.025 A 
ATOM     14  C   UNL d   1       8.412  -3.668  -1.365  0.00  0.00     0.047 A 
ATOM     15 CL   UNL d   1       7.351  -4.803  -2.129  0.00  0.00    -0.083 Cl
ENDBRANCH   6   8
ENDBRANCH   2   5
BRANCH   1  16
ATOM     16  C   UNL d   1       2.494  -0.081   0.203  0.00  0.00     0.097 A 
ATOM     17  S   UNL d   1       1.707   1.421   0.490  0.00  0.00    -0.082 SA
ATOM     18  C   UNL d   1       0.141   0.761   0.286  0.00  0.00     0.017 A 
ATOM     19  C   UNL d   1      -1.079   1.459   0.374  0.00  0.00     0.020 A 
ATOM     20  C   UNL d   1       0.195  -0.605   0.006  0.00  0.00     0.004 A 
ATOM     21  C   UNL d   1      -2.272   0.770   0.152  0.00  0.00     0.001 A 
ATOM     22  C   UNL d   1      -2.254  -0.582  -0.147  0.00  0.00     0.001 A 
ATOM     23  C   UNL d   1      -1.040  -1.274  -0.217  0.00  0.00     0.014 A 
ATOM     24  C   UNL d   1       1.562  -1.081  -0.001  0.00  0.00     0.068 A 
ATOM     25 CL   UNL d   1       1.910  -2.748  -0.268  0.00  0.00    -0.082 Cl
ENDBRANCH   1  16
TORSDOF 3
