REMARK  7 active torsions:
REMARK  status: ('A' for Active; 'I' for Inactive)
REMARK    1  A    between atoms: C_9  and  N_1 
REMARK    2  A    between atoms: S_8  and  C_2 
REMARK    3  A    between atoms: C_7  and  O_11 
REMARK    4  A    between atoms: C_20  and  S_8 
REMARK    5  A    between atoms: N_12  and  C_10 
REMARK    6  A    between atoms: O_11  and  C_21 
REMARK    7  A    between atoms: C_22  and  C_20 
ROOT
ATOM      1  N   UNL d   1      -0.097  -1.387  -0.008  0.00  0.00    -0.219 N 
ATOM      2  C   UNL d   1       1.103  -0.702   0.158  0.00  0.00     0.177 A 
ATOM      3  N   UNL d   1       0.862   0.594   0.170  0.00  0.00    -0.264 N 
ATOM      4  HN  UNL d   1       1.543   1.342   0.304  1.00  0.00     0.186 HD
ATOM      5  N   UNL d   1      -0.478   0.737  -0.032  0.00  0.00    -0.006 NA
ATOM      6  N   UNL d   1      -1.065  -0.441  -0.174  0.00  0.00     0.001 NA
ENDROOT
BRANCH   2   7
ATOM      7  S   UNL d   1       2.696  -1.379   0.219  0.00  0.00    -0.087 SA
BRANCH   7   8
ATOM      8  C   UNL d   1       3.692   0.103   0.534  0.00  0.00     0.121 C 
BRANCH   8   9
ATOM      9  C   UNL d   1       5.159  -0.230   0.661  0.00  0.00    -0.048 A 
ATOM     10  C   UNL d   1       5.994  -0.196  -0.463  0.00  0.00     0.011 A 
ATOM     11  C   UNL d   1       7.359  -0.455  -0.335  0.00  0.00     0.037 A 
ATOM     12  C   UNL d   1       7.917  -0.744   0.913  0.00  0.00     0.078 A 
ATOM     13  C   UNL d   1       7.083  -0.846   2.025  0.00  0.00     0.037 A 
ATOM     14  C   UNL d   1       5.713  -0.585   1.900  0.00  0.00     0.011 A 
BRANCH  12  15
ATOM     15  O   UNL d   1       9.271  -0.908   0.905  0.00  0.00    -0.255 OA
BRANCH  15  16
ATOM     16  C   UNL d   1       9.958  -0.698   2.128  0.00  0.00     0.530 C 
ATOM     17  F   UNL d   1       9.460   0.345   2.826  0.00  0.00    -0.144 F 
ATOM     18  F   UNL d   1       9.912  -1.810   2.890  0.00  0.00    -0.144 F 
ATOM     19  F   UNL d   1      11.254  -0.427   1.851  0.00  0.00    -0.144 F 
ENDBRANCH  15  16
ENDBRANCH  12  15
ENDBRANCH   8   9
ENDBRANCH   7   8
ENDBRANCH   2   7
BRANCH   1  20
ATOM     20  C   UNL d   1      -0.448  -2.768  -0.026  0.00  0.00     0.057 A 
ATOM     21  C   UNL d   1       0.423  -3.779   0.374  0.00  0.00     0.033 A 
ATOM     22  C   UNL d   1       0.019  -5.122   0.338  0.00  0.00     0.031 A 
ATOM     23  C   UNL d   1      -1.256  -5.516  -0.095  0.00  0.00     0.029 A 
ATOM     24  C   UNL d   1      -2.131  -4.486  -0.460  0.00  0.00     0.031 A 
ATOM     25  C   UNL d   1      -1.741  -3.137  -0.430  0.00  0.00     0.033 A 
BRANCH  23  26
ATOM     26  N   UNL d   1      -1.616  -6.864  -0.078  0.00  0.00    -0.390 N 
ATOM     27  C   UNL d   1      -0.693  -7.809  -0.712  0.00  0.00     0.149 C 
ATOM     28  C   UNL d   1      -3.026  -7.229  -0.194  0.00  0.00     0.149 C 
ENDBRANCH  23  26
ENDBRANCH   1  20
TORSDOF 7
