REMARK  1 active torsions:
REMARK  status: ('A' for Active; 'I' for Inactive)
REMARK    1  A    between atoms: O_9  and  C_3 
ROOT
ATOM      1  N   UNL d   1       1.618   1.157  -0.002  0.00  0.00    -0.314 N 
ATOM      2  HN  UNL d   1       1.969   2.115  -0.001  1.00  0.00     0.170 HD
ATOM      3  C   UNL d   1       2.289   0.035  -0.003  0.00  0.00     0.268 A 
ATOM      4  O   UNL d   1       1.582  -1.119  -0.004  0.00  0.00    -0.272 OA
ATOM      5  C   UNL d   1       0.289  -0.676  -0.003  0.00  0.00     0.108 A 
ATOM      6  C   UNL d   1       0.318   0.714  -0.002  0.00  0.00     0.070 A 
ATOM      7  C   UNL d   1      -0.866  -1.448  -0.003  0.00  0.00     0.063 A 
ATOM      8  C   UNL d   1      -0.895   1.416  -0.002  0.00  0.00     0.034 A 
ATOM      9  C   UNL d   1      -2.064  -0.727  -0.002  0.00  0.00     0.036 A 
ATOM     10  C   UNL d   1      -2.087   0.674  -0.001  0.00  0.00     0.026 A 
ATOM     11 CL   UNL d   1      -3.556  -1.590   0.000  0.00  0.00    -0.084 Cl
ENDROOT
BRANCH   3  12
ATOM     12  O   UNL d   1       3.597  -0.063  -0.002  0.00  0.00    -0.326 OA
ATOM     13  H   UNL d   1       3.860   0.873   0.000  0.00  0.00     0.221 HD
ENDBRANCH   3  12
TORSDOF 1
