REMARK  3 active torsions:
REMARK  status: ('A' for Active; 'I' for Inactive)
REMARK    1  A    between atoms: C_2  and  C_1 
REMARK    2  A    between atoms: C_6  and  C_1 
REMARK    3  A    between atoms: O_7  and  N_3 
ROOT
ATOM      1  C   UNL d   1       1.099  -2.577   0.156  0.00  0.00     0.206 C 
ATOM      2  O   UNL d   1       0.407  -3.467  -0.327  0.00  0.00    -0.285 OA
ENDROOT
BRANCH   1   3
ATOM      3  C   UNL d   1       0.402  -1.482   0.933  0.00  0.00     0.079 C 
ATOM      4  N   UNL d   1       0.946  -1.071   2.043  0.00  0.00    -0.270 N 
ATOM      5  HN  UNL d   1       1.808  -1.450   2.436  1.00  0.00     0.194 HD
ATOM      6  C   UNL d   1      -0.878  -0.947   0.346  0.00  0.00     0.074 C 
BRANCH   4   7
ATOM      7  O   UNL d   1       0.199  -0.044   2.628  0.00  0.00    -0.290 OA
ATOM      8  H   UNL d   1       0.659   0.097   3.478  0.00  0.00     0.244 HD
ENDBRANCH   4   7
ENDBRANCH   1   3
BRANCH   1   9
ATOM      9  C   UNL d   1       2.576  -2.588  -0.003  0.00  0.00     0.016 A 
ATOM     10  C   UNL d   1       3.196  -3.811  -0.298  0.00  0.00     0.015 A 
ATOM     11  C   UNL d   1       4.582  -3.882  -0.445  0.00  0.00     0.001 A 
ATOM     12  C   UNL d   1       5.355  -2.731  -0.312  0.00  0.00     0.000 A 
ATOM     13  C   UNL d   1       4.744  -1.507  -0.035  0.00  0.00     0.001 A 
ATOM     14  C   UNL d   1       3.355  -1.432   0.118  0.00  0.00     0.015 A 
ENDBRANCH   1   9
TORSDOF 3
