REMARK  6 active torsions:
REMARK  status: ('A' for Active; 'I' for Inactive)
REMARK    1  A    between atoms: C_7  and  C_1 
REMARK    2  A    between atoms: N_18  and  C_4 
REMARK       I    between atoms: C_6  and  N_17 
REMARK       I    between atoms: N_9  and  C_6 
REMARK    3  A    between atoms: C_8  and  N_9 
REMARK    4  A    between atoms: N_17  and  C_26 
REMARK    5  A    between atoms: C_27  and  N_18 
REMARK    6  A    between atoms: C_26  and  C_27 
ROOT
ATOM      1  C   UNL d   1      -1.986   2.658  -6.155  0.00  0.00     0.139 C 
ENDROOT
BRANCH   1   2
ATOM      2  N   UNL d   1      -2.139   2.597  -7.603  0.00  0.00    -0.342 N 
ATOM      3  C   UNL d   1      -3.268   2.725  -8.356  0.00  0.00     0.320 C 
ATOM      4  N   UNL d   1      -4.348   3.268  -7.723  0.00  0.00    -0.307 N 
ATOM      5  O   UNL d   1      -3.232   2.376  -9.532  0.00  0.00    -0.247 OA
ATOM      6  H   UNL d   1      -4.132   3.980  -7.036  0.00  0.00     0.170 HD
ATOM      7  H   UNL d   1      -1.356   2.257  -8.150  0.00  0.00     0.164 HD
BRANCH   4   8
ATOM      8  C   UNL d   1      -5.672   3.300  -8.228  0.00  0.00     0.059 A 
ATOM      9  C   UNL d   1      -6.541   4.335  -7.828  0.00  0.00     0.082 A 
ATOM     10  C   UNL d   1      -7.877   4.330  -8.255  0.00  0.00     0.058 A 
ATOM     11 CL   UNL d   1      -5.919   5.625  -6.841  0.00  0.00    -0.080 Cl
ATOM     12 CL   UNL d   1      -8.998   5.573  -7.814  0.00  0.00    -0.082 Cl
ATOM     13  C   UNL d   1      -8.352   3.294  -9.062  0.00  0.00     0.026 A 
ATOM     14  C   UNL d   1      -7.492   2.275  -9.468  0.00  0.00     0.004 A 
ATOM     15  C   UNL d   1      -6.156   2.283  -9.060  0.00  0.00     0.031 A 
ENDBRANCH   4   8
ENDBRANCH   1   2
BRANCH   1  16
ATOM     16  C   UNL d   1      -1.558   1.315  -5.533  0.00  0.00     0.115 C 
BRANCH  16  17
ATOM     17  N   UNL d   1      -1.468   1.463  -4.094  0.00  0.00    -0.263 NA
ATOM     18  H   UNL d   1      -0.909   2.233  -3.741  0.00  0.00     0.130 HD
BRANCH  17  19
ATOM     19  C   UNL d   1      -1.091   0.349  -3.362  0.00  0.00     0.157 A 
ATOM     20  N   UNL d   1      -0.498   0.614  -2.195  0.00  0.00    -0.329 N 
ATOM     21  C   UNL d   1      -0.152  -0.433  -1.399  0.00  0.00     0.120 A 
ATOM     22  HN  UNL d   1      -0.311   1.575  -1.909  1.00  0.00     0.168 HD
ATOM     23  C   UNL d   1      -0.382  -1.742  -1.782  0.00  0.00     0.051 A 
ATOM     24  C   UNL d   1      -0.975  -1.909  -3.007  0.00  0.00     0.093 A 
ATOM     25  N   UNL d   1      -1.333  -0.889  -3.810  0.00  0.00    -0.343 N 
ATOM     26  HN  UNL d   1      -1.770  -1.053  -4.717  1.00  0.00     0.167 HD
BRANCH  21  27
ATOM     27  C   UNL d   1       0.485  -0.166  -0.047  0.00  0.00     0.432 C 
ATOM     28  F   UNL d   1       0.708   1.153   0.220  0.00  0.00    -0.165 F 
ATOM     29  F   UNL d   1       1.697  -0.780   0.087  0.00  0.00    -0.165 F 
ATOM     30  F   UNL d   1      -0.274  -0.633   0.987  0.00  0.00    -0.165 F 
ENDBRANCH  21  27
ENDBRANCH  17  19
ENDBRANCH  16  17
ENDBRANCH   1  16
TORSDOF 6
