REMARK  4 active torsions:
REMARK  status: ('A' for Active; 'I' for Inactive)
REMARK    1  A    between atoms: O_5  and  C_1 
REMARK       I    between atoms: N_6  and  C_1 
REMARK    2  A    between atoms: N_2  and  C_3 
REMARK    3  A    between atoms: C_4  and  O_5 
REMARK    4  A    between atoms: C_9  and  N_6 
ROOT
ATOM      1  C   UNL d   1      -1.765  -0.434  -1.165  0.00  0.00     0.064 A 
ATOM      2  C   UNL d   1      -1.102  -1.080  -0.095  0.00  0.00     0.107 A 
ATOM      3  C   UNL d   1      -1.761  -2.008   0.734  0.00  0.00     0.040 A 
ATOM      4  C   UNL d   1      -3.146  -0.732  -1.281  0.00  0.00     0.032 A 
ATOM      5  C   UNL d   1      -3.106  -2.301   0.545  0.00  0.00     0.003 A 
ATOM      6  C   UNL d   1      -3.804  -1.646  -0.453  0.00  0.00     0.002 A 
ENDROOT
BRANCH   2   7
ATOM      7  O   UNL d   1       0.211  -0.667   0.259  0.00  0.00    -0.259 OA
BRANCH   7   8
ATOM      8  C   UNL d   1       1.014  -1.384   1.139  0.00  0.00     0.370 C 
ATOM      9  N   UNL d   1       1.759  -0.615   2.003  0.00  0.00    -0.302 N 
ATOM     10  H   UNL d   1       2.459  -1.165   2.485  0.00  0.00     0.171 HD
ATOM     11  O   UNL d   1       1.121  -2.605   1.142  0.00  0.00    -0.238 OA
BRANCH   9  12
ATOM     12  C   UNL d   1       1.735   0.770   2.240  0.00  0.00     0.036 A 
ATOM     13  C   UNL d   1       0.681   1.614   1.876  0.00  0.00     0.031 A 
ATOM     14  C   UNL d   1       0.796   3.000   2.013  0.00  0.00     0.026 A 
ATOM     15  C   UNL d   1       1.949   3.547   2.558  0.00  0.00     0.034 A 
ATOM     16  C   UNL d   1       2.963   2.716   3.023  0.00  0.00     0.026 A 
ATOM     17 CL   UNL d   1       2.128   5.255   2.651  0.00  0.00    -0.084 Cl
ATOM     18  C   UNL d   1       2.849   1.328   2.878  0.00  0.00     0.031 A 
ENDBRANCH   9  12
ENDBRANCH   7   8
ENDBRANCH   2   7
BRANCH   1  19
ATOM     19  N   UNL d   1      -1.236   0.503  -2.058  0.00  0.00    -0.377 N 
ATOM     20  C   UNL d   1       0.033   1.212  -1.830  0.00  0.00     0.133 C 
ATOM     21  C   UNL d   1      -0.016   2.635  -2.410  0.00  0.00     0.093 C 
ATOM     22  S   UNL d   1      -0.347   2.692  -4.203  0.00  0.00    -0.166 SA
ATOM     23  C   UNL d   1      -1.802   1.592  -4.213  0.00  0.00     0.093 C 
ATOM     24  C   UNL d   1      -1.512   0.267  -3.499  0.00  0.00     0.133 C 
ENDBRANCH   1  19
TORSDOF 4
