REMARK  3 active torsions:
REMARK  status: ('A' for Active; 'I' for Inactive)
REMARK    1  A    between atoms: N_6  and  C_3 
REMARK    2  A    between atoms: C_10  and  C_4 
REMARK    3  A    between atoms: C_8  and  N_6 
ROOT
ATOM      1  N   UNL d   1       1.414  -0.562  -0.020  0.00  0.00    -0.339 N 
ATOM      2  HN  UNL d   1       2.324  -1.015   0.054  1.00  0.00     0.168 HD
ATOM      3  C   UNL d   1       0.274  -1.210  -0.116  0.00  0.00     0.149 A 
ATOM      4  C   UNL d   1       1.231   0.809  -0.032  0.00  0.00     0.025 A 
ATOM      5  S   UNL d   1      -1.105  -0.189  -0.248  0.00  0.00    -0.064 SA
ATOM      6  C   UNL d   1      -0.096   1.191  -0.110  0.00  0.00     0.079 A 
ENDROOT
BRANCH   3   7
ATOM      7  N   UNL d   1       0.146  -2.557  -0.137  0.00  0.00    -0.336 N 
ATOM      8  H   UNL d   1      -0.765  -2.938  -0.354  0.00  0.00     0.168 HD
BRANCH   7   9
ATOM      9  C   UNL d   1       0.976  -3.455   0.577  0.00  0.00     0.041 A 
ATOM     10  C   UNL d   1       1.153  -4.785   0.130  0.00  0.00    -0.013 A 
ATOM     11  C   UNL d   1       1.984  -5.647   0.880  0.00  0.00     0.042 A 
ATOM     12  C   UNL d   1       0.504  -5.289  -1.134  0.00  0.00     0.052 C 
ATOM     13 CL   UNL d   1       2.241  -7.295   0.413  0.00  0.00    -0.084 Cl
ATOM     14  C   UNL d   1       2.640  -5.204   2.031  0.00  0.00     0.024 A 
ATOM     15  C   UNL d   1       2.484  -3.894   2.454  0.00  0.00     0.004 A 
ATOM     16  C   UNL d   1       1.664  -3.031   1.732  0.00  0.00     0.030 A 
ENDBRANCH   7   9
ENDBRANCH   3   7
BRANCH   4  17
ATOM     17  C   UNL d   1       2.468   1.694  -0.019  0.00  0.00    -0.008 C 
ATOM     18  C   UNL d   1       2.863   2.025  -1.472  0.00  0.00     0.021 C 
ATOM     19  C   UNL d   1       2.222   3.007   0.747  0.00  0.00     0.021 C 
ATOM     20  C   UNL d   1       3.655   0.972   0.655  0.00  0.00     0.021 C 
ENDBRANCH   4  17
TORSDOF 3
