REMARK  0 active torsions:
REMARK  status: ('A' for Active; 'I' for Inactive)
ROOT
ATOM      1  C   UNL d   1       2.574   0.713   0.157  0.00  0.00     0.186 A 
ATOM      2  N   UNL d   1       1.490   1.417   0.118  0.00  0.00    -0.333 N 
ATOM      3  HN  UNL d   1       1.518   2.436   0.085  1.00  0.00     0.168 HD
ATOM      4  C   UNL d   1       1.528  -1.374   0.243  0.00  0.00     0.302 A 
ATOM      5  O   UNL d   1       2.660  -0.636   0.219  0.00  0.00    -0.254 OA
ATOM      6  C   UNL d   1       3.872   1.335   0.134  0.00  0.00     0.128 A 
ATOM      7  C   UNL d   1       0.247  -0.660   0.174  0.00  0.00     0.067 A 
ATOM      8  C   UNL d   1       0.284   0.724   0.125  0.00  0.00     0.050 A 
ATOM      9  O   UNL d   1       5.000   0.557   0.175  0.00  0.00    -0.305 OA
ATOM     10  C   UNL d   1       4.236   2.669   0.073  0.00  0.00     0.056 A 
ATOM     11  C   UNL d   1       6.073   1.395   0.150  0.00  0.00     0.086 A 
ATOM     12  C   UNL d   1       5.653   2.717   0.092  0.00  0.00     0.001 A 
ATOM     13  C   UNL d   1      -0.971  -1.353   0.152  0.00  0.00     0.026 A 
ATOM     14  O   UNL d   1       1.554  -2.597   0.315  0.00  0.00    -0.259 OA
ATOM     15  C   UNL d   1      -0.917   1.431   0.062  0.00  0.00     0.031 A 
ATOM     16  C   UNL d   1      -2.176  -0.646   0.082  0.00  0.00    -0.061 A 
ATOM     17  C   UNL d   1      -2.140   0.753   0.037  0.00  0.00     0.009 A 
ATOM     18  C   UNL d   1       7.409   1.001   0.182  0.00  0.00     0.038 A 
ATOM     19  C   UNL d   1       6.625   3.732   0.068  0.00  0.00     0.014 A 
ATOM     20  C   UNL d   1      -3.491  -1.367   0.020  0.00  0.00     0.048 C 
ATOM     21  C   UNL d   1       7.978   3.368   0.106  0.00  0.00     0.001 A 
ATOM     22  C   UNL d   1       8.362   2.025   0.160  0.00  0.00     0.003 A 
ENDROOT
TORSDOF 0
