REMARK  6 active torsions:
REMARK  status: ('A' for Active; 'I' for Inactive)
REMARK       I    between atoms: N_2  and  C_1 
REMARK    1  A    between atoms: C_3  and  C_1 
REMARK    2  A    between atoms: C_4  and  N_2 
REMARK    3  A    between atoms: O_11  and  C_6 
REMARK    4  A    between atoms: O_10  and  C_7 
REMARK    5  A    between atoms: O_12  and  C_8 
REMARK    6  A    between atoms: O_13  and  C_9 
ROOT
ATOM      1  C   UNL d   1       1.041  -0.246  -0.074  0.00  0.00     0.261 C 
ATOM      2  N   UNL d   1       0.376   0.203   1.058  0.00  0.00    -0.318 N 
ATOM      3  O   UNL d   1       2.173  -0.710  -0.075  0.00  0.00    -0.267 OA
ATOM      4  H   UNL d   1      -0.630   0.300   0.990  0.00  0.00     0.169 HD
ENDROOT
BRANCH   1   5
ATOM      5  C   UNL d   1       0.272  -0.168  -1.355  0.00  0.00     0.098 A 
ATOM      6  C   UNL d   1      -0.499   0.970  -1.679  0.00  0.00     0.086 A 
ATOM      7  C   UNL d   1      -1.074   1.064  -2.950  0.00  0.00     0.038 A 
ATOM      8  C   UNL d   1      -0.856   0.068  -3.902  0.00  0.00     0.005 A 
ATOM      9  C   UNL d   1      -0.113  -1.065  -3.577  0.00  0.00     0.038 A 
ATOM     10  C   UNL d   1       0.418  -1.216  -2.293  0.00  0.00     0.086 A 
BRANCH   6  11
ATOM     11  O   UNL d   1      -0.664   1.926  -0.710  0.00  0.00    -0.355 OA
ATOM     12  C   UNL d   1      -1.127   3.208  -1.121  0.00  0.00     0.210 C 
ENDBRANCH   6  11
BRANCH  10  13
ATOM     13  O   UNL d   1       1.055  -2.352  -1.869  0.00  0.00    -0.355 OA
ATOM     14  C   UNL d   1       0.981  -3.522  -2.669  0.00  0.00     0.210 C 
ENDBRANCH  10  13
ENDBRANCH   1   5
BRANCH   2  15
ATOM     15  C   UNL d   1       0.921   0.163   2.361  0.00  0.00     0.102 A 
ATOM     16  C   UNL d   1       2.228   0.577   2.674  0.00  0.00     0.097 A 
ATOM     17  C   UNL d   1       2.709   0.442   3.987  0.00  0.00     0.039 A 
ATOM     18  C   UNL d   1       1.879  -0.032   5.004  0.00  0.00     0.006 A 
ATOM     19  C   UNL d   1       0.564  -0.381   4.714  0.00  0.00     0.039 A 
ATOM     20  C   UNL d   1       0.088  -0.294   3.404  0.00  0.00     0.097 A 
BRANCH  16  21
ATOM     21  O   UNL d   1       3.138   1.151   1.823  0.00  0.00    -0.354 OA
ATOM     22  C   UNL d   1       2.635   2.244   1.061  0.00  0.00     0.210 C 
ENDBRANCH  16  21
BRANCH  20  23
ATOM     23  O   UNL d   1      -1.223  -0.657   3.212  0.00  0.00    -0.354 OA
ATOM     24  C   UNL d   1      -1.377  -1.798   2.361  0.00  0.00     0.210 C 
ENDBRANCH  20  23
ENDBRANCH   2  15
TORSDOF 6
