REMARK  7 active torsions:
REMARK  status: ('A' for Active; 'I' for Inactive)
REMARK    1  A    between atoms: C_3  and  C_1 
REMARK    2  A    between atoms: N_2  and  C_10 
REMARK       I    between atoms: N_11  and  C_3 
REMARK    3  A    between atoms: C_4  and  C_5 
REMARK       I    between atoms: N_12  and  C_4 
REMARK    4  A    between atoms: S_8  and  C_6 
REMARK    5  A    between atoms: C_9  and  S_8 
REMARK    6  A    between atoms: C_20  and  N_11 
REMARK    7  A    between atoms: C_21  and  N_12 
ROOT
ATOM      1  C   UNL d   1       1.338  -0.125  -0.531  0.00  0.00     0.051 A 
ATOM      2  C   UNL d   1       0.577  -1.294  -0.298  0.00  0.00     0.021 A 
ATOM      3  C   UNL d   1       0.687   1.129  -0.487  0.00  0.00     0.054 A 
ATOM      4  C   UNL d   1      -0.681   1.221  -0.205  0.00  0.00     0.103 A 
ATOM      5  C   UNL d   1      -0.807  -1.179  -0.046  0.00  0.00     0.022 A 
ATOM      6  C   UNL d   1      -1.434   0.068   0.010  0.00  0.00     0.037 A 
ENDROOT
BRANCH   2   7
ATOM      7  S   UNL d   1       1.215  -2.968  -0.317  0.00  0.00    -0.088 SA
BRANCH   7   8
ATOM      8  C   UNL d   1       1.509  -3.348   1.423  0.00  0.00     0.021 A 
ATOM      9  C   UNL d   1       1.349  -4.638   1.985  0.00  0.00     0.049 A 
ATOM     10  C   UNL d   1       1.734  -4.839   3.331  0.00  0.00     0.018 A 
ATOM     11  C   UNL d   1       2.239  -3.801   4.116  0.00  0.00     0.001 A 
ATOM     12  C   UNL d   1       2.375  -2.536   3.571  0.00  0.00     0.001 A 
ATOM     13  C   UNL d   1       2.027  -2.318   2.239  0.00  0.00     0.020 A 
BRANCH   9  14
ATOM     14  C   UNL d   1       0.779  -5.861   1.306  0.00  0.00     0.253 C 
ATOM     15  N   UNL d   1       0.156  -5.696   0.092  0.00  0.00    -0.353 N 
ATOM     16  H   UNL d   1       0.257  -4.807  -0.378  0.00  0.00     0.163 HD
ATOM     17  O   UNL d   1       0.842  -6.960   1.857  0.00  0.00    -0.268 OA
BRANCH  15  18
ATOM     18  C   UNL d   1      -0.467  -6.780  -0.654  0.00  0.00     0.076 C 
ATOM     19  C   UNL d   1      -1.559  -6.207  -1.554  0.00  0.00     0.032 C 
ATOM     20  C   UNL d   1       0.562  -7.540  -1.487  0.00  0.00     0.032 C 
ENDBRANCH  15  18
ENDBRANCH   9  14
ENDBRANCH   7   8
ENDBRANCH   2   7
BRANCH   1  21
ATOM     21  C   UNL d   1       2.828  -0.047  -0.736  0.00  0.00     0.253 C 
ATOM     22  N   UNL d   1       3.561  -1.208  -0.811  0.00  0.00    -0.353 N 
ATOM     23  H   UNL d   1       3.082  -2.096  -0.899  0.00  0.00     0.163 HD
ATOM     24  O   UNL d   1       3.364   1.057  -0.792  0.00  0.00    -0.268 OA
BRANCH  22  25
ATOM     25  C   UNL d   1       5.013  -1.200  -0.929  0.00  0.00     0.076 C 
ATOM     26  C   UNL d   1       5.616  -2.377  -0.167  0.00  0.00     0.032 C 
ATOM     27  C   UNL d   1       5.428  -1.228  -2.396  0.00  0.00     0.032 C 
ENDBRANCH  22  25
ENDBRANCH   1  21
BRANCH   4  28
ATOM     28  N   UNL d   1      -1.318   2.542  -0.101  0.00  0.00    -0.116 N 
ATOM     29  O   UNL d   1      -0.610   3.542  -0.281  0.00  0.00    -0.532 OA
ATOM     30  O   UNL d   1      -2.526   2.575   0.173  0.00  0.00    -0.532 OA
ENDBRANCH   4  28
TORSDOF 7
