REMARK  2 active torsions:
REMARK  status: ('A' for Active; 'I' for Inactive)
REMARK    1  A    between atoms: C_18  and  N_5 
REMARK    2  A    between atoms: C_14  and  C_10 
ROOT
ATOM      1  C   UNL d   1      -0.368  -1.377   0.170  0.00  0.00     0.123 A 
ATOM      2  C   UNL d   1      -0.565  -2.789   0.212  0.00  0.00     0.202 A 
ATOM      3  N   UNL d   1      -0.250  -3.550   1.240  0.00  0.00    -0.317 N 
ATOM      4  HN  UNL d   1       0.075  -3.262   2.163  1.00  0.00     0.169 HD
ATOM      5  N   UNL d   1      -1.098  -0.494  -0.590  0.00  0.00    -0.287 N 
ATOM      6  N   UNL d   1      -0.650   0.779  -0.512  0.00  0.00    -0.301 N 
ATOM      7  HN  UNL d   1      -1.004   1.597  -1.008  1.00  0.00     0.187 HD
ATOM      8  C   UNL d   1       0.560  -0.594   0.819  0.00  0.00     0.067 A 
ATOM      9  C   UNL d   1       0.363   0.725   0.362  0.00  0.00     0.042 A 
ATOM     10  C   UNL d   1      -0.467  -4.825   0.771  0.00  0.00     0.138 A 
ATOM     11  N   UNL d   1      -0.955  -4.866  -0.478  0.00  0.00    -0.242 N 
ATOM     12  HN  UNL d   1      -1.207  -5.686  -1.030  1.00  0.00     0.196 HD
ATOM     13  O   UNL d   1      -1.034  -3.526  -0.843  0.00  0.00    -0.215 OA
ATOM     14 BR   UNL d   1       1.890  -1.127   2.034  0.00  0.00    -0.046 Br
ATOM     15  C   UNL d   1       1.093   1.971   0.706  0.00  0.00     0.071 C 
ENDROOT
BRANCH   5  16
ATOM     16  C   UNL d   1      -2.320  -0.732  -1.341  0.00  0.00     0.145 C 
ATOM     17  C   UNL d   1      -2.079  -0.986  -2.820  0.00  0.00     0.028 C 
ENDBRANCH   5  16
BRANCH  10  18
ATOM     18  C   UNL d   1      -0.143  -6.010   1.556  0.00  0.00     0.010 A 
ATOM     19  C   UNL d   1      -0.227  -5.987   2.954  0.00  0.00     0.016 A 
ATOM     20  C   UNL d   1       0.103  -7.122   3.704  0.00  0.00     0.007 A 
ATOM     21  C   UNL d   1       0.542  -8.291   3.071  0.00  0.00    -0.062 A 
ATOM     22  C   UNL d   1       0.627  -8.315   1.675  0.00  0.00     0.007 A 
ATOM     23  C   UNL d   1       0.903  -9.500   3.884  0.00  0.00     0.048 C 
ATOM     24  C   UNL d   1       0.283  -7.186   0.924  0.00  0.00     0.016 A 
ENDBRANCH  10  18
TORSDOF 2
