REMARK  1 active torsions:
REMARK  status: ('A' for Active; 'I' for Inactive)
REMARK    1  A    between atoms: C_2  and  C_1 
ROOT
ATOM      1  C   UNL d   1      -1.509   0.282   0.129  0.00  0.00    -0.012 C 
ATOM      2  C   UNL d   1      -0.690   1.018   1.235  0.00  0.00     0.019 C 
ATOM      3  C   UNL d   1      -0.959   0.759  -1.248  0.00  0.00     0.019 C 
ATOM      4  C   UNL d   1      -1.209  -1.239   0.266  0.00  0.00     0.019 C 
ATOM      5  C   UNL d   1       0.815   0.738   1.111  0.00  0.00    -0.013 C 
ATOM      6  C   UNL d   1       0.551   0.478  -1.373  0.00  0.00    -0.013 C 
ATOM      7  C   UNL d   1       0.301  -1.521   0.141  0.00  0.00    -0.013 C 
ATOM      8  C   UNL d   1       1.302   1.223  -0.260  0.00  0.00     0.009 C 
ATOM      9  C   UNL d   1       1.056  -0.771   1.248  0.00  0.00     0.009 C 
ATOM     10  C   UNL d   1       0.801  -1.032  -1.228  0.00  0.00     0.009 C 
ENDROOT
BRANCH   1  11
ATOM     11  C   UNL d   1      -3.021   0.551   0.221  0.00  0.00    -0.049 A 
ATOM     12  C   UNL d   1      -3.580   1.382   1.206  0.00  0.00     0.008 A 
ATOM     13  C   UNL d   1      -4.954   1.635   1.259  0.00  0.00     0.007 A 
ATOM     14  C   UNL d   1      -5.821   1.061   0.327  0.00  0.00    -0.062 A 
ATOM     15  C   UNL d   1      -5.287   0.225  -0.654  0.00  0.00     0.007 A 
ATOM     16  C   UNL d   1      -7.287   1.360   0.391  0.00  0.00     0.048 C 
ATOM     17  C   UNL d   1      -3.909  -0.026  -0.705  0.00  0.00     0.008 A 
ENDBRANCH   1  11
TORSDOF 1
