REMARK  4 active torsions:
REMARK  status: ('A' for Active; 'I' for Inactive)
REMARK    1  A    between atoms: C_9  and  N_1 
REMARK    2  A    between atoms: N_6  and  C_2 
REMARK    3  A    between atoms: N_8  and  C_3 
REMARK       I    between atoms: C_4  and  N_7 
REMARK    4  A    between atoms: C_11  and  C_4 
ROOT
ATOM      1  C   UNL d   1      -0.993   1.900  -2.561  0.00  0.00     0.067 A 
ATOM      2  C   UNL d   1      -1.157   0.979  -3.634  0.00  0.00     0.058 A 
ATOM      3  C   UNL d   1       0.009   1.717  -1.582  0.00  0.00     0.068 A 
ATOM      4  C   UNL d   1       0.800   0.567  -1.600  0.00  0.00     0.105 A 
ATOM      5  C   UNL d   1      -0.352  -0.181  -3.584  0.00  0.00     0.034 A 
ATOM      6  C   UNL d   1       0.606  -0.399  -2.584  0.00  0.00     0.038 A 
ENDROOT
BRANCH   2   7
ATOM      7  N   UNL d   1      -1.949   1.198  -4.753  0.00  0.00    -0.376 N 
ATOM      8  C   UNL d   1      -2.078   2.538  -5.362  0.00  0.00     0.143 C 
ATOM      9  C   UNL d   1      -1.739   2.516  -6.860  0.00  0.00     0.145 C 
ATOM     10  N   UNL d   1      -2.498   1.487  -7.573  0.00  0.00    -0.348 N 
ATOM     11  C   UNL d   1      -3.295   1.626  -8.698  0.00  0.00     0.227 C 
ATOM     12  C   UNL d   1      -2.313   0.146  -6.987  0.00  0.00     0.145 C 
ATOM     13  O   UNL d   1      -3.845   0.625  -9.173  0.00  0.00    -0.273 OA
ATOM     14  C   UNL d   1      -2.655   0.122  -5.481  0.00  0.00     0.143 C 
BRANCH  11  15
ATOM     15  C   UNL d   1      -3.545   3.010  -9.368  0.00  0.00     0.030 C 
ATOM     16  C   UNL d   1      -2.252   3.652  -9.898  0.00  0.00     0.025 C 
ATOM     17  C   UNL d   1      -4.445   2.785 -10.614  0.00  0.00     0.025 C 
ATOM     18  C   UNL d   1      -4.327   3.953  -8.440  0.00  0.00     0.025 C 
ENDBRANCH  11  15
ENDBRANCH   2   7
BRANCH   1  19
ATOM     19  N   UNL d   1      -1.876   3.002  -2.356  0.00  0.00    -0.331 N 
ATOM     20  C   UNL d   1      -1.532   4.241  -1.847  0.00  0.00     0.097 A 
ATOM     21  C   UNL d   1      -2.643   5.056  -1.859  0.00  0.00     0.019 A 
ATOM     22  C   UNL d   1      -3.726   4.280  -2.325  0.00  0.00     0.019 A 
ATOM     23  C   UNL d   1      -3.239   3.019  -2.584  0.00  0.00     0.097 A 
ENDBRANCH   1  19
BRANCH   4  24
ATOM     24  N   UNL d   1       1.824   0.370  -0.569  0.00  0.00    -0.116 N 
ATOM     25  O   UNL d   1       2.021   1.292   0.235  0.00  0.00    -0.532 OA
ATOM     26  O   UNL d   1       2.441  -0.706  -0.566  0.00  0.00    -0.532 OA
ENDBRANCH   4  24
TORSDOF 4
