REMARK  2 active torsions:
REMARK  status: ('A' for Active; 'I' for Inactive)
REMARK       I    between atoms: N_3  and  C_1 
REMARK       I    between atoms: N_4  and  C_1 
REMARK       I    between atoms: C_2  and  N_3 
REMARK    1  A    between atoms: C_5  and  C_2 
REMARK    2  A    between atoms: O_20  and  C_15 
ROOT
ATOM      1  C   UNL d   1       1.047   0.094  -0.125  0.00  0.00     0.329 C 
ATOM      2  C   UNL d   1       1.161  -2.228  -0.951  0.00  0.00     0.264 C 
ATOM      3  N   UNL d   1       0.509  -1.157  -0.356  0.00  0.00    -0.275 N 
ATOM      4  N   UNL d   1       0.240   0.972   0.624  0.00  0.00    -0.299 N 
ATOM      5  C   UNL d   1      -0.851   0.649   1.493  0.00  0.00     0.045 A 
ATOM      6  C   UNL d   1      -1.838   1.620   1.751  0.00  0.00    -0.028 A 
ATOM      7  C   UNL d   1      -0.954  -0.588   2.145  0.00  0.00     0.033 A 
ATOM      8  O   UNL d   1       2.109   0.467  -0.617  0.00  0.00    -0.246 OA
ATOM      9  O   UNL d   1       2.133  -2.118  -1.688  0.00  0.00    -0.267 OA
ATOM     10  C   UNL d   1      -2.940   1.299   2.566  0.00  0.00     0.046 A 
ATOM     11  C   UNL d   1       0.566   2.401   0.544  0.00  0.00     0.134 C 
ATOM     12  C   UNL d   1      -3.067   0.038   3.146  0.00  0.00     0.068 A 
ATOM     13  C   UNL d   1      -2.061  -0.900   2.946  0.00  0.00     0.039 A 
ATOM     14  C   UNL d   1      -1.740   3.031   1.224  0.00  0.00     0.042 C 
ATOM     15  C   UNL d   1      -0.667   3.199   0.161  0.00  0.00     0.025 C 
ATOM     16  H   UNL d   1      -0.438  -1.294  -0.045  0.00  0.00     0.173 HD
ENDROOT
BRANCH   2  17
ATOM     17  C   UNL d   1       0.568  -3.584  -0.713  0.00  0.00     0.092 A 
ATOM     18  C   UNL d   1      -0.786  -3.709  -0.377  0.00  0.00     0.133 A 
ATOM     19  F   UNL d   1      -1.573  -2.624  -0.287  0.00  0.00    -0.205 F 
ATOM     20  C   UNL d   1      -1.376  -4.946  -0.113  0.00  0.00     0.043 A 
ATOM     21  C   UNL d   1      -0.614  -6.103  -0.194  0.00  0.00     0.005 A 
ATOM     22  C   UNL d   1       0.732  -6.012  -0.539  0.00  0.00     0.025 A 
ATOM     23  C   UNL d   1       1.328  -4.764  -0.795  0.00  0.00     0.052 A 
ATOM     24 CL   UNL d   1       3.022  -4.813  -1.141  0.00  0.00    -0.083 Cl
ENDBRANCH   2  17
BRANCH  12  25
ATOM     25  O   UNL d   1      -4.198  -0.137   3.895  0.00  0.00    -0.356 OA
ATOM     26  C   UNL d   1      -4.379  -1.411   4.499  0.00  0.00     0.210 C 
ENDBRANCH  12  25
TORSDOF 2
