REMARK  5 active torsions:
REMARK  status: ('A' for Active; 'I' for Inactive)
REMARK    1  A    between atoms: N_2  and  C_1 
REMARK    2  A    between atoms: N_11  and  C_1 
REMARK    3  A    between atoms: C_3  and  N_2 
REMARK    4  A    between atoms: C_4  and  C_10 
REMARK    5  A    between atoms: N_5  and  N_11 
ROOT
ATOM      1  C   UNL d   1       1.271   0.151  -0.271  0.00  0.00     0.191 C 
ATOM      2  S   UNL d   1       2.863   0.608  -0.513  0.00  0.00    -0.039 SA
ENDROOT
BRANCH   1   3
ATOM      3  N   UNL d   1       0.549  -0.788  -0.970  0.00  0.00    -0.332 N 
ATOM      4  H   UNL d   1      -0.446  -0.598  -0.977  0.00  0.00     0.168 HD
BRANCH   3   5
ATOM      5  C   UNL d   1       1.022  -1.901  -1.692  0.00  0.00     0.040 A 
ATOM      6  C   UNL d   1       0.351  -2.353  -2.845  0.00  0.00    -0.032 A 
ATOM      7  C   UNL d   1       0.791  -3.538  -3.465  0.00  0.00     0.051 A 
ATOM      8  C   UNL d   1      -0.769  -1.602  -3.510  0.00  0.00     0.050 C 
ATOM      9  C   UNL d   1       1.866  -4.251  -2.946  0.00  0.00     0.117 A 
ATOM     10  C   UNL d   1       2.527  -3.812  -1.814  0.00  0.00     0.044 A 
ATOM     11  F   UNL d   1       2.259  -5.383  -3.547  0.00  0.00    -0.206 F 
ATOM     12  C   UNL d   1       2.106  -2.640  -1.189  0.00  0.00     0.033 A 
ENDBRANCH   3   5
ENDBRANCH   1   3
BRANCH   1  13
ATOM     13  N   UNL d   1       0.561   0.802   0.714  0.00  0.00    -0.276 N 
ATOM     14  H   UNL d   1       1.082   1.480   1.264  0.00  0.00     0.189 HD
BRANCH  13  15
ATOM     15  N   UNL d   1      -0.661   0.356   1.144  0.00  0.00    -0.308 N 
ATOM     16  C   UNL d   1      -1.072   0.916   2.242  0.00  0.00     0.126 C 
ATOM     17  HN  UNL d   1      -1.200  -0.353   0.646  1.00  0.00     0.186 HD
BRANCH  16  18
ATOM     18  C   UNL d   1      -2.317   0.540   2.862  0.00  0.00     0.021 A 
ATOM     19  S   UNL d   1      -2.860   1.420   4.226  0.00  0.00    -0.101 SA
ATOM     20  C   UNL d   1      -4.275   0.468   4.357  0.00  0.00     0.050 A 
ATOM     21  C   UNL d   1      -4.325  -0.513   3.393  0.00  0.00     0.008 A 
ATOM     22  C   UNL d   1      -3.191  -0.475   2.529  0.00  0.00     0.021 A 
ENDBRANCH  16  18
ENDBRANCH  13  15
ENDBRANCH   1  13
TORSDOF 5
