REMARK  6 active torsions:
REMARK  status: ('A' for Active; 'I' for Inactive)
REMARK    1  A    between atoms: C_7  and  S_1 
REMARK    2  A    between atoms: C_16  and  S_1 
REMARK    3  A    between atoms: C_4  and  C_7 
REMARK    4  A    between atoms: C_13  and  C_5 
REMARK    5  A    between atoms: C_6  and  C_11 
REMARK    6  A    between atoms: C_18  and  C_16 
ROOT
ATOM      1  N   UNL d   1      -2.522 -10.389   3.196  0.00  0.00    -0.191 NA
ATOM      2  C   UNL d   1      -1.971  -9.386   2.988  0.00  0.00     0.099 C 
ATOM      3  C   UNL d   1       0.087  -5.735   2.226  0.00  0.00    -0.009 A 
ATOM      4  C   UNL d   1      -1.216  -5.935   1.750  0.00  0.00     0.015 A 
ATOM      5  C   UNL d   1       0.686  -6.760   2.980  0.00  0.00     0.015 A 
ATOM      6  C   UNL d   1      -1.281  -8.155   2.735  0.00  0.00     0.044 A 
ATOM      7  C   UNL d   1       0.010  -7.960   3.230  0.00  0.00     0.023 A 
ATOM      8  C   UNL d   1      -1.894  -7.137   1.997  0.00  0.00     0.023 A 
ENDROOT
BRANCH   3   9
ATOM      9  C   UNL d   1       0.783  -4.474   1.966  0.00  0.00     0.049 A 
ATOM     10  N   UNL d   1       0.098  -3.294   1.688  0.00  0.00    -0.352 N 
ATOM     11  C   UNL d   1       0.941  -2.279   1.612  0.00  0.00     0.065 A 
ATOM     12  HN  UNL d   1      -0.911  -3.223   1.562  1.00  0.00     0.166 HD
ATOM     13  S   UNL d   1       2.598  -2.700   1.810  0.00  0.00    -0.085 SA
ATOM     14  C   UNL d   1       2.158  -4.343   1.975  0.00  0.00     0.081 A 
BRANCH  11  15
ATOM     15  C   UNL d   1       0.517  -0.856   1.481  0.00  0.00     0.205 C 
BRANCH  15  16
ATOM     16  S   UNL d   1       1.008  -0.164  -0.086  0.00  0.00     0.154 S 
ATOM     17  O   UNL d   1       2.457  -0.204  -0.178  0.00  0.00    -0.227 OA
ATOM     18  O   UNL d   1       0.317   1.111  -0.200  0.00  0.00    -0.227 OA
BRANCH  16  19
ATOM     19  C   UNL d   1       0.308  -1.279  -1.299  0.00  0.00     0.179 C 
BRANCH  19  20
ATOM     20  C   UNL d   1       0.659  -0.813  -2.691  0.00  0.00    -0.043 A 
ATOM     21  C   UNL d   1      -0.188   0.060  -3.394  0.00  0.00     0.024 A 
ATOM     22  C   UNL d   1       0.102   0.441  -4.716  0.00  0.00     0.048 A 
ATOM     23  C   UNL d   1       1.269  -0.046  -5.323  0.00  0.00     0.016 A 
ATOM     24  C   UNL d   1       2.131  -0.888  -4.624  0.00  0.00     0.001 A 
ATOM     25  C   UNL d   1       1.828  -1.269  -3.316  0.00  0.00     0.008 A 
BRANCH  22  26
ATOM     26  C   UNL d   1      -0.832   1.332  -5.498  0.00  0.00     0.417 C 
ATOM     27  F   UNL d   1      -1.908   1.761  -4.781  0.00  0.00    -0.166 F 
ATOM     28  F   UNL d   1      -0.223   2.455  -5.968  0.00  0.00    -0.166 F 
ATOM     29  F   UNL d   1      -1.347   0.703  -6.593  0.00  0.00    -0.166 F 
ENDBRANCH  22  26
ENDBRANCH  19  20
ENDBRANCH  16  19
ENDBRANCH  15  16
ENDBRANCH  11  15
ENDBRANCH   3   9
TORSDOF 6
