REMARK  1 active torsions:
REMARK  status: ('A' for Active; 'I' for Inactive)
REMARK    1  A    between atoms: C_7  and  C_1 
ROOT
ATOM      1  C   UNL d   1       1.659  -1.585   0.003  0.00  0.00     0.165 A 
ATOM      2  N   UNL d   1       0.410  -1.917  -0.040  0.00  0.00    -0.335 N 
ATOM      3  HN  UNL d   1       0.120  -2.894  -0.080  1.00  0.00     0.168 HD
ATOM      4  O   UNL d   1       2.159  -0.332   0.013  0.00  0.00    -0.256 OA
ATOM      5  C   UNL d   1       1.315   0.728   0.007  0.00  0.00     0.302 A 
ATOM      6  C   UNL d   1      -0.126   0.445  -0.004  0.00  0.00     0.066 A 
ATOM      7  C   UNL d   1      -0.520  -0.883  -0.029  0.00  0.00     0.050 A 
ATOM      8  O   UNL d   1       1.724   1.883   0.008  0.00  0.00    -0.259 OA
ATOM      9  C   UNL d   1      -1.072   1.477   0.011  0.00  0.00     0.020 A 
ATOM     10  C   UNL d   1      -1.882  -1.190  -0.035  0.00  0.00     0.030 A 
ATOM     11  C   UNL d   1      -2.432   1.164   0.005  0.00  0.00     0.001 A 
ATOM     12  C   UNL d   1      -2.837  -0.170  -0.017  0.00  0.00     0.002 A 
ENDROOT
BRANCH   1  13
ATOM     13  C   UNL d   1       2.735  -2.595  -0.005  0.00  0.00     0.054 A 
ATOM     14  C   UNL d   1       3.958  -2.381   0.629  0.00  0.00     0.130 A 
ATOM     15  F   UNL d   1       4.215  -1.235   1.277  0.00  0.00    -0.205 F 
ATOM     16  C   UNL d   1       4.937  -3.374   0.641  0.00  0.00     0.043 A 
ATOM     17  C   UNL d   1       4.695  -4.597   0.015  0.00  0.00     0.003 A 
ATOM     18  C   UNL d   1       3.474  -4.825  -0.620  0.00  0.00     0.001 A 
ATOM     19  C   UNL d   1       2.494  -3.829  -0.628  0.00  0.00     0.019 A 
ENDBRANCH   1  13
TORSDOF 1
