REMARK  6 active torsions:
REMARK  status: ('A' for Active; 'I' for Inactive)
REMARK    1  A    between atoms: C_9  and  C_3 
REMARK    2  A    between atoms: O_19  and  C_4 
REMARK    3  A    between atoms: S_12  and  C_5 
REMARK    4  A    between atoms: C_17  and  C_9 
REMARK    5  A    between atoms: C_11  and  C_20 
REMARK    6  A    between atoms: C_20  and  S_12 
ROOT
ATOM      1  N   UNL d   1      -0.550   1.357   0.006  0.00  0.00    -0.317 N 
ATOM      2  HN  UNL d   1      -1.007   2.268   0.043  1.00  0.00     0.170 HD
ATOM      3  C   UNL d   1      -0.684  -1.056   0.024  0.00  0.00     0.019 A 
ATOM      4  C   UNL d   1      -1.240   0.213   0.089  0.00  0.00     0.150 A 
ATOM      5  C   UNL d   1       0.773   1.234  -0.129  0.00  0.00     0.146 A 
ATOM      6  N   UNL d   1       1.431   0.064  -0.124  0.00  0.00    -0.340 N 
ATOM      7  HN  UNL d   1       2.449   0.033  -0.183  1.00  0.00     0.167 HD
ATOM      8  C   UNL d   1       0.703  -1.069  -0.040  0.00  0.00     0.018 A 
ATOM      9  C   UNL d   1       1.498  -2.342  -0.049  0.00  0.00     0.069 C 
ENDROOT
BRANCH   3  10
ATOM     10  C   UNL d   1      -1.512  -2.308  -0.012  0.00  0.00     0.083 C 
BRANCH  10  11
ATOM     11  C   UNL d   1      -1.862  -2.962   1.309  0.00  0.00    -0.052 A 
ATOM     12  C   UNL d   1      -2.550  -4.189   1.273  0.00  0.00     0.033 A 
ATOM     13  C   UNL d   1      -2.925  -4.847   2.450  0.00  0.00     0.056 A 
ATOM     14 CL   UNL d   1      -3.767  -6.349   2.297  0.00  0.00    -0.083 Cl
ATOM     15  C   UNL d   1      -2.618  -4.281   3.687  0.00  0.00     0.055 A 
ATOM     16  C   UNL d   1      -1.933  -3.064   3.738  0.00  0.00     0.026 A 
ATOM     17 CL   UNL d   1      -3.056  -5.023   5.184  0.00  0.00    -0.083 Cl
ATOM     18  C   UNL d   1      -1.557  -2.410   2.559  0.00  0.00     0.009 A 
ENDBRANCH  10  11
ENDBRANCH   3  10
BRANCH   4  19
ATOM     19  O   UNL d   1      -2.583   0.406   0.238  0.00  0.00    -0.346 OA
ATOM     20  H   UNL d   1      -2.965  -0.358   0.695  0.00  0.00     0.219 HD
ENDBRANCH   4  19
BRANCH   5  21
ATOM     21  S   UNL d   1       1.748   2.675  -0.459  0.00  0.00    -0.093 SA
BRANCH  21  22
ATOM     22  C   UNL d   1       0.937   3.866   0.645  0.00  0.00     0.087 C 
BRANCH  22  23
ATOM     23  C   UNL d   1       1.689   5.164   0.547  0.00  0.00    -0.005 A 
ATOM     24  C   UNL d   1       3.096   5.302   1.081  0.00  0.00     0.006 A 
ATOM     25  C   UNL d   1       1.961   5.990   1.782  0.00  0.00     0.006 A 
ENDBRANCH  22  23
ENDBRANCH  21  22
ENDBRANCH   5  21
TORSDOF 6
