REMARK  7 active torsions:
REMARK  status: ('A' for Active; 'I' for Inactive)
REMARK    1  A    between atoms: C_5  and  C_1 
REMARK    2  A    between atoms: C_2  and  C_4 
REMARK    3  A    between atoms: C_3  and  C_6 
REMARK    4  A    between atoms: C_6  and  O_22 
REMARK    5  A    between atoms: C_7  and  C_10 
REMARK    6  A    between atoms: C_25  and  C_9 
REMARK    7  A    between atoms: O_22  and  C_25 
ROOT
ATOM      1  C   UNL d   1       0.910  -3.757  -0.131  0.00  0.00     0.050 A 
ATOM      2  C   UNL d   1       0.443  -1.359  -0.242  0.00  0.00     0.050 A 
ATOM      3  C   UNL d   1       1.332  -2.424  -0.010  0.00  0.00     0.032 A 
ATOM      4  C   UNL d   1      -1.316  -2.971  -0.724  0.00  0.00     0.019 A 
ATOM      5  C   UNL d   1      -0.420  -4.017  -0.493  0.00  0.00     0.036 A 
ATOM      6  C   UNL d   1      -0.886  -1.647  -0.603  0.00  0.00     0.036 A 
ENDROOT
BRANCH   4   7
ATOM      7  C   UNL d   1      -2.671  -3.285  -1.067  0.00  0.00    -0.065 C 
ATOM      8  C   UNL d   1      -3.795  -3.612  -1.337  0.00  0.00    -0.074 C 
BRANCH   8   9
ATOM      9  C   UNL d   1      -5.166  -4.031  -1.659  0.00  0.00     0.273 C 
BRANCH   9  10
ATOM     10  O   UNL d   1      -5.295  -5.450  -1.474  0.00  0.00    -0.305 OA
BRANCH  10  11
ATOM     11  C   UNL d   1      -6.250  -5.858  -0.605  0.00  0.00     0.300 C 
ATOM     12  O   UNL d   1      -7.003  -5.130   0.019  0.00  0.00    -0.259 OA
BRANCH  11  13
ATOM     13  C   UNL d   1      -6.306  -7.332  -0.540  0.00  0.00     0.116 A 
ATOM     14  C   UNL d   1      -7.515  -7.954  -0.222  0.00  0.00     0.135 A 
ATOM     15  F   UNL d   1      -8.634  -7.241  -0.033  0.00  0.00    -0.205 F 
ATOM     16  C   UNL d   1      -7.607  -9.344  -0.111  0.00  0.00     0.043 A 
ATOM     17  C   UNL d   1      -6.481 -10.135  -0.321  0.00  0.00     0.006 A 
ATOM     18  C   UNL d   1      -5.268  -9.528  -0.643  0.00  0.00     0.043 A 
ATOM     19  C   UNL d   1      -5.184  -8.137  -0.745  0.00  0.00     0.135 A 
ATOM     20  F   UNL d   1      -3.985  -7.605  -1.022  0.00  0.00    -0.205 F 
ENDBRANCH  11  13
ENDBRANCH  10  11
ENDBRANCH   9  10
ENDBRANCH   8   9
ENDBRANCH   4   7
BRANCH   2  21
ATOM     21  C   UNL d   1       0.898   0.075  -0.100  0.00  0.00     0.417 C 
ATOM     22  F   UNL d   1       2.197   0.194   0.296  0.00  0.00    -0.166 F 
ATOM     23  F   UNL d   1       0.166   0.766   0.816  0.00  0.00    -0.166 F 
ATOM     24  F   UNL d   1       0.800   0.772  -1.266  0.00  0.00    -0.166 F 
ENDBRANCH   2  21
BRANCH   1  25
ATOM     25  C   UNL d   1       1.848  -4.911   0.130  0.00  0.00     0.417 C 
ATOM     26  F   UNL d   1       3.099  -4.520   0.499  0.00  0.00    -0.166 F 
ATOM     27  F   UNL d   1       1.403  -5.727   1.124  0.00  0.00    -0.166 F 
ATOM     28  F   UNL d   1       2.012  -5.705  -0.964  0.00  0.00    -0.166 F 
ENDBRANCH   1  25
TORSDOF 7
