REMARK  1 active torsions:
REMARK  status: ('A' for Active; 'I' for Inactive)
REMARK    1  A    between atoms: C_3  and  C_1 
REMARK       I    between atoms: N_5  and  C_3 
ROOT
ATOM      1  C   UNL d   1       2.201  -0.926  -0.372  0.00  0.00     0.074 A 
ATOM      2  S   UNL d   1       2.106   0.671  -0.969  0.00  0.00    -0.084 SA
ATOM      3  C   UNL d   1       0.951  -1.509  -0.316  0.00  0.00     0.037 A 
ATOM      4  C   UNL d   1       0.412   0.553  -1.262  0.00  0.00     0.016 A 
ATOM      5  C   UNL d   1      -0.084  -0.694  -0.875  0.00  0.00    -0.018 A 
ATOM      6  C   UNL d   1      -0.431   1.538  -1.813  0.00  0.00     0.019 A 
ATOM      7  C   UNL d   1      -1.459  -0.963  -1.071  0.00  0.00     0.013 A 
ATOM      8  C   UNL d   1      -2.296   0.006  -1.629  0.00  0.00     0.001 A 
ATOM      9  C   UNL d   1      -1.786   1.246  -1.990  0.00  0.00     0.001 A 
ENDROOT
BRANCH   1  10
ATOM     10  C   UNL d   1       3.489  -1.470   0.046  0.00  0.00     0.260 C 
ATOM     11  N   UNL d   1       3.692  -2.848  -0.151  0.00  0.00    -0.347 N 
ATOM     12  C   UNL d   1       4.877  -3.455   0.451  0.00  0.00     0.126 C 
ATOM     13  C   UNL d   1       3.173  -3.561  -1.319  0.00  0.00     0.126 C 
ATOM     14  C   UNL d   1       4.631  -4.924   0.802  0.00  0.00     0.024 C 
ATOM     15  C   UNL d   1       4.066  -5.717  -0.386  0.00  0.00    -0.015 C 
ATOM     16  C   UNL d   1       2.836  -5.003  -0.962  0.00  0.00     0.024 C 
ATOM     17  C   UNL d   1       3.715  -7.146   0.025  0.00  0.00     0.010 C 
ATOM     18  O   UNL d   1       4.347  -0.781   0.598  0.00  0.00    -0.267 OA
ENDBRANCH   1  10
TORSDOF 1
