REMARK  7 active torsions:
REMARK  status: ('A' for Active; 'I' for Inactive)
REMARK    1  A    between atoms: N_4  and  S_1 
REMARK    2  A    between atoms: C_5  and  S_1 
REMARK    3  A    between atoms: C_7  and  C_2 
REMARK    4  A    between atoms: C_3  and  N_4 
REMARK    5  A    between atoms: O_20  and  C_7 
REMARK    6  A    between atoms: O_22  and  C_10 
REMARK    7  A    between atoms: O_23  and  C_11 
ROOT
ATOM      1  C   UNL d   1       2.264   0.484   2.921  0.00  0.00     0.064 A 
ATOM      2  C   UNL d   1       0.962   0.739   2.462  0.00  0.00     0.042 A 
ATOM      3  C   UNL d   1       2.483   0.280   4.287  0.00  0.00     0.059 A 
ATOM      4  C   UNL d   1      -0.089   0.869   3.383  0.00  0.00     0.065 A 
ATOM      5  C   UNL d   1       1.426   0.342   5.200  0.00  0.00     0.102 A 
ATOM      6  C   UNL d   1       0.132   0.672   4.758  0.00  0.00     0.103 A 
ENDROOT
BRANCH   2   7
ATOM      7  N   UNL d   1       0.693   0.953   1.057  0.00  0.00    -0.180 NA
ATOM      8  H   UNL d   1       1.350   0.421   0.467  0.00  0.00     0.146 HD
BRANCH   7   9
ATOM      9  S   UNL d   1       0.726   2.590   0.577  0.00  0.00     0.246 S 
ATOM     10  O   UNL d   1       1.886   3.221   1.167  0.00  0.00    -0.206 OA
ATOM     11  O   UNL d   1      -0.604   3.136   0.751  0.00  0.00    -0.206 OA
BRANCH   9  12
ATOM     12  C   UNL d   1       1.039   2.445  -1.173  0.00  0.00     0.077 A 
ATOM     13  C   UNL d   1      -0.036   2.368  -2.064  0.00  0.00     0.070 A 
ATOM     14  C   UNL d   1       0.224   2.332  -3.433  0.00  0.00     0.156 A 
ATOM     15  F   UNL d   1      -0.801   2.260  -4.292  0.00  0.00    -0.203 F 
ATOM     16  C   UNL d   1       1.531   2.379  -3.910  0.00  0.00     0.154 A 
ATOM     17  C   UNL d   1       2.602   2.458  -3.025  0.00  0.00     0.047 A 
ATOM     18  F   UNL d   1       1.769   2.357  -5.229  0.00  0.00    -0.203 F 
ATOM     19  C   UNL d   1       2.359   2.494  -1.649  0.00  0.00     0.028 A 
ENDBRANCH   9  12
ENDBRANCH   7   9
ENDBRANCH   2   7
BRANCH   1  20
ATOM     20  C   UNL d   1       3.391   0.400   1.959  0.00  0.00     0.294 C 
ATOM     21  O   UNL d   1       3.231   0.156   0.771  0.00  0.00    -0.259 OA
BRANCH  20  22
ATOM     22  O   UNL d   1       4.560   0.660   2.586  0.00  0.00    -0.322 OA
ATOM     23  C   UNL d   1       5.734   0.657   1.771  0.00  0.00     0.213 C 
ENDBRANCH  20  22
ENDBRANCH   1  20
BRANCH   6  24
ATOM     24  O   UNL d   1      -0.834   0.803   5.718  0.00  0.00    -0.353 OA
ATOM     25  C   UNL d   1      -2.138   1.205   5.326  0.00  0.00     0.210 C 
ENDBRANCH   6  24
BRANCH   5  26
ATOM     26  O   UNL d   1       1.824   0.114   6.493  0.00  0.00    -0.353 OA
ATOM     27  C   UNL d   1       0.892  -0.546   7.343  0.00  0.00     0.210 C 
ENDBRANCH   5  26
TORSDOF 7
