REMARK  5 active torsions:
REMARK  status: ('A' for Active; 'I' for Inactive)
REMARK    1  A    between atoms: C_5  and  C_1 
REMARK    2  A    between atoms: C_2  and  N_4 
REMARK    3  A    between atoms: N_9  and  C_2 
REMARK    4  A    between atoms: N_4  and  C_3 
REMARK    5  A    between atoms: N_7  and  N_9 
ROOT
ATOM      1  C   UNL d   1       0.443  -6.039   0.480  0.00  0.00     0.191 C 
ATOM      2  S   UNL d   1       1.560  -7.245   0.153  0.00  0.00    -0.039 SA
ENDROOT
BRANCH   1   3
ATOM      3  N   UNL d   1       0.120  -4.949  -0.302  0.00  0.00    -0.331 N 
ATOM      4  H   UNL d   1      -0.874  -4.740  -0.262  0.00  0.00     0.168 HD
BRANCH   3   5
ATOM      5  C   UNL d   1       0.822  -4.532  -1.454  0.00  0.00     0.057 A 
ATOM      6  C   UNL d   1       2.198  -4.280  -1.367  0.00  0.00     0.047 A 
ATOM      7  C   UNL d   1       2.930  -3.854  -2.486  0.00  0.00     0.050 A 
ATOM      8  C   UNL d   1       2.269  -3.726  -3.715  0.00  0.00     0.018 A 
ATOM      9  C   UNL d   1       0.890  -3.945  -3.805  0.00  0.00     0.027 A 
ATOM     10  C   UNL d   1       0.162  -4.312  -2.670  0.00  0.00     0.060 A 
ATOM     11 CL   UNL d   1      -1.541  -4.558  -2.826  0.00  0.00    -0.082 Cl
BRANCH   7  12
ATOM     12  C   UNL d   1       4.404  -3.551  -2.368  0.00  0.00     0.417 C 
ATOM     13  F   UNL d   1       4.816  -3.350  -1.085  0.00  0.00    -0.166 F 
ATOM     14  F   UNL d   1       4.758  -2.425  -3.049  0.00  0.00    -0.166 F 
ATOM     15  F   UNL d   1       5.186  -4.548  -2.864  0.00  0.00    -0.166 F 
ENDBRANCH   7  12
ENDBRANCH   3   5
ENDBRANCH   1   3
BRANCH   1  16
ATOM     16  N   UNL d   1      -0.286  -6.154   1.644  0.00  0.00    -0.276 N 
ATOM     17  H   UNL d   1      -0.006  -6.936   2.225  0.00  0.00     0.189 HD
BRANCH  16  18
ATOM     18  N   UNL d   1      -0.869  -5.070   2.228  0.00  0.00    -0.307 N 
ATOM     19  C   UNL d   1      -1.438  -5.219   3.387  0.00  0.00     0.004 C 
ATOM     20  C   UNL d   1      -1.903  -3.961   4.101  0.00  0.00     0.054 C 
ATOM     21  C   UNL d   1      -1.711  -6.538   4.093  0.00  0.00     0.054 C 
ATOM     22  C   UNL d   1      -3.391  -3.752   3.882  0.00  0.00     0.006 C 
ATOM     23  C   UNL d   1      -4.302  -4.514   4.846  0.00  0.00     0.000 C 
ATOM     24  C   UNL d   1      -3.845  -5.893   5.327  0.00  0.00     0.000 C 
ATOM     25  C   UNL d   1      -3.210  -6.784   4.261  0.00  0.00     0.006 C 
ATOM     26  HN  UNL d   1      -0.859  -4.161   1.766  1.00  0.00     0.186 HD
ENDBRANCH  16  18
ENDBRANCH   1  16
TORSDOF 5
