REMARK  8 active torsions:
REMARK  status: ('A' for Active; 'I' for Inactive)
REMARK    1  A    between atoms: N_6  and  C_1 
REMARK    2  A    between atoms: C_5  and  C_11 
REMARK       I    between atoms: C_7  and  N_6 
REMARK    3  A    between atoms: C_13  and  C_7 
REMARK    4  A    between atoms: C_10  and  C_13 
REMARK    5  A    between atoms: C_14  and  C_10 
REMARK    6  A    between atoms: C_15  and  C_10 
REMARK    7  A    between atoms: C_12  and  C_14 
REMARK    8  A    between atoms: O_25  and  C_12 
ROOT
ATOM      1  C   UNL d   1      -0.168  -2.871   0.442  0.00  0.00     0.037 C 
ENDROOT
BRANCH   1   2
ATOM      2  C   UNL d   1      -1.437  -3.633  -0.025  0.00  0.00     0.113 C 
BRANCH   2   3
ATOM      3  C   UNL d   1      -2.527  -2.650  -0.435  0.00  0.00     0.223 C 
ATOM      4  N   UNL d   1      -3.713  -3.054  -0.955  0.00  0.00    -0.312 N 
ATOM      5  H   UNL d   1      -4.322  -2.283  -1.188  0.00  0.00     0.170 HD
ATOM      6  O   UNL d   1      -2.378  -1.429  -0.311  0.00  0.00    -0.273 OA
BRANCH   4   7
ATOM      7  C   UNL d   1      -4.238  -4.313  -1.112  0.00  0.00     0.130 A 
ATOM      8  N   UNL d   1      -3.637  -5.473  -0.843  0.00  0.00    -0.245 N 
ATOM      9  O   UNL d   1      -4.586  -6.459  -1.064  0.00  0.00    -0.241 OA
ATOM     10  HN  UNL d   1      -2.673  -5.608  -0.536  1.00  0.00     0.196 HD
ATOM     11  C   UNL d   1      -5.749  -5.882  -1.470  0.00  0.00     0.076 A 
ATOM     12  C   UNL d   1      -5.563  -4.528  -1.565  0.00  0.00     0.084 A 
ATOM     13  C   UNL d   1      -6.903  -6.773  -1.678  0.00  0.00     0.079 C 
ENDBRANCH   4   7
ENDBRANCH   2   3
ENDBRANCH   1   2
BRANCH   1  14
ATOM     14  C   UNL d   1      -0.263  -2.203   1.830  0.00  0.00     0.119 C 
BRANCH  14  15
ATOM     15  C   UNL d   1      -0.604  -3.090   3.005  0.00  0.00     0.140 C 
ATOM     16  O   UNL d   1      -0.815  -4.291   2.968  0.00  0.00    -0.650 OA
BRANCH  15  17
ATOM     17  O   UNL d   1      -0.675  -2.388   4.161  0.00  0.00    -0.776 OA
ATOM     18  H   UNL d   1      -0.493  -1.434   4.054  0.00  0.00     0.167 HD
ENDBRANCH  15  17
ENDBRANCH  14  15
ENDBRANCH   1  14
BRANCH   1  19
ATOM     19  C   UNL d   1       1.152  -3.610   0.255  0.00  0.00    -0.053 A 
ATOM     20  C   UNL d   1       2.218  -2.914  -0.344  0.00  0.00     0.008 A 
ATOM     21  C   UNL d   1       3.451  -3.525  -0.561  0.00  0.00     0.017 A 
ATOM     22  C   UNL d   1       3.659  -4.854  -0.175  0.00  0.00     0.047 A 
ATOM     23  C   UNL d   1       2.607  -5.547   0.443  0.00  0.00     0.017 A 
ATOM     24  C   UNL d   1       1.364  -4.932   0.657  0.00  0.00     0.008 A 
BRANCH  22  25
ATOM     25  C   UNL d   1       4.996  -5.497  -0.448  0.00  0.00     0.417 C 
ATOM     26  F   UNL d   1       5.098  -6.776   0.010  0.00  0.00    -0.166 F 
ATOM     27  F   UNL d   1       5.281  -5.552  -1.778  0.00  0.00    -0.166 F 
ATOM     28  F   UNL d   1       6.028  -4.813   0.122  0.00  0.00    -0.166 F 
ENDBRANCH  22  25
ENDBRANCH   1  19
TORSDOF 8
