REMARK  3 active torsions:
REMARK  status: ('A' for Active; 'I' for Inactive)
REMARK    1  A    between atoms: C_8  and  C_6 
REMARK    2  A    between atoms: C_9  and  C_7 
REMARK    3  A    between atoms: C_13  and  C_10 
ROOT
ATOM      1  C   UNL d   1       0.367  -0.743   0.092  0.00  0.00     0.111 A 
ATOM      2  N   UNL d   1       1.559  -0.063   0.079  0.00  0.00    -0.332 N 
ATOM      3  HN  UNL d   1       2.506  -0.442   0.063  1.00  0.00     0.168 HD
ATOM      4  C   UNL d   1      -0.768   0.225   0.149  0.00  0.00     0.316 A 
ATOM      5  O   UNL d   1      -0.137   1.432   0.133  0.00  0.00    -0.256 OA
ATOM      6  C   UNL d   1       1.187   1.173   0.090  0.00  0.00     0.152 A 
ATOM      7  C   UNL d   1       0.279  -2.077   0.030  0.00  0.00     0.049 C 
ATOM      8  O   UNL d   1      -1.965   0.035   0.212  0.00  0.00    -0.257 OA
ENDROOT
BRANCH   7   9
ATOM      9  C   UNL d   1      -0.977  -2.833  -0.016  0.00  0.00    -0.012 A 
ATOM     10  C   UNL d   1      -1.614  -3.163  -1.224  0.00  0.00     0.044 A 
ATOM     11 CL   UNL d   1      -0.927  -2.751  -2.757  0.00  0.00    -0.083 Cl
ATOM     12  C   UNL d   1      -2.832  -3.849  -1.217  0.00  0.00     0.024 A 
ATOM     13  C   UNL d   1      -3.420  -4.218  -0.007  0.00  0.00     0.002 A 
ATOM     14  C   UNL d   1      -2.786  -3.909   1.197  0.00  0.00     0.001 A 
ATOM     15  C   UNL d   1      -1.571  -3.221   1.193  0.00  0.00     0.013 A 
ENDBRANCH   7   9
BRANCH   6  16
ATOM     16  C   UNL d   1       2.074   2.337   0.045  0.00  0.00     0.057 C 
ATOM     17  C   UNL d   1       1.635   3.605   0.022  0.00  0.00     0.015 C 
BRANCH  17  18
ATOM     18  C   UNL d   1       2.523   4.776  -0.068  0.00  0.00    -0.036 A 
ATOM     19  C   UNL d   1       3.749   4.737  -0.746  0.00  0.00     0.011 A 
ATOM     20  C   UNL d   1       4.549   5.878  -0.845  0.00  0.00     0.001 A 
ATOM     21  C   UNL d   1       4.126   7.077  -0.278  0.00  0.00     0.000 A 
ATOM     22  C   UNL d   1       2.901   7.136   0.384  0.00  0.00     0.001 A 
ATOM     23  C   UNL d   1       2.102   5.994   0.485  0.00  0.00     0.011 A 
ENDBRANCH  17  18
ENDBRANCH   6  16
TORSDOF 3
