REMARK  5 active torsions:
REMARK  status: ('A' for Active; 'I' for Inactive)
REMARK    1  A    between atoms: C_6  and  C_3 
REMARK    2  A    between atoms: C_7  and  C_6 
REMARK    3  A    between atoms: C_8  and  C_7 
REMARK    4  A    between atoms: C_16  and  C_13 
REMARK    5  A    between atoms: C_19  and  C_16 
ROOT
ATOM      1  C   UNL d   1       1.983  -3.693   1.097  0.00  0.00     0.162 C 
ATOM      2  O   UNL d   1       1.916  -2.835   1.976  0.00  0.00    -0.292 OA
ENDROOT
BRANCH   1   3
ATOM      3  C   UNL d   1       0.972  -4.824   1.045  0.00  0.00     0.121 C 
BRANCH   3   4
ATOM      4  C   UNL d   1       0.044  -4.818  -0.168  0.00  0.00     0.173 A 
ATOM      5  O   UNL d   1       0.759  -5.173  -1.375  0.00  0.00    -0.307 OA
ATOM      6  C   UNL d   1       0.589  -4.247  -2.370  0.00  0.00     0.294 A 
ATOM      7  C   UNL d   1      -0.293  -3.220  -1.832  0.00  0.00     0.048 A 
ATOM      8  O   UNL d   1       1.060  -4.292  -3.485  0.00  0.00    -0.259 OA
ATOM      9  C   UNL d   1      -0.623  -3.547  -0.530  0.00  0.00    -0.012 A 
ATOM     10  C   UNL d   1      -0.795  -2.104  -2.478  0.00  0.00     0.018 A 
ATOM     11  C   UNL d   1      -1.513  -2.759   0.179  0.00  0.00     0.011 A 
ATOM     12  C   UNL d   1      -2.052  -1.632  -0.453  0.00  0.00     0.001 A 
ATOM     13  C   UNL d   1      -1.691  -1.302  -1.772  0.00  0.00     0.001 A 
ENDBRANCH   3   4
ENDBRANCH   1   3
BRANCH   1  14
ATOM     14  C   UNL d   1       3.061  -3.599   0.071  0.00  0.00     0.010 A 
ATOM     15  C   UNL d   1       3.533  -2.327  -0.264  0.00  0.00     0.015 A 
ATOM     16  C   UNL d   1       4.462  -2.170  -1.295  0.00  0.00     0.008 A 
ATOM     17  C   UNL d   1       4.938  -3.280  -2.005  0.00  0.00    -0.058 A 
ATOM     18  C   UNL d   1       4.511  -4.558  -1.619  0.00  0.00     0.008 A 
ATOM     19  C   UNL d   1       3.581  -4.719  -0.584  0.00  0.00     0.015 A 
BRANCH  17  20
ATOM     20  C   UNL d   1       5.926  -3.084  -3.134  0.00  0.00     0.042 C 
BRANCH  20  21
ATOM     21  C   UNL d   1       5.532  -3.706  -4.491  0.00  0.00    -0.019 C 
ATOM     22  C   UNL d   1       4.241  -3.110  -5.057  0.00  0.00     0.010 C 
ATOM     23  C   UNL d   1       6.668  -3.496  -5.498  0.00  0.00     0.010 C 
ENDBRANCH  20  21
ENDBRANCH  17  20
ENDBRANCH   1  14
TORSDOF 5
