REMARK  2 active torsions:
REMARK  status: ('A' for Active; 'I' for Inactive)
REMARK    1  A    between atoms: N_7  and  C_1 
REMARK    2  A    between atoms: C_11  and  N_7 
ROOT
ATOM      1  C   UNL d   1      -1.269  -0.768  -0.506  0.00  0.00     0.113 C 
ATOM      2  C   UNL d   1      -0.000  -1.153   0.401  0.00  0.00    -0.003 C 
ATOM      3  C   UNL d   1       0.018  -0.046   1.525  0.00  0.00    -0.034 C 
ATOM      4  C   UNL d   1       0.049   1.078   0.474  0.00  0.00    -0.003 C 
ATOM      5  C   UNL d   1      -2.542  -1.361   0.027  0.00  0.00     0.086 C 
ATOM      6  C   UNL d   1      -1.197   0.790  -0.395  0.00  0.00     0.047 C 
ATOM      7  N   UNL d   1      -3.522  -1.834   0.444  0.00  0.00    -0.195 NA
ATOM      8  C   UNL d   1       1.298  -0.785  -0.395  0.00  0.00     0.013 C 
ATOM      9  C   UNL d   1       1.284   0.750  -0.392  0.00  0.00     0.006 C 
ATOM     10  C   UNL d   1       0.050  -2.590   0.898  0.00  0.00     0.019 C 
ATOM     11  C   UNL d   1       1.251  -0.041   2.458  0.00  0.00     0.016 C 
ATOM     12  C   UNL d   1      -1.198   0.029   2.468  0.00  0.00     0.016 C 
ENDROOT
BRANCH   1  13
ATOM     13  N   UNL d   1      -1.073  -1.211  -1.916  0.00  0.00    -0.271 NA
ATOM     14  H   UNL d   1      -0.757  -2.179  -1.954  0.00  0.00     0.129 HD
BRANCH  13  15
ATOM     15  C   UNL d   1      -2.063  -0.997  -2.894  0.00  0.00     0.009 A 
ATOM     16  C   UNL d   1      -2.956   0.084  -2.892  0.00  0.00     0.023 A 
ATOM     17  C   UNL d   1      -3.873   0.290  -3.927  0.00  0.00     0.002 A 
ATOM     18  C   UNL d   1      -3.916  -0.584  -4.998  0.00  0.00     0.000 A 
ATOM     19  C   UNL d   1      -3.024  -1.652  -5.048  0.00  0.00     0.002 A 
ATOM     20  C   UNL d   1      -2.094  -1.839  -4.016  0.00  0.00     0.023 A 
ENDBRANCH  13  15
ENDBRANCH   1  13
TORSDOF 2
