REMARK  4 active torsions:
REMARK  status: ('A' for Active; 'I' for Inactive)
REMARK    1  A    between atoms: C_14  and  C_4 
REMARK    2  A    between atoms: S_10  and  C_14 
REMARK    3  A    between atoms: C_12  and  S_10 
REMARK    4  A    between atoms: N_17  and  C_16 
ROOT
ATOM      1  N   UNL d   1       1.157   0.065   0.543  0.00  0.00    -0.322 N 
ATOM      2  HN  UNL d   1       1.999   0.158   1.111  1.00  0.00     0.169 HD
ATOM      3  C   UNL d   1       0.523  -1.037   0.191  0.00  0.00     0.189 A 
ATOM      4  C   UNL d   1       0.406   1.060  -0.041  0.00  0.00     0.113 A 
ATOM      5  N   UNL d   1      -0.686   0.622  -0.680  0.00  0.00    -0.246 N 
ATOM      6  HN  UNL d   1      -1.401   1.169  -1.160  1.00  0.00     0.196 HD
ATOM      7  O   UNL d   1      -0.612  -0.765  -0.533  0.00  0.00    -0.217 OA
ATOM      8  C   UNL d   1       0.987  -2.358   0.510  0.00  0.00     0.058 A 
ATOM      9  S   UNL d   1       0.111  -3.760   0.057  0.00  0.00    -0.098 SA
ATOM     10  C   UNL d   1       2.152  -2.691   1.177  0.00  0.00     0.024 A 
ATOM     11  C   UNL d   1       1.287  -4.800   0.736  0.00  0.00     0.050 A 
ATOM     12  C   UNL d   1       2.328  -4.101   1.304  0.00  0.00     0.009 A 
ENDROOT
BRANCH   4  13
ATOM     13  C   UNL d   1       0.751   2.510   0.046  0.00  0.00     0.158 C 
BRANCH  13  14
ATOM     14  S   UNL d   1       2.538   2.792  -0.255  0.00  0.00    -0.121 SA
BRANCH  14  15
ATOM     15  C   UNL d   1       2.654   4.534   0.154  0.00  0.00     0.021 A 
ATOM     16  C   UNL d   1       2.207   5.537  -0.730  0.00  0.00     0.022 A 
ATOM     17  C   UNL d   1       2.330   6.879  -0.346  0.00  0.00     0.024 A 
ATOM     18  C   UNL d   1       2.983   7.229   0.838  0.00  0.00     0.002 A 
ATOM     19  C   UNL d   1       3.474   6.236   1.681  0.00  0.00     0.001 A 
ATOM     20  C   UNL d   1       3.304   4.891   1.343  0.00  0.00     0.020 A 
BRANCH  16  21
ATOM     21  N   UNL d   1       1.464   5.223  -1.885  0.00  0.00    -0.302 NA
ATOM     22  H   UNL d   1       1.729   4.312  -2.256  0.00  0.00     0.124 HD
ATOM     23  H   UNL d   1       1.507   5.946  -2.598  0.00  0.00     0.124 HD
ENDBRANCH  16  21
ENDBRANCH  14  15
ENDBRANCH  13  14
ENDBRANCH   4  13
TORSDOF 4
