REMARK  7 active torsions:
REMARK  status: ('A' for Active; 'I' for Inactive)
REMARK    1  A    between atoms: S_10  and  C_2 
REMARK    2  A    between atoms: C_17  and  C_3 
REMARK    3  A    between atoms: C_20  and  S_10 
REMARK    4  A    between atoms: S_12  and  C_17 
REMARK    5  A    between atoms: C_16  and  S_12 
REMARK    6  A    between atoms: C_18  and  C_20 
REMARK    7  A    between atoms: C_19  and  C_18 
ROOT
ATOM      1  N   UNL d   1       0.832   0.105  -0.082  0.00  0.00    -0.319 N 
ATOM      2  C   UNL d   1      -0.025   1.168  -0.187  0.00  0.00     0.162 A 
ATOM      3  C   UNL d   1       0.032  -1.020  -0.051  0.00  0.00     0.109 A 
ATOM      4  N   UNL d   1      -1.263   0.740  -0.157  0.00  0.00    -0.278 N 
ATOM      5  HN  UNL d   1      -2.101   1.320  -0.197  1.00  0.00     0.189 HD
ATOM      6  N   UNL d   1      -1.230  -0.625  -0.062  0.00  0.00    -0.286 N 
ATOM      7  HN  UNL d   1      -2.045  -1.237  -0.010  1.00  0.00     0.188 HD
ATOM      8  C   UNL d   1       2.272   0.123  -0.013  0.00  0.00     0.159 C 
ENDROOT
BRANCH   3   9
ATOM      9  C   UNL d   1       0.537  -2.433  -0.013  0.00  0.00     0.157 C 
BRANCH   9  10
ATOM     10  S   UNL d   1      -0.822  -3.629  -0.314  0.00  0.00    -0.121 SA
BRANCH  10  11
ATOM     11  C   UNL d   1      -0.004  -5.206  -0.058  0.00  0.00     0.014 A 
ATOM     12  C   UNL d   1       0.830  -5.828  -1.021  0.00  0.00     0.007 A 
ATOM     13  C   UNL d   1       1.290  -7.134  -0.721  0.00  0.00     0.045 A 
ATOM     14  C   UNL d   1       1.205  -5.251  -2.259  0.00  0.00     0.017 A 
ATOM     15  C   UNL d   1       2.089  -7.803  -1.635  0.00  0.00     0.054 A 
ATOM     16  N   UNL d   1       0.973  -7.778   0.413  0.00  0.00    -0.365 N 
ATOM     17  C   UNL d   1       2.454  -7.216  -2.843  0.00  0.00     0.036 A 
ATOM     18  C   UNL d   1       2.018  -5.939  -3.160  0.00  0.00     0.025 A 
ATOM     19 CL   UNL d   1       3.442  -8.082  -3.953  0.00  0.00    -0.084 Cl
ATOM     20  C   UNL d   1       0.163  -7.162   1.294  0.00  0.00     0.089 A 
ATOM     21  HN  UNL d   1       1.338  -8.711   0.602  1.00  0.00     0.165 HD
ATOM     22  C   UNL d   1      -0.345  -5.893   1.107  0.00  0.00     0.036 A 
ENDBRANCH  10  11
ENDBRANCH   9  10
ENDBRANCH   3   9
BRANCH   2  23
ATOM     23  S   UNL d   1       0.454   2.819  -0.363  0.00  0.00    -0.085 SA
BRANCH  23  24
ATOM     24  C   UNL d   1      -1.183   3.604  -0.556  0.00  0.00     0.166 C 
BRANCH  24  25
ATOM     25  C   UNL d   1      -1.075   5.096  -0.828  0.00  0.00     0.169 C 
ATOM     26  O   UNL d   1      -0.014   5.713  -0.901  0.00  0.00    -0.291 OA
BRANCH  25  27
ATOM     27  C   UNL d   1      -2.345   5.872  -0.984  0.00  0.00     0.011 A 
ATOM     28  C   UNL d   1      -2.321   7.247  -0.700  0.00  0.00     0.018 A 
ATOM     29  C   UNL d   1      -3.476   8.021  -0.836  0.00  0.00     0.043 A 
ATOM     30  C   UNL d   1      -4.652   7.420  -1.272  0.00  0.00     0.116 A 
ATOM     31  C   UNL d   1      -4.693   6.062  -1.566  0.00  0.00     0.043 A 
ATOM     32  F   UNL d   1      -5.758   8.160  -1.413  0.00  0.00    -0.206 F 
ATOM     33  C   UNL d   1      -3.541   5.281  -1.419  0.00  0.00     0.018 A 
ENDBRANCH  25  27
ENDBRANCH  24  25
ENDBRANCH  23  24
ENDBRANCH   2  23
TORSDOF 7
