REMARK  3 active torsions:
REMARK  status: ('A' for Active; 'I' for Inactive)
REMARK    1  A    between atoms: C_5  and  C_1 
REMARK    2  A    between atoms: N_8  and  C_4 
REMARK    3  A    between atoms: N_14  and  N_8 
ROOT
ATOM      1  N   UNL d   1       0.615   2.091   1.449  0.00  0.00    -0.328 N 
ATOM      2  HN  UNL d   1       0.956   2.692   0.699  1.00  0.00     0.168 HD
ATOM      3  C   UNL d   1       0.223   2.604   2.622  0.00  0.00     0.171 A 
ATOM      4  C   UNL d   1       0.544   0.743   1.292  0.00  0.00     0.120 A 
ATOM      5  N   UNL d   1      -0.234   1.863   3.649  0.00  0.00    -0.342 N 
ATOM      6  HN  UNL d   1      -0.514   2.292   4.532  1.00  0.00     0.167 HD
ATOM      7  C   UNL d   1       0.073  -0.084   2.295  0.00  0.00     0.051 A 
ATOM      8  C   UNL d   1      -0.306   0.535   3.461  0.00  0.00     0.093 A 
ENDROOT
BRANCH   3   9
ATOM      9  N   UNL d   1       0.311   4.002   2.766  0.00  0.00    -0.199 NA
ATOM     10  H   UNL d   1       0.918   4.345   2.022  0.00  0.00     0.149 HD
BRANCH   9  11
ATOM     11  N   UNL d   1       0.502   4.540   4.066  0.00  0.00    -0.264 NA
ATOM     12  H   UNL d   1       0.298   3.802   4.753  0.00  0.00     0.137 HD
ATOM     13  H   UNL d   1      -0.218   5.247   4.237  0.00  0.00     0.137 HD
ENDBRANCH   9  11
ENDBRANCH   3   9
BRANCH   4  14
ATOM     14  C   UNL d   1       0.996   0.121  -0.018  0.00  0.00     0.432 C 
ATOM     15  F   UNL d   1       1.494   1.009  -0.922  0.00  0.00    -0.165 F 
ATOM     16  F   UNL d   1      -0.018  -0.535  -0.658  0.00  0.00    -0.165 F 
ATOM     17  F   UNL d   1       1.974  -0.814   0.163  0.00  0.00    -0.165 F 
ENDBRANCH   4  14
TORSDOF 3
