REMARK  3 active torsions:
REMARK  status: ('A' for Active; 'I' for Inactive)
REMARK    1  A    between atoms: C3_5  and  C1_2 
REMARK    2  A    between atoms: C4_6  and  C2_3 
REMARK    3  A    between atoms: O2_10  and  C3_5 
ROOT
ATOM      1  N1  <1> d   1      -1.514  -0.520   0.160  0.00  0.00     0.117 N 
ATOM      2  C1  <1> d   1      -1.381   0.969   0.234  0.00  0.00     0.328 C 
ATOM      3  C2  <1> d   1      -0.311  -1.090  -0.458  0.00  0.00     0.316 C 
ATOM      4  S1  <1> d   1       1.076  -0.054   0.042  0.00  0.00    -0.126 SA
ATOM      5  C5  <1> d   1       0.070   1.439   0.142  0.00  0.00     0.123 C 
ATOM      6  H1  <1> d   1      -2.328  -0.777  -0.401  0.00  0.00     0.319 HD
ENDROOT
BRANCH   3   7
ATOM      7  C4  <1> d   1      -0.367  -1.269  -1.968  0.00  0.00    -0.013 A 
ATOM      8  C6  <1> d   1      -1.117  -0.448  -2.824  0.00  0.00     0.052 A 
ATOM      9  C7  <1> d   1      -1.095  -0.651  -4.202  0.00  0.00     0.117 A 
ATOM     10  F1  <1> d   1      -1.823   0.150  -4.992  0.00  0.00    -0.206 F 
ATOM     11  C10 <1> d   1      -0.332  -1.661  -4.769  0.00  0.00     0.042 A 
ATOM     12  C9  <1> d   1       0.426  -2.484  -3.942  0.00  0.00     0.004 A 
ATOM     13  C8  <1> d   1       0.410  -2.288  -2.557  0.00  0.00     0.010 A 
ENDBRANCH   3   7
BRANCH   2  14
ATOM     14  C3  <1> d   1      -1.996   1.464   1.546  0.00  0.00     0.175 C 
ATOM     15  O1  <1> d   1      -2.103   2.638   1.862  0.00  0.00    -0.648 OA
BRANCH  14  16
ATOM     16  O2  <1> d   1      -2.428   0.442   2.329  0.00  0.00    -0.775 OA
ATOM     17  H7  <1> d   1      -2.191  -0.393   1.858  0.00  0.00     0.167 HD
ENDBRANCH  14  16
ENDBRANCH   2  14
TORSDOF 3
