REMARK  3 active torsions:
REMARK  status: ('A' for Active; 'I' for Inactive)
REMARK    1  A    between atoms: C_13  and  N_19 
REMARK    2  A    between atoms: S_21  and  C_14 
REMARK    3  A    between atoms: N_19  and  C_15 
ROOT
ATOM      1  S   UNL d   1      -1.189  -1.601   0.067  0.00  0.00     0.270 S 
ATOM      2  C   UNL d   1      -2.446  -0.524   0.525  0.00  0.00     0.146 C 
ATOM      3  N   UNL d   1      -1.724  -1.997  -1.499  0.00  0.00    -0.275 N 
ATOM      4  C   UNL d   1      -2.687   0.594  -0.395  0.00  0.00     0.209 C 
ATOM      5  C   UNL d   1      -2.404   0.379  -1.846  0.00  0.00     0.043 A 
ATOM      6  C   UNL d   1      -1.955  -0.858  -2.365  0.00  0.00     0.059 A 
ATOM      7  C   UNL d   1      -3.288  -0.838   1.525  0.00  0.00     0.135 C 
ATOM      8  O   UNL d   1       0.054  -0.874  -0.070  0.00  0.00    -0.200 OA
ATOM      9  O   UNL d   1      -1.240  -2.811   0.868  0.00  0.00    -0.200 OA
ATOM     10  O   UNL d   1      -3.183   1.645   0.002  0.00  0.00    -0.286 OA
ATOM     11  C   UNL d   1      -1.359  -3.318  -2.022  0.00  0.00     0.170 C 
ATOM     12  C   UNL d   1      -2.693   1.446  -2.714  0.00  0.00     0.018 A 
ATOM     13  C   UNL d   1      -1.865  -0.999  -3.758  0.00  0.00     0.031 A 
ATOM     14  C   UNL d   1      -2.579   1.286  -4.093  0.00  0.00     0.001 A 
ATOM     15  C   UNL d   1      -2.172   0.064  -4.614  0.00  0.00     0.002 A 
ENDROOT
BRANCH   7  16
ATOM     16  N   UNL d   1      -4.434  -0.186   1.903  0.00  0.00    -0.200 N 
ATOM     17  H   UNL d   1      -4.682   0.679   1.430  0.00  0.00     0.183 HD
BRANCH  16  18
ATOM     18  C   UNL d   1      -5.397  -0.606   2.819  0.00  0.00     0.685 A 
ATOM     19  N   UNL d   1      -5.205  -1.710   3.537  0.00  0.00    -0.170 N 
ATOM     20  C   UNL d   1      -6.179  -2.014   4.391  0.00  0.00     0.160 A 
ATOM     21  HN  UNL d   1      -4.367  -2.284   3.440  1.00  0.00     0.186 HD
ATOM     22  N   UNL d   1      -7.302  -1.320   4.547  0.00  0.00    -0.326 N 
ATOM     23  C   UNL d   1      -7.409  -0.244   3.778  0.00  0.00     0.095 A 
ATOM     24  HN  UNL d   1      -8.027  -1.595   5.209  1.00  0.00     0.169 HD
ATOM     25  N   UNL d   1      -6.487   0.155   2.903  0.00  0.00    -0.181 N 
ATOM     26  C   UNL d   1      -8.657   0.574   3.899  0.00  0.00     0.089 C 
ATOM     27  HN  UNL d   1      -6.608   0.992   2.333  1.00  0.00     0.185 HD
BRANCH  20  28
ATOM     28  S   UNL d   1      -6.021  -3.441   5.443  0.00  0.00    -0.098 SA
ATOM     29  C   UNL d   1      -4.421  -4.091   4.911  0.00  0.00     0.099 C 
ENDBRANCH  20  28
ENDBRANCH  16  18
ENDBRANCH   7  16
TORSDOF 3
