REMARK  5 active torsions:
REMARK  status: ('A' for Active; 'I' for Inactive)
REMARK    1  A    between atoms: N_6  and  C_1 
REMARK    2  A    between atoms: C_9  and  N_2 
REMARK       I    between atoms: C_8  and  N_6 
REMARK    3  A    between atoms: C_17  and  C_7 
REMARK       I    between atoms: N_11  and  C_8 
REMARK    4  A    between atoms: C_15  and  N_11 
REMARK    5  A    between atoms: O_29  and  C_26 
ROOT
ATOM      1  N   UNL d   1       1.310  -5.755  -2.166  0.00  0.00    -0.191 NA
ATOM      2  C   UNL d   1       0.678  -5.058  -2.837  0.00  0.00     0.102 C 
ATOM      3  C   UNL d   1      -0.577  -2.964  -3.362  0.00  0.00     0.057 A 
ATOM      4  C   UNL d   1      -0.059  -4.215  -3.738  0.00  0.00     0.071 A 
ATOM      5  C   UNL d   1      -0.144  -4.626  -5.085  0.00  0.00     0.025 A 
ATOM      6  C   UNL d   1      -1.194  -2.165  -4.341  0.00  0.00     0.031 A 
ATOM      7  C   UNL d   1      -0.747  -3.814  -6.047  0.00  0.00     0.002 A 
ATOM      8  C   UNL d   1      -1.288  -2.591  -5.670  0.00  0.00     0.002 A 
ENDROOT
BRANCH   3   9
ATOM      9  N   UNL d   1      -0.457  -2.390  -2.066  0.00  0.00    -0.307 N 
ATOM     10  C   UNL d   1      -0.794  -3.046  -0.899  0.00  0.00     0.326 C 
ATOM     11  N   UNL d   1      -0.723  -2.295   0.261  0.00  0.00    -0.293 N 
ATOM     12  O   UNL d   1      -1.285  -4.170  -0.853  0.00  0.00    -0.247 OA
ATOM     13  H   UNL d   1      -1.397  -2.599   0.955  0.00  0.00     0.172 HD
ATOM     14  H   UNL d   1      -0.649  -1.397  -2.023  0.00  0.00     0.170 HD
BRANCH  11  15
ATOM     15  C   UNL d   1      -0.168  -1.030   0.358  0.00  0.00     0.133 C 
ATOM     16  N   UNL d   1       1.110  -0.659  -0.048  0.00  0.00    -0.239 N 
ATOM     17  N   UNL d   1       1.197   0.692  -0.184  0.00  0.00    -0.291 N 
ATOM     18  C   UNL d   1       0.133   1.168   0.489  0.00  0.00     0.062 C 
ATOM     19  HN  UNL d   1       1.909   1.224  -0.685  1.00  0.00     0.187 HD
ATOM     20  C   UNL d   1      -0.705   0.100   0.921  0.00  0.00     0.082 C 
BRANCH  16  21
ATOM     21  C   UNL d   1       2.266  -1.481  -0.141  0.00  0.00     0.060 A 
ATOM     22  C   UNL d   1       2.373  -2.633   0.656  0.00  0.00     0.057 A 
ATOM     23  C   UNL d   1       3.533  -3.414   0.618  0.00  0.00     0.058 A 
ATOM     24 CL   UNL d   1       3.624  -4.767   1.690  0.00  0.00    -0.082 Cl
ATOM     25  C   UNL d   1       4.579  -3.063  -0.240  0.00  0.00     0.055 A 
ATOM     26  C   UNL d   1       4.473  -1.912  -1.030  0.00  0.00     0.028 A 
ATOM     27 CL   UNL d   1       6.034  -3.989  -0.352  0.00  0.00    -0.083 Cl
ATOM     28  C   UNL d   1       3.332  -1.105  -0.965  0.00  0.00     0.033 A 
ENDBRANCH  16  21
BRANCH  18  29
ATOM     29  C   UNL d   1      -0.113   2.603   0.681  0.00  0.00    -0.008 A 
ATOM     30  C   UNL d   1       0.939   3.521   0.786  0.00  0.00     0.016 A 
ATOM     31  C   UNL d   1       0.686   4.884   1.022  0.00  0.00     0.037 A 
ATOM     32  C   UNL d   1      -0.625   5.346   1.144  0.00  0.00     0.068 A 
ATOM     33  C   UNL d   1      -1.677   4.440   1.010  0.00  0.00     0.037 A 
ATOM     34  C   UNL d   1      -1.427   3.083   0.784  0.00  0.00     0.016 A 
BRANCH  32  35
ATOM     35  O   UNL d   1      -1.016   6.634   1.381  0.00  0.00    -0.356 OA
ATOM     36  C   UNL d   1       0.007   7.582   1.657  0.00  0.00     0.210 C 
ENDBRANCH  32  35
ENDBRANCH  18  29
ENDBRANCH  11  15
ENDBRANCH   3   9
TORSDOF 5
