REMARK  3 active torsions:
REMARK  status: ('A' for Active; 'I' for Inactive)
REMARK    1  A    between atoms: N_9  and  C_1 
REMARK    2  A    between atoms: N_6  and  N_9 
REMARK    3  A    between atoms: C_11  and  C_14 
ROOT
ATOM      1  N   UNL d   1       1.216   3.236   0.066  0.00  0.00    -0.290 N 
ATOM      2  HN  UNL d   1       0.301   2.787   0.085  1.00  0.00     0.187 HD
ATOM      3  C   UNL d   1       1.311   4.532   0.032  0.00  0.00     0.032 C 
ATOM      4  C   UNL d   1       2.626   5.283   0.024  0.00  0.00     0.070 C 
ENDROOT
BRANCH   1   5
ATOM      5  N   UNL d   1       2.351   2.485   0.075  0.00  0.00    -0.131 N 
ATOM      6  H   UNL d   1       3.268   2.911   0.005  0.00  0.00     0.205 HD
BRANCH   5   7
ATOM      7  C   UNL d   1       2.357   1.134   0.097  0.00  0.00     0.712 A 
ATOM      8  N   UNL d   1       3.580   0.508   0.064  0.00  0.00    -0.184 N 
ATOM      9  C   UNL d   1       3.270  -0.767   0.095  0.00  0.00     0.215 A 
ATOM     10  HN  UNL d   1       4.507   0.932   0.025  1.00  0.00     0.185 HD
ATOM     11  N   UNL d   1       1.921  -0.898   0.141  0.00  0.00    -0.281 N 
ATOM     12  N   UNL d   1       1.317   0.294   0.144  0.00  0.00    -0.130 N 
ATOM     13  H   UNL d   1       1.356  -1.739   0.170  0.00  0.00     0.188 HD
ATOM     14  HN  UNL d   1       0.321   0.508   0.175  1.00  0.00     0.205 HD
ENDBRANCH   5   7
ENDBRANCH   1   5
BRANCH   3  15
ATOM     15  C   UNL d   1       0.040   5.319   0.010  0.00  0.00    -0.011 A 
ATOM     16  C   UNL d   1      -1.092   4.790   0.646  0.00  0.00     0.039 A 
ATOM     17  C   UNL d   1      -2.300   5.495   0.640  0.00  0.00     0.056 A 
ATOM     18 CL   UNL d   1      -3.650   4.793   1.460  0.00  0.00    -0.083 Cl
ATOM     19  C   UNL d   1      -2.383   6.730  -0.014  0.00  0.00     0.055 A 
ATOM     20  C   UNL d   1      -1.258   7.250  -0.660  0.00  0.00     0.026 A 
ATOM     21 CL   UNL d   1      -3.840   7.657  -0.069  0.00  0.00    -0.083 Cl
ATOM     22  C   UNL d   1      -0.051   6.547  -0.654  0.00  0.00     0.015 A 
ENDBRANCH   3  15
TORSDOF 3
