REMARK  4 active torsions:
REMARK  status: ('A' for Active; 'I' for Inactive)
REMARK    1  A    between atoms: C_8  and  N_3 
REMARK    2  A    between atoms: C_9  and  C_4 
REMARK    3  A    between atoms: C_7  and  C_5 
REMARK    4  A    between atoms: O_15  and  C_12 
ROOT
ATOM      1  N   UNL d   1       1.151  -0.197   0.081  0.00  0.00    -0.301 N 
ATOM      2  HN  UNL d   1       2.148  -0.392   0.170  1.00  0.00     0.187 HD
ATOM      3  N   UNL d   1       0.143  -1.115   0.050  0.00  0.00    -0.283 N 
ATOM      4  C   UNL d   1       0.599   0.975  -0.024  0.00  0.00     0.038 A 
ATOM      5  C   UNL d   1      -1.192  -0.524  -0.040  0.00  0.00     0.147 A 
ATOM      6  C   UNL d   1      -0.903   0.975  -0.093  0.00  0.00     0.091 A 
ENDROOT
BRANCH   5   7
ATOM      7  C   UNL d   1      -2.071  -0.865   1.153  0.00  0.00    -0.033 A 
ATOM      8  C   UNL d   1      -1.529  -1.060   2.434  0.00  0.00     0.012 A 
ATOM      9  C   UNL d   1      -2.345  -1.363   3.526  0.00  0.00     0.037 A 
ATOM     10  C   UNL d   1      -3.724  -1.458   3.363  0.00  0.00     0.068 A 
ATOM     11  C   UNL d   1      -4.276  -1.254   2.096  0.00  0.00     0.037 A 
ATOM     12  C   UNL d   1      -3.461  -0.958   0.999  0.00  0.00     0.012 A 
BRANCH  10  13
ATOM     13  O   UNL d   1      -4.628  -1.745   4.349  0.00  0.00    -0.356 OA
ATOM     14  C   UNL d   1      -4.099  -1.937   5.655  0.00  0.00     0.210 C 
ENDBRANCH  10  13
ENDBRANCH   5   7
BRANCH   3  15
ATOM     15  C   UNL d   1       0.413  -2.482   0.036  0.00  0.00     0.051 A 
ATOM     16  C   UNL d   1       1.595  -2.986   0.603  0.00  0.00     0.031 A 
ATOM     17  C   UNL d   1       1.861  -4.359   0.644  0.00  0.00     0.002 A 
ATOM     18  C   UNL d   1       0.959  -5.259   0.087  0.00  0.00     0.000 A 
ATOM     19  C   UNL d   1      -0.209  -4.786  -0.501  0.00  0.00     0.002 A 
ATOM     20  C   UNL d   1      -0.481  -3.414  -0.514  0.00  0.00     0.031 A 
ENDBRANCH   3  15
BRANCH   4  21
ATOM     21  C   UNL d   1       1.372   2.237  -0.099  0.00  0.00    -0.012 A 
ATOM     22  C   UNL d   1       2.769   2.188  -0.063  0.00  0.00     0.013 A 
ATOM     23  C   UNL d   1       3.518   3.362  -0.173  0.00  0.00     0.001 A 
ATOM     24  C   UNL d   1       2.873   4.589  -0.322  0.00  0.00     0.000 A 
ATOM     25  C   UNL d   1       1.481   4.646  -0.354  0.00  0.00     0.001 A 
ATOM     26  C   UNL d   1       0.728   3.474  -0.242  0.00  0.00     0.013 A 
ENDBRANCH   4  21
TORSDOF 4
