REMARK  4 active torsions:
REMARK  status: ('A' for Active; 'I' for Inactive)
REMARK    1  A    between atoms: N_9  and  C_3 
REMARK    2  A    between atoms: N_13  and  C_6 
REMARK    3  A    between atoms: C_11  and  N_9 
REMARK    4  A    between atoms: S_14  and  C_12 
ROOT
ATOM      1  N   UNL d   1      -1.620   1.775  -1.561  0.00  0.00    -0.166 N 
ATOM      2  HN  UNL d   1      -0.651   1.455  -1.576  1.00  0.00     0.187 HD
ATOM      3  C   UNL d   1      -2.577   1.111  -0.918  0.00  0.00     0.685 A 
ATOM      4  N   UNL d   1      -3.840   1.526  -0.840  0.00  0.00    -0.188 N 
ATOM      5  HN  UNL d   1      -4.554   1.010  -0.325  1.00  0.00     0.185 HD
ATOM      6  C   UNL d   1      -2.009   2.880  -2.182  0.00  0.00     0.170 A 
ATOM      7  N   UNL d   1      -3.232   3.380  -2.163  0.00  0.00    -0.328 N 
ATOM      8  HN  UNL d   1      -3.483   4.248  -2.636  1.00  0.00     0.169 HD
ATOM      9  C   UNL d   1      -4.106   2.656  -1.477  0.00  0.00     0.200 A 
ENDROOT
BRANCH   3  10
ATOM     10  N   UNL d   1      -2.203  -0.075  -0.278  0.00  0.00    -0.190 N 
ATOM     11  H   UNL d   1      -1.246  -0.300  -0.518  0.00  0.00     0.184 HD
BRANCH  10  12
ATOM     12  C   UNL d   1      -3.006  -1.220  -0.081  0.00  0.00     0.066 A 
ATOM     13  C   UNL d   1      -2.775  -2.110   0.990  0.00  0.00     0.027 A 
ATOM     14  C   UNL d   1      -3.587  -3.252   1.123  0.00  0.00     0.021 A 
ATOM     15  C   UNL d   1      -4.598  -3.533   0.202  0.00  0.00     0.002 A 
ATOM     16  C   UNL d   1      -4.802  -2.683  -0.876  0.00  0.00     0.002 A 
ATOM     17  C   UNL d   1      -4.013  -1.542  -1.014  0.00  0.00     0.031 A 
BRANCH  13  18
ATOM     18  S   UNL d   1      -1.462  -1.958   2.211  0.00  0.00    -0.132 SA
ATOM     19  C   UNL d   1      -1.517  -0.198   2.639  0.00  0.00     0.095 C 
ENDBRANCH  13  18
ENDBRANCH  10  12
ENDBRANCH   3  10
BRANCH   6  20
ATOM     20  N   UNL d   1      -1.055   3.591  -2.881  0.00  0.00    -0.273 NA
ATOM     21  H   UNL d   1      -0.131   3.410  -2.511  0.00  0.00     0.127 HD
ATOM     22  H   UNL d   1      -1.338   4.557  -2.974  0.00  0.00     0.127 HD
ENDBRANCH   6  20
TORSDOF 4
