REMARK  3 active torsions:
REMARK  status: ('A' for Active; 'I' for Inactive)
REMARK    1  A    between atoms: C_12  and  C_5 
REMARK    2  A    between atoms: C_10  and  C_7 
REMARK    3  A    between atoms: C_11  and  C_8 
ROOT
ATOM      1  N   UNL d   1      -0.287   1.522  -0.002  0.00  0.00    -0.300 N 
ATOM      2  HN  UNL d   1      -0.462   2.520  -0.118  1.00  0.00     0.187 HD
ATOM      3  N   UNL d   1       1.036   1.169   0.069  0.00  0.00    -0.303 N 
ATOM      4  HN  UNL d   1       1.688   1.937   0.227  1.00  0.00     0.186 HD
ATOM      5  C   UNL d   1      -0.531  -1.578   0.064  0.00  0.00    -0.040 C 
ATOM      6  C   UNL d   1      -1.502  -0.681   0.206  0.00  0.00     0.040 C 
ATOM      7  C   UNL d   1      -1.338   0.788   0.057  0.00  0.00     0.059 C 
ATOM      8  C   UNL d   1       1.571  -0.003  -0.038  0.00  0.00     0.040 C 
ATOM      9  C   UNL d   1       0.914  -1.356  -0.173  0.00  0.00     0.099 C 
ENDROOT
BRANCH   7  10
ATOM     10  C   UNL d   1      -2.657   1.532  -0.010  0.00  0.00    -0.008 A 
ATOM     11  C   UNL d   1      -2.741   2.814   0.552  0.00  0.00     0.014 A 
ATOM     12  C   UNL d   1      -3.948   3.522   0.530  0.00  0.00     0.007 A 
ATOM     13  C   UNL d   1      -5.090   2.962  -0.055  0.00  0.00    -0.062 A 
ATOM     14  C   UNL d   1      -5.002   1.694  -0.637  0.00  0.00     0.007 A 
ATOM     15  C   UNL d   1      -6.381   3.727  -0.072  0.00  0.00     0.048 C 
ATOM     16  C   UNL d   1      -3.793   0.990  -0.627  0.00  0.00     0.014 A 
ENDBRANCH   7  10
BRANCH   5  17
ATOM     17  C   UNL d   1      -0.902  -3.007   0.064  0.00  0.00    -0.029 A 
ATOM     18  C   UNL d   1      -1.143  -3.661  -1.151  0.00  0.00     0.012 A 
ATOM     19  C   UNL d   1      -1.408  -5.028  -1.177  0.00  0.00     0.001 A 
ATOM     20  C   UNL d   1      -1.437  -5.750   0.014  0.00  0.00     0.000 A 
ATOM     21  C   UNL d   1      -1.214  -5.103   1.230  0.00  0.00     0.001 A 
ATOM     22  C   UNL d   1      -0.951  -3.732   1.258  0.00  0.00     0.012 A 
ENDBRANCH   5  17
BRANCH   8  23
ATOM     23  C   UNL d   1       3.086  -0.044  -0.049  0.00  0.00    -0.012 A 
ATOM     24  C   UNL d   1       3.817   0.958   0.595  0.00  0.00     0.014 A 
ATOM     25  C   UNL d   1       5.217   0.919   0.602  0.00  0.00     0.007 A 
ATOM     26  C   UNL d   1       5.905  -0.117  -0.043  0.00  0.00    -0.062 A 
ATOM     27  C   UNL d   1       5.176  -1.108  -0.701  0.00  0.00     0.007 A 
ATOM     28  C   UNL d   1       7.404  -0.159  -0.025  0.00  0.00     0.048 C 
ATOM     29  C   UNL d   1       3.780  -1.072  -0.707  0.00  0.00     0.014 A 
ENDBRANCH   8  23
TORSDOF 3
