REMARK  5 active torsions:
REMARK  status: ('A' for Active; 'I' for Inactive)
REMARK    1  A    between atoms: C_7  and  C_1 
REMARK    2  A    between atoms: C_13  and  C_4 
REMARK       I    between atoms: N_12  and  C_7 
REMARK    3  A    between atoms: C_8  and  C_16 
REMARK    4  A    between atoms: N_9  and  N_12 
REMARK    5  A    between atoms: O_21  and  C_11 
ROOT
ATOM      1  C   UNL d   1       0.281  -2.850  -0.170  0.00  0.00     0.275 C 
ATOM      2  N   UNL d   1       1.499  -3.323   0.306  0.00  0.00    -0.266 N 
ATOM      3  O   UNL d   1      -0.591  -3.579  -0.635  0.00  0.00    -0.266 OA
ATOM      4  H   UNL d   1       2.129  -2.695   0.788  0.00  0.00     0.190 HD
ENDROOT
BRANCH   1   5
ATOM      5  C   UNL d   1       0.098  -1.411  -0.036  0.00  0.00     0.094 A 
ATOM      6  C   UNL d   1      -1.122  -0.676   0.165  0.00  0.00     0.083 A 
ATOM      7  N   UNL d   1      -0.865   0.644   0.181  0.00  0.00    -0.259 N 
ATOM      8  O   UNL d   1       0.486   0.790   0.024  0.00  0.00    -0.241 OA
ATOM      9  HN  UNL d   1      -1.548   1.394   0.290  1.00  0.00     0.195 HD
ATOM     10  C   UNL d   1       1.068  -0.426  -0.100  0.00  0.00     0.090 A 
ATOM     11  C   UNL d   1       2.535  -0.387  -0.283  0.00  0.00     0.080 C 
BRANCH   6  12
ATOM     12  C   UNL d   1      -2.496  -1.135   0.400  0.00  0.00    -0.006 A 
ATOM     13  C   UNL d   1      -3.579  -0.358  -0.043  0.00  0.00     0.014 A 
ATOM     14  C   UNL d   1      -4.896  -0.731   0.240  0.00  0.00     0.001 A 
ATOM     15  C   UNL d   1      -5.148  -1.889   0.969  0.00  0.00     0.000 A 
ATOM     16  C   UNL d   1      -4.086  -2.674   1.413  0.00  0.00     0.001 A 
ATOM     17  C   UNL d   1      -2.768  -2.297   1.135  0.00  0.00     0.014 A 
ENDBRANCH   6  12
ENDBRANCH   1   5
BRANCH   2  18
ATOM     18  N   UNL d   1       1.741  -4.667   0.381  0.00  0.00    -0.308 N 
ATOM     19  C   UNL d   1       2.893  -4.987   0.882  0.00  0.00     0.121 C 
ATOM     20  HN  UNL d   1       1.066  -5.364   0.067  1.00  0.00     0.186 HD
BRANCH  19  21
ATOM     21  C   UNL d   1       3.272  -6.392   1.123  0.00  0.00     0.015 A 
ATOM     22  C   UNL d   1       2.430  -7.464   0.806  0.00  0.00     0.077 A 
ATOM     23  C   UNL d   1       2.813  -8.769   1.109  0.00  0.00     0.039 A 
ATOM     24  C   UNL d   1       4.039  -9.011   1.734  0.00  0.00     0.022 A 
ATOM     25  C   UNL d   1       4.879  -7.942   2.042  0.00  0.00     0.011 A 
ATOM     26  C   UNL d   1       4.507  -6.633   1.737  0.00  0.00     0.034 A 
ATOM     27 BR   UNL d   1       6.533  -8.265   2.899  0.00  0.00    -0.051 Br
BRANCH  22  28
ATOM     28  O   UNL d   1       1.210  -7.312   0.209  0.00  0.00    -0.360 OA
ATOM     29  H   UNL d   1       1.042  -6.353   0.069  0.00  0.00     0.217 HD
ENDBRANCH  22  28
ENDBRANCH  19  21
ENDBRANCH   2  18
TORSDOF 5
