REMARK  8 active torsions:
REMARK  status: ('A' for Active; 'I' for Inactive)
REMARK    1  A    between atoms: C_4  and  S_1 
REMARK    2  A    between atoms: C_5  and  S_1 
REMARK    3  A    between atoms: C_2  and  N_6 
REMARK    4  A    between atoms: N_3  and  C_2 
REMARK    5  A    between atoms: C_7  and  N_3 
REMARK    6  A    between atoms: C_11  and  C_4 
REMARK    7  A    between atoms: N_6  and  C_11 
REMARK    8  A    between atoms: C_20  and  N_6 
ROOT
ATOM      1  N   UNL d   1       0.178  -3.887  -0.648  0.00  0.00    -0.357 N 
ENDROOT
BRANCH   1   2
ATOM      2  C   UNL d   1      -0.362  -4.406   0.512  0.00  0.00     0.174 C 
ATOM      3  S   UNL d   1       0.168  -5.817   1.245  0.00  0.00    -0.041 SA
BRANCH   2   4
ATOM      4  N   UNL d   1      -1.316  -3.677   1.164  0.00  0.00    -0.332 N 
ATOM      5  H   UNL d   1      -1.426  -3.945   2.141  0.00  0.00     0.168 HD
BRANCH   4   6
ATOM      6  C   UNL d   1      -2.528  -3.159   0.615  0.00  0.00     0.056 A 
ATOM      7  C   UNL d   1      -3.541  -2.751   1.505  0.00  0.00     0.060 A 
ATOM      8 CL   UNL d   1      -3.293  -2.789   3.219  0.00  0.00    -0.082 Cl
ATOM      9  C   UNL d   1      -4.791  -2.335   1.034  0.00  0.00     0.026 A 
ATOM     10  C   UNL d   1      -5.047  -2.315  -0.334  0.00  0.00     0.002 A 
ATOM     11  C   UNL d   1      -4.053  -2.704  -1.227  0.00  0.00     0.002 A 
ATOM     12  C   UNL d   1      -2.804  -3.127  -0.755  0.00  0.00     0.031 A 
ENDBRANCH   4   6
ENDBRANCH   2   4
ENDBRANCH   1   2
BRANCH   1  13
ATOM     13  C   UNL d   1       0.647  -2.488  -0.701  0.00  0.00     0.140 C 
BRANCH  13  14
ATOM     14  C   UNL d   1       1.834  -2.229   0.223  0.00  0.00     0.165 C 
BRANCH  14  15
ATOM     15  S   UNL d   1       2.450  -0.582  -0.044  0.00  0.00     0.177 S 
ATOM     16  O   UNL d   1       1.401   0.361   0.295  0.00  0.00    -0.223 OA
ATOM     17  O   UNL d   1       3.082  -0.544  -1.350  0.00  0.00    -0.223 OA
BRANCH  15  18
ATOM     18  C   UNL d   1       3.741  -0.386   1.169  0.00  0.00     0.059 A 
ATOM     19  C   UNL d   1       5.068  -0.660   0.824  0.00  0.00     0.025 A 
ATOM     20  C   UNL d   1       6.084  -0.440   1.757  0.00  0.00     0.025 A 
ATOM     21  C   UNL d   1       5.769   0.065   3.022  0.00  0.00     0.034 A 
ATOM     22  C   UNL d   1       4.447   0.353   3.360  0.00  0.00     0.025 A 
ATOM     23 CL   UNL d   1       7.024   0.347   4.163  0.00  0.00    -0.084 Cl
ATOM     24  C   UNL d   1       3.427   0.134   2.432  0.00  0.00     0.025 A 
ENDBRANCH  15  18
ENDBRANCH  14  15
ENDBRANCH  13  14
ENDBRANCH   1  13
BRANCH   1  25
ATOM     25  C   UNL d   1       0.392  -4.732  -1.831  0.00  0.00     0.120 C 
ATOM     26  C   UNL d   1       1.817  -5.218  -2.019  0.00  0.00     0.026 C 
ENDBRANCH   1  25
TORSDOF 8
