REMARK  9 active torsions:
REMARK  status: ('A' for Active; 'I' for Inactive)
REMARK    1  A    between atoms: N_3  and  C_10 
REMARK    2  A    between atoms: N_20  and  C_4 
REMARK    3  A    between atoms: C_7  and  C_5 
REMARK    4  A    between atoms: S_17  and  C_6 
REMARK    5  A    between atoms: O_22  and  C_7 
REMARK    6  A    between atoms: C_13  and  C_15 
REMARK    7  A    between atoms: C_15  and  C_19 
REMARK    8  A    between atoms: C_19  and  S_17 
REMARK    9  A    between atoms: C_26  and  O_22 
ROOT
ATOM      1  N   UNL d   1       0.396  -1.063  -0.182  0.00  0.00    -0.327 N 
ATOM      2  HN  UNL d   1       0.961  -1.911  -0.238  1.00  0.00     0.169 HD
ATOM      3  C   UNL d   1       0.965   0.140  -0.004  0.00  0.00     0.097 A 
ATOM      4  C   UNL d   1       0.219   1.304   0.074  0.00  0.00     0.092 A 
ATOM      5  C   UNL d   1      -0.942  -1.110  -0.286  0.00  0.00     0.145 A 
ATOM      6  N   UNL d   1      -1.749  -0.039  -0.221  0.00  0.00    -0.346 N 
ATOM      7  HN  UNL d   1      -2.762  -0.123  -0.308  1.00  0.00     0.167 HD
ATOM      8  C   UNL d   1      -1.145   1.155  -0.036  0.00  0.00     0.111 A 
ENDROOT
BRANCH   5   9
ATOM      9  S   UNL d   1      -1.706  -2.686  -0.574  0.00  0.00    -0.086 SA
BRANCH   9  10
ATOM     10  C   UNL d   1      -0.227  -3.739  -0.591  0.00  0.00     0.166 C 
BRANCH  10  11
ATOM     11  C   UNL d   1      -0.611  -5.168  -0.895  0.00  0.00     0.169 C 
ATOM     12  O   UNL d   1      -0.753  -5.995   0.009  0.00  0.00    -0.291 OA
BRANCH  11  13
ATOM     13  C   UNL d   1      -0.822  -5.611  -2.313  0.00  0.00     0.013 A 
ATOM     14  C   UNL d   1      -0.657  -4.758  -3.410  0.00  0.00     0.051 A 
ATOM     15  C   UNL d   1      -0.914  -5.236  -4.706  0.00  0.00     0.103 A 
ATOM     16  C   UNL d   1      -1.319  -6.560  -4.920  0.00  0.00     0.036 A 
ATOM     17  C   UNL d   1      -1.464  -7.413  -3.828  0.00  0.00     0.003 A 
ATOM     18  C   UNL d   1      -1.218  -6.941  -2.536  0.00  0.00     0.015 A 
BRANCH  15  19
ATOM     19  N   UNL d   1      -0.769  -4.329  -5.854  0.00  0.00    -0.116 N 
ATOM     20  O   UNL d   1      -0.378  -3.176  -5.626  0.00  0.00    -0.532 OA
ATOM     21  O   UNL d   1      -1.044  -4.771  -6.978  0.00  0.00    -0.532 OA
ENDBRANCH  15  19
ENDBRANCH  11  13
ENDBRANCH  10  11
ENDBRANCH   9  10
ENDBRANCH   5   9
BRANCH   3  22
ATOM     22  N   UNL d   1       2.338   0.109   0.220  0.00  0.00    -0.288 NA
ATOM     23  H   UNL d   1       2.710  -0.814   0.028  0.00  0.00     0.125 HD
ATOM     24  H   UNL d   1       2.836   0.865  -0.251  0.00  0.00     0.125 HD
ENDBRANCH   3  22
BRANCH   4  25
ATOM     25  C   UNL d   1       0.868   2.607   0.255  0.00  0.00     0.298 C 
ATOM     26  O   UNL d   1       1.995   2.863  -0.140  0.00  0.00    -0.259 OA
BRANCH  25  27
ATOM     27  O   UNL d   1       0.075   3.402   1.013  0.00  0.00    -0.318 OA
BRANCH  27  28
ATOM     28  C   UNL d   1       0.747   4.511   1.630  0.00  0.00     0.174 C 
ATOM     29  C   UNL d   1       1.311   4.041   2.959  0.00  0.00     0.034 C 
ENDBRANCH  27  28
ENDBRANCH  25  27
ENDBRANCH   4  25
TORSDOF 9
