REMARK  5 active torsions:
REMARK  status: ('A' for Active; 'I' for Inactive)
REMARK    1  A    between atoms: C_5  and  C_1 
REMARK    2  A    between atoms: C_6  and  C_2 
REMARK       I    between atoms: N_9  and  C_5 
REMARK    3  A    between atoms: C_12  and  N_9 
REMARK    4  A    between atoms: C_17  and  C_12 
REMARK    5  A    between atoms: O_16  and  C_17 
ROOT
ATOM      1  C   UNL d   1      -0.158  -1.034  -0.043  0.00  0.00     0.092 A 
ATOM      2  C   UNL d   1      -1.433  -0.364   0.095  0.00  0.00     0.085 A 
ATOM      3  N   UNL d   1      -1.240   0.958   0.260  0.00  0.00    -0.259 N 
ATOM      4  HN  UNL d   1      -1.964   1.665   0.389  1.00  0.00     0.195 HD
ATOM      5  O   UNL d   1       0.109   1.174   0.224  0.00  0.00    -0.241 OA
ATOM      6  C   UNL d   1       0.759   0.003   0.040  0.00  0.00     0.090 A 
ATOM      7  C   UNL d   1       2.228   0.118  -0.069  0.00  0.00     0.080 C 
ENDROOT
BRANCH   1   8
ATOM      8  C   UNL d   1       0.148  -2.439  -0.304  0.00  0.00     0.257 C 
ATOM      9  N   UNL d   1       1.411  -2.842   0.099  0.00  0.00    -0.346 N 
ATOM     10  H   UNL d   1       1.872  -2.248   0.776  0.00  0.00     0.163 HD
ATOM     11  O   UNL d   1      -0.653  -3.183  -0.846  0.00  0.00    -0.267 OA
BRANCH   9  12
ATOM     12  C   UNL d   1       1.933  -4.224   0.150  0.00  0.00     0.047 C 
ATOM     13  C   UNL d   1       1.339  -4.935   1.375  0.00  0.00     0.040 C 
ATOM     14  C   UNL d   1       1.646  -5.050  -1.112  0.00  0.00     0.040 C 
BRANCH  12  15
ATOM     15  C   UNL d   1       3.486  -4.129   0.277  0.00  0.00     0.194 C 
BRANCH  15  16
ATOM     16  O   UNL d   1       3.867  -3.334   1.404  0.00  0.00    -0.398 OA
ATOM     17  H   UNL d   1       4.842  -3.378   1.454  0.00  0.00     0.209 HD
ENDBRANCH  15  16
ENDBRANCH  12  15
ENDBRANCH   9  12
ENDBRANCH   1   8
BRANCH   2  18
ATOM     18  C   UNL d   1      -2.820  -0.856   0.026  0.00  0.00     0.015 A 
ATOM     19  C   UNL d   1      -3.285  -2.027   0.640  0.00  0.00     0.046 A 
ATOM     20 CL   UNL d   1      -2.350  -2.924   1.791  0.00  0.00    -0.083 Cl
ATOM     21  C   UNL d   1      -4.605  -2.464   0.433  0.00  0.00     0.025 A 
ATOM     22  C   UNL d   1      -5.499  -1.702  -0.318  0.00  0.00     0.002 A 
ATOM     23  C   UNL d   1      -5.089  -0.483  -0.842  0.00  0.00     0.001 A 
ATOM     24  C   UNL d   1      -3.763  -0.071  -0.678  0.00  0.00     0.015 A 
ENDBRANCH   2  18
TORSDOF 5
