REMARK  4 active torsions:
REMARK  status: ('A' for Active; 'I' for Inactive)
REMARK    1  A    between atoms: C_11  and  N_1 
REMARK    2  A    between atoms: C_13  and  C_2 
REMARK    3  A    between atoms: N_9  and  C_12 
REMARK    4  A    between atoms: C_10  and  C_11 
ROOT
ATOM      1  N   UNL d   1      -0.075  -1.248  -0.022  0.00  0.00    -0.255 N 
ATOM      2  C   UNL d   1       1.119  -0.549  -0.114  0.00  0.00     0.149 A 
ATOM      3  N   UNL d   1      -0.531   0.828   0.155  0.00  0.00    -0.226 N 
ATOM      4  HN  UNL d   1      -1.049   1.703   0.225  1.00  0.00     0.210 HD
ATOM      5  N   UNL d   1      -1.072  -0.372   0.228  0.00  0.00    -0.224 N 
ATOM      6  HN  UNL d   1      -2.046  -0.594   0.433  1.00  0.00     0.210 HD
ATOM      7  N   UNL d   1       0.816   0.737  -0.029  0.00  0.00    -0.268 N 
ATOM      8  HN  UNL d   1       1.470   1.517  -0.089  1.00  0.00     0.190 HD
ENDROOT
BRANCH   1   9
ATOM      9  C   UNL d   1      -0.373  -2.677   0.088  0.00  0.00     0.194 C 
BRANCH   9  10
ATOM     10  C   UNL d   1      -0.585  -3.392  -1.240  0.00  0.00     0.005 C 
ATOM     11  C   UNL d   1       0.183  -4.526  -1.593  0.00  0.00     0.043 C 
ATOM     12 CL   UNL d   1       1.249  -5.315  -0.475  0.00  0.00    -0.084 Cl
ATOM     13  C   UNL d   1       0.114  -5.092  -2.874  0.00  0.00     0.024 C 
ATOM     14  C   UNL d   1      -0.786  -4.602  -3.810  0.00  0.00     0.003 C 
ATOM     15  C   UNL d   1      -1.652  -3.582  -3.442  0.00  0.00     0.024 C 
ATOM     16  C   UNL d   1      -1.568  -2.995  -2.171  0.00  0.00     0.043 C 
ATOM     17 CL   UNL d   1      -2.803  -1.847  -1.807  0.00  0.00    -0.084 Cl
ENDBRANCH   9  10
ENDBRANCH   1   9
BRANCH   2  18
ATOM     18  C   UNL d   1       2.494  -1.033  -0.271  0.00  0.00     0.011 A 
ATOM     19  C   UNL d   1       2.807  -2.209  -0.953  0.00  0.00     0.018 A 
ATOM     20  C   UNL d   1       4.124  -2.622  -1.157  0.00  0.00     0.037 A 
ATOM     21  C   UNL d   1       5.172  -1.806  -0.729  0.00  0.00     0.102 A 
ATOM     22  C   UNL d   1       4.901  -0.617  -0.050  0.00  0.00     0.037 A 
ATOM     23  C   UNL d   1       3.569  -0.243   0.184  0.00  0.00     0.018 A 
BRANCH  21  24
ATOM     24  N   UNL d   1       6.549  -2.184  -1.059  0.00  0.00    -0.116 N 
ATOM     25  O   UNL d   1       6.727  -3.229  -1.696  0.00  0.00    -0.532 OA
ATOM     26  O   UNL d   1       7.459  -1.429  -0.689  0.00  0.00    -0.532 OA
ENDBRANCH  21  24
ENDBRANCH   2  18
TORSDOF 4
