REMARK  0 active torsions:
REMARK  status: ('A' for Active; 'I' for Inactive)
ROOT
ATOM      1  C   UNL d   1       1.804  -0.715   0.076  0.00  0.00    -0.009 C 
ATOM      2  C   UNL d   1      -0.669  -0.988  -0.566  0.00  0.00    -0.009 A 
ATOM      3  C   UNL d   1       0.786  -1.027  -1.012  0.00  0.00     0.084 C 
ATOM      4  C   UNL d   1       3.059  -1.401   0.122  0.00  0.00    -0.017 A 
ATOM      5  C   UNL d   1      -1.336  -2.123  -0.018  0.00  0.00    -0.017 A 
ATOM      6  C   UNL d   1       1.534   0.259   1.060  0.00  0.00     0.079 C 
ATOM      7  C   UNL d   1      -1.362   0.232  -0.660  0.00  0.00     0.079 A 
ATOM      8  O   UNL d   1       0.459   1.111   1.044  0.00  0.00    -0.325 OA
ATOM      9  O   UNL d   1      -0.755   1.385  -1.074  0.00  0.00    -0.325 OA
ATOM     10  C   UNL d   1       0.308   1.813  -0.199  0.00  0.00     0.351 C 
ATOM     11  C   UNL d   1       3.897  -1.228   1.256  0.00  0.00    -0.025 A 
ATOM     12  C   UNL d   1      -2.704  -1.999   0.352  0.00  0.00    -0.025 A 
ATOM     13  C   UNL d   1       2.354   0.395   2.176  0.00  0.00     0.038 C 
ATOM     14  C   UNL d   1      -2.708   0.329  -0.330  0.00  0.00     0.038 A 
ATOM     15  C   UNL d   1       3.515  -0.361   2.285  0.00  0.00     0.015 C 
ATOM     16  C   UNL d   1      -3.373  -0.781   0.174  0.00  0.00     0.015 A 
ATOM     17  C   UNL d   1       3.546  -2.242  -0.909  0.00  0.00     0.013 A 
ATOM     18  C   UNL d   1      -0.720  -3.377   0.209  0.00  0.00     0.013 A 
ATOM     19  C   UNL d   1       5.119  -1.913   1.351  0.00  0.00     0.012 A 
ATOM     20  C   UNL d   1      -3.392  -3.092   0.903  0.00  0.00     0.012 A 
ATOM     21  C   UNL d   1       4.779  -2.895  -0.814  0.00  0.00     0.001 A 
ATOM     22  C   UNL d   1      -1.419  -4.456   0.758  0.00  0.00     0.001 A 
ATOM     23  C   UNL d   1       5.559  -2.741   0.322  0.00  0.00     0.001 A 
ATOM     24  C   UNL d   1      -2.756  -4.314   1.105  0.00  0.00     0.001 A 
ENDROOT
TORSDOF 0
