REMARK  5 active torsions:
REMARK  status: ('A' for Active; 'I' for Inactive)
REMARK    1  A    between atoms: C_6  and  C_1 
REMARK    2  A    between atoms: N_2  and  C_8 
REMARK    3  A    between atoms: C_9  and  O_16 
REMARK       I    between atoms: N_14  and  C_9 
REMARK    4  A    between atoms: O_16  and  N_10 
REMARK    5  A    between atoms: C_20  and  N_14 
ROOT
ATOM      1  C   UNL d   1      -3.849  -0.093   0.141  0.00  0.00     0.062 C 
ATOM      2  N   UNL d   1      -4.502  -1.220   0.217  0.00  0.00    -0.258 N 
ATOM      3  HN  UNL d   1      -5.510  -1.301   0.349  1.00  0.00     0.194 HD
ATOM      4  C   UNL d   1      -2.344  -0.012  -0.009  0.00  0.00     0.073 C 
ENDROOT
BRANCH   1   5
ATOM      5  C   UNL d   1      -4.619   1.131   0.168  0.00  0.00     0.101 A 
ATOM      6  O   UNL d   1      -3.982   2.342   0.164  0.00  0.00    -0.308 OA
ATOM      7  C   UNL d   1      -4.940   3.309   0.132  0.00  0.00     0.086 A 
ATOM      8  C   UNL d   1      -4.708   4.683   0.098  0.00  0.00     0.040 A 
ATOM      9  C   UNL d   1      -6.204   2.732   0.122  0.00  0.00     0.003 A 
ATOM     10  C   UNL d   1      -5.838   5.510   0.030  0.00  0.00     0.039 A 
ATOM     11  C   UNL d   1      -7.130   4.956   0.005  0.00  0.00     0.103 A 
ATOM     12  C   UNL d   1      -7.334   3.565   0.059  0.00  0.00     0.050 A 
ATOM     13  C   UNL d   1      -5.987   1.333   0.169  0.00  0.00     0.053 A 
BRANCH  11  14
ATOM     14  N   UNL d   1      -8.298   5.844  -0.095  0.00  0.00    -0.116 N 
ATOM     15  O   UNL d   1      -9.417   5.315  -0.158  0.00  0.00    -0.532 OA
ATOM     16  O   UNL d   1      -8.094   7.065  -0.112  0.00  0.00    -0.532 OA
ENDBRANCH  11  14
ENDBRANCH   1   5
BRANCH   2  17
ATOM     17  O   UNL d   1      -3.614  -2.315   0.090  0.00  0.00    -0.181 OA
BRANCH  17  18
ATOM     18  C   UNL d   1      -4.254  -3.544   0.109  0.00  0.00     0.387 C 
ATOM     19  N   UNL d   1      -5.588  -3.467   0.435  0.00  0.00    -0.301 N 
ATOM     20  H   UNL d   1      -5.882  -2.514   0.612  0.00  0.00     0.171 HD
ATOM     21  O   UNL d   1      -3.615  -4.561  -0.132  0.00  0.00    -0.236 OA
BRANCH  19  22
ATOM     22  C   UNL d   1      -6.518  -4.513   0.564  0.00  0.00     0.036 A 
ATOM     23  C   UNL d   1      -6.214  -5.853   0.307  0.00  0.00     0.029 A 
ATOM     24  C   UNL d   1      -7.186  -6.847   0.457  0.00  0.00     0.002 A 
ATOM     25  C   UNL d   1      -8.474  -6.511   0.866  0.00  0.00     0.000 A 
ATOM     26  C   UNL d   1      -8.789  -5.180   1.125  0.00  0.00     0.002 A 
ATOM     27  C   UNL d   1      -7.817  -4.185   0.973  0.00  0.00     0.029 A 
ENDBRANCH  19  22
ENDBRANCH  17  18
ENDBRANCH   2  17
TORSDOF 5
