REMARK  9 active torsions:
REMARK  status: ('A' for Active; 'I' for Inactive)
REMARK    1  A    between atoms: C_5  and  C_1 
REMARK    2  A    between atoms: S_4  and  C_11 
REMARK    3  A    between atoms: C_15  and  S_4 
REMARK    4  A    between atoms: C_11  and  C_6 
REMARK    5  A    between atoms: N_7  and  C_14 
REMARK    6  A    between atoms: O_18  and  C_13 
REMARK    7  A    between atoms: C_16  and  C_15 
REMARK    8  A    between atoms: C_28  and  O_18 
REMARK    9  A    between atoms: O_34  and  C_29 
ROOT
ATOM      1  C   UNL d   1       1.064  -2.344   0.111  0.00  0.00     0.053 C 
ATOM      2  C   UNL d   1       1.860  -2.768   1.198  0.00  0.00     0.054 C 
ATOM      3  C   UNL d   1       0.770  -3.275  -0.905  0.00  0.00     0.090 C 
ATOM      4  C   UNL d   1       2.311  -4.091   1.284  0.00  0.00     0.104 C 
ATOM      5  C   UNL d   1       1.141  -4.624  -0.746  0.00  0.00     0.041 C 
ATOM      6  C   UNL d   1       1.932  -5.031   0.326  0.00  0.00     0.039 C 
ENDROOT
BRANCH   1   7
ATOM      7  C   UNL d   1       0.632  -0.953   0.119  0.00  0.00     0.184 A 
ATOM      8  N   UNL d   1       1.200   0.077   0.712  0.00  0.00    -0.322 N 
ATOM      9  C   UNL d   1       0.306   1.090   0.487  0.00  0.00     0.118 A 
ATOM     10  HN  UNL d   1       2.087   0.111   1.215  1.00  0.00     0.169 HD
ATOM     11  N   UNL d   1      -0.784   0.722  -0.200  0.00  0.00    -0.246 N 
ATOM     12  O   UNL d   1      -0.579  -0.646  -0.431  0.00  0.00    -0.217 OA
ATOM     13  HN  UNL d   1      -1.575   1.299  -0.487  1.00  0.00     0.196 HD
BRANCH   9  14
ATOM     14  C   UNL d   1       0.615   2.492   0.824  0.00  0.00     0.218 C 
BRANCH  14  15
ATOM     15  S   UNL d   1       0.089   2.974   2.455  0.00  0.00     0.157 S 
ATOM     16  O   UNL d   1       0.534   4.345   2.663  0.00  0.00    -0.227 OA
ATOM     17  O   UNL d   1      -1.327   2.678   2.592  0.00  0.00    -0.227 OA
BRANCH  15  18
ATOM     18  C   UNL d   1       0.962   1.927   3.611  0.00  0.00     0.205 C 
BRANCH  18  19
ATOM     19  C   UNL d   1       2.426   2.076   3.457  0.00  0.00     0.066 A 
ATOM     20  O   UNL d   1       3.104   0.951   3.095  0.00  0.00    -0.326 OA
ATOM     21  C   UNL d   1       4.422   1.273   3.051  0.00  0.00     0.142 A 
ATOM     22  C   UNL d   1       4.603   2.597   3.377  0.00  0.00     0.027 A 
ATOM     23  C   UNL d   1       3.316   3.117   3.648  0.00  0.00     0.035 A 
ENDBRANCH  18  19
ENDBRANCH  15  18
ENDBRANCH  14  15
ENDBRANCH   9  14
ENDBRANCH   1   7
BRANCH   3  24
ATOM     24  O   UNL d   1       0.145  -2.844  -2.069  0.00  0.00    -0.310 OA
BRANCH  24  25
ATOM     25  C   UNL d   1       0.531  -3.450  -3.252  0.00  0.00     0.076 A 
ATOM     26  C   UNL d   1      -0.470  -3.821  -4.152  0.00  0.00     0.040 A 
ATOM     27  C   UNL d   1      -0.146  -4.553  -5.303  0.00  0.00     0.039 A 
ATOM     28  C   UNL d   1       1.180  -4.911  -5.556  0.00  0.00     0.068 A 
ATOM     29  C   UNL d   1       2.187  -4.460  -4.701  0.00  0.00     0.039 A 
ATOM     30  C   UNL d   1       1.871  -3.713  -3.566  0.00  0.00     0.040 A 
BRANCH  28  31
ATOM     31  O   UNL d   1       1.614  -5.657  -6.616  0.00  0.00    -0.356 OA
ATOM     32  C   UNL d   1       0.686  -6.611  -7.124  0.00  0.00     0.210 C 
ENDBRANCH  28  31
ENDBRANCH  24  25
ENDBRANCH   3  24
BRANCH   4  33
ATOM     33  N   UNL d   1       3.200  -4.488   2.382  0.00  0.00    -0.116 N 
ATOM     34  O   UNL d   1       3.465  -3.641   3.245  0.00  0.00    -0.532 OA
ATOM     35  O   UNL d   1       3.644  -5.646   2.372  0.00  0.00    -0.532 OA
ENDBRANCH   4  33
TORSDOF 9
