REMARK  3 active torsions:
REMARK  status: ('A' for Active; 'I' for Inactive)
REMARK    1  A    between atoms: C_7  and  N_9 
REMARK       I    between atoms: N_9  and  C_11 
REMARK    2  A    between atoms: C_11  and  C_12 
REMARK    3  A    between atoms: C_17  and  N_25 
ROOT
ATOM      1  C   UNL d   1       1.212  -2.038   0.040  0.00  0.00     0.015 A 
ATOM      2  C   UNL d   1      -0.178  -2.044   0.015  0.00  0.00     0.039 A 
ATOM      3  C   UNL d   1      -0.190   0.394   0.008  0.00  0.00     0.011 A 
ATOM      4  C   UNL d   1      -0.856  -0.833  -0.031  0.00  0.00     0.090 A 
ATOM      5  O   UNL d   1      -2.251  -0.911  -0.191  0.00  0.00    -0.273 OA
ATOM      6  C   UNL d   1      -2.984   0.227  -0.472  0.00  0.00     0.315 C 
ATOM      7  C   UNL d   1      -2.350   1.541  -0.151  0.00  0.00     0.112 C 
ATOM      8  C   UNL d   1      -1.029   1.594   0.064  0.00  0.00     0.051 C 
ATOM      9  O   UNL d   1      -4.136   0.183  -0.898  0.00  0.00    -0.257 OA
ATOM     10  C   UNL d   1       1.926  -0.831   0.019  0.00  0.00    -0.025 A 
ATOM     11  C   UNL d   1       1.234   0.411   0.017  0.00  0.00    -0.013 A 
ATOM     12  C   UNL d   1       2.021   1.590  -0.003  0.00  0.00     0.013 A 
ATOM     13  C   UNL d   1       3.417   1.545  -0.031  0.00  0.00     0.001 A 
ATOM     14  C   UNL d   1       4.071   0.321  -0.038  0.00  0.00     0.001 A 
ATOM     15  C   UNL d   1       3.330  -0.858  -0.010  0.00  0.00     0.012 A 
ENDROOT
BRANCH   7  16
ATOM     16  N   UNL d   1      -3.231   2.616  -0.103  0.00  0.00    -0.318 N 
ATOM     17  C   UNL d   1      -2.955   3.916   0.265  0.00  0.00     0.256 C 
ATOM     18  O   UNL d   1      -1.851   4.333   0.608  0.00  0.00    -0.267 OA
ATOM     19  H   UNL d   1      -4.194   2.354  -0.298  0.00  0.00     0.169 HD
BRANCH  17  20
ATOM     20  C   UNL d   1      -4.090   4.882   0.279  0.00  0.00     0.034 A 
ATOM     21  C   UNL d   1      -5.223   4.742  -0.534  0.00  0.00     0.017 A 
ATOM     22  C   UNL d   1      -6.219   5.727  -0.527  0.00  0.00     0.003 A 
ATOM     23  C   UNL d   1      -6.096   6.851   0.293  0.00  0.00     0.036 A 
ATOM     24  C   UNL d   1      -4.974   6.981   1.121  0.00  0.00     0.103 A 
ATOM     25  C   UNL d   1      -3.970   6.007   1.112  0.00  0.00     0.053 A 
BRANCH  24  26
ATOM     26  N   UNL d   1      -4.852   8.145   2.008  0.00  0.00    -0.116 N 
ATOM     27  O   UNL d   1      -5.770   8.977   1.992  0.00  0.00    -0.532 OA
ATOM     28  O   UNL d   1      -3.847   8.220   2.727  0.00  0.00    -0.532 OA
ENDBRANCH  24  26
ENDBRANCH  17  20
ENDBRANCH   7  16
TORSDOF 3
