REMARK  3 active torsions:
REMARK  status: ('A' for Active; 'I' for Inactive)
REMARK    1  A    between atoms: C_7  and  N_1 
REMARK    2  A    between atoms: N_6  and  C_4 
REMARK    3  A    between atoms: O_18  and  C_13 
ROOT
ATOM      1  N   UNL d   1       0.044   0.869  -0.086  0.00  0.00    -0.251 N 
ATOM      2  C   UNL d   1      -1.091   0.114   0.125  0.00  0.00     0.265 C 
ATOM      3  C   UNL d   1       1.176   0.087  -0.151  0.00  0.00     0.233 C 
ATOM      4  C   UNL d   1      -0.723  -1.356   0.014  0.00  0.00     0.323 C 
ATOM      5  C   UNL d   1       0.796  -1.353   0.009  0.00  0.00     0.149 C 
ATOM      6  O   UNL d   1      -2.234   0.498   0.347  0.00  0.00    -0.270 OA
ATOM      7  O   UNL d   1       2.346   0.430  -0.230  0.00  0.00    -0.273 OA
ENDROOT
BRANCH   1   8
ATOM      8  C   UNL d   1       0.066   2.291  -0.123  0.00  0.00     0.045 A 
ATOM      9  C   UNL d   1      -0.944   3.053   0.483  0.00  0.00     0.033 A 
ATOM     10  C   UNL d   1      -0.899   4.452   0.485  0.00  0.00     0.039 A 
ATOM     11  C   UNL d   1       0.141   5.116  -0.155  0.00  0.00     0.068 A 
ATOM     12  C   UNL d   1       1.144   4.375  -0.772  0.00  0.00     0.039 A 
ATOM     13  C   UNL d   1       1.107   2.979  -0.759  0.00  0.00     0.033 A 
BRANCH  11  14
ATOM     14  O   UNL d   1       0.303   6.471  -0.202  0.00  0.00    -0.356 OA
ATOM     15  C   UNL d   1      -0.898   7.232  -0.181  0.00  0.00     0.210 C 
ENDBRANCH  11  14
ENDBRANCH   1   8
BRANCH   4  16
ATOM     16  N   UNL d   1      -1.346  -2.060  -1.140  0.00  0.00     0.104 N 
ATOM     17  C   UNL d   1      -0.998  -1.498  -2.463  0.00  0.00     0.283 C 
ATOM     18  C   UNL d   1      -1.463  -2.371  -3.639  0.00  0.00     0.104 C 
ATOM     19  S   UNL d   1      -3.270  -2.527  -3.702  0.00  0.00    -0.166 SA
ATOM     20  C   UNL d   1      -3.506  -3.081  -1.987  0.00  0.00     0.104 C 
ATOM     21  C   UNL d   1      -2.819  -2.150  -0.980  0.00  0.00     0.283 C 
ENDBRANCH   4  16
TORSDOF 3
