REMARK  3 active torsions:
REMARK  status: ('A' for Active; 'I' for Inactive)
REMARK    1  A    between atoms: C_9  and  C_7 
REMARK    2  A    between atoms: O_17  and  C_10 
REMARK    3  A    between atoms: O_18  and  C_15 
ROOT
ATOM      1  C   UNL d   1       1.131   1.069   1.286  0.00  0.00     0.169 A 
ATOM      2  N   UNL d   1       1.540  -0.054   0.795  0.00  0.00    -0.331 N 
ATOM      3  HN  UNL d   1       2.474  -0.306   0.472  1.00  0.00     0.168 HD
ATOM      4  C   UNL d   1       0.405  -0.821   0.817  0.00  0.00     0.111 A 
ATOM      5  O   UNL d   1      -0.157   1.147   1.707  0.00  0.00    -0.255 OA
ATOM      6  C   UNL d   1      -0.711  -0.073   1.465  0.00  0.00     0.316 A 
ATOM      7  C   UNL d   1       0.335  -2.018   0.227  0.00  0.00     0.050 C 
ATOM      8  C   UNL d   1       1.876   2.291   1.423  0.00  0.00     0.056 A 
ATOM      9  S   UNL d   1       3.503   2.364   0.892  0.00  0.00    -0.098 SA
ATOM     10  O   UNL d   1      -1.833  -0.428   1.757  0.00  0.00    -0.257 OA
ATOM     11  C   UNL d   1       1.457   3.511   1.923  0.00  0.00     0.024 A 
ATOM     12  C   UNL d   1       3.642   4.013   1.317  0.00  0.00     0.050 A 
ATOM     13  C   UNL d   1       2.477   4.505   1.860  0.00  0.00     0.009 A 
ENDROOT
BRANCH   7  14
ATOM     14  C   UNL d   1      -0.891  -2.793   0.014  0.00  0.00     0.002 A 
ATOM     15  C   UNL d   1      -1.744  -2.612  -1.104  0.00  0.00     0.111 A 
ATOM     16  C   UNL d   1      -2.918  -3.386  -1.197  0.00  0.00     0.102 A 
ATOM     17  C   UNL d   1      -3.217  -4.314  -0.187  0.00  0.00     0.040 A 
ATOM     18  C   UNL d   1      -2.381  -4.483   0.911  0.00  0.00     0.004 A 
ATOM     19  C   UNL d   1      -1.218  -3.728   1.008  0.00  0.00     0.014 A 
BRANCH  15  20
ATOM     20  O   UNL d   1      -1.553  -1.624  -2.039  0.00  0.00    -0.352 OA
ATOM     21  C   UNL d   1      -0.254  -1.488  -2.604  0.00  0.00     0.210 C 
ENDBRANCH  15  20
BRANCH  16  22
ATOM     22  O   UNL d   1      -3.883  -3.378  -2.172  0.00  0.00    -0.353 OA
ATOM     23  C   UNL d   1      -3.706  -2.564  -3.320  0.00  0.00     0.210 C 
ENDBRANCH  16  22
ENDBRANCH   7  14
TORSDOF 3
