REMARK  5 active torsions:
REMARK  status: ('A' for Active; 'I' for Inactive)
REMARK    1  A    between atoms: C_2  and  C_1 
REMARK    2  A    between atoms: C_4  and  C_2 
REMARK    3  A    between atoms: C_7  and  C_3 
REMARK    4  A    between atoms: C_5  and  C_4 
REMARK    5  A    between atoms: O_22  and  C_7 
ROOT
ATOM      1  C   UNL d   1       0.656   0.723   1.175  0.00  0.00     0.031 C 
ATOM      2  C   UNL d   1      -1.582   0.275   0.014  0.00  0.00     0.047 C 
ATOM      3  C   UNL d   1      -0.873   0.981   1.192  0.00  0.00     0.036 C 
ATOM      4  C   UNL d   1       0.902  -0.806   1.248  0.00  0.00     0.020 C 
ATOM      5  C   UNL d   1       1.203   1.222  -0.196  0.00  0.00     0.020 C 
ATOM      6  C   UNL d   1      -0.992   0.773  -1.321  0.00  0.00     0.025 C 
ATOM      7  C   UNL d   1      -1.299  -1.246   0.134  0.00  0.00     0.025 C 
ATOM      8  C   UNL d   1       0.210  -1.527   0.079  0.00  0.00    -0.012 C 
ATOM      9  C   UNL d   1       0.519   0.500  -1.369  0.00  0.00    -0.012 C 
ATOM     10  C   UNL d   1       0.771  -1.009  -1.252  0.00  0.00     0.009 C 
ENDROOT
BRANCH   1  11
ATOM     11  C   UNL d   1       1.391   1.477   2.318  0.00  0.00     0.290 C 
ATOM     12  F   UNL d   1       2.730   1.258   2.156  0.00  0.00    -0.202 F 
ATOM     13  F   UNL d   1       1.197   2.814   2.132  0.00  0.00    -0.202 F 
BRANCH  11  14
ATOM     14  C   UNL d   1       1.018   1.104   3.740  0.00  0.00     0.349 C 
ATOM     15  F   UNL d   1      -0.323   1.264   3.954  0.00  0.00    -0.234 F 
BRANCH  14  16
ATOM     16  C   UNL d   1       1.802   1.929   4.743  0.00  0.00     0.423 C 
ATOM     17  F   UNL d   1       2.770   2.697   4.207  0.00  0.00    -0.168 F 
ATOM     18  F   UNL d   1       0.990   2.751   5.452  0.00  0.00    -0.168 F 
ATOM     19  F   UNL d   1       2.400   1.110   5.648  0.00  0.00    -0.168 F 
ENDBRANCH  14  16
ENDBRANCH  11  14
ENDBRANCH   1  11
BRANCH   2  20
ATOM     20  C   UNL d   1      -3.089   0.517   0.065  0.00  0.00     0.148 C 
ATOM     21  O   UNL d   1      -3.930  -0.370   0.168  0.00  0.00    -0.649 OA
BRANCH  20  22
ATOM     22  O   UNL d   1      -3.457   1.818  -0.008  0.00  0.00    -0.776 OA
ATOM     23  H   UNL d   1      -2.727   2.456  -0.087  0.00  0.00     0.167 HD
ENDBRANCH  20  22
ENDBRANCH   2  20
TORSDOF 5
