REMARK  4 active torsions:
REMARK  status: ('A' for Active; 'I' for Inactive)
REMARK       I    between atoms: N_8  and  C_1 
REMARK       I    between atoms: N_9  and  C_1 
REMARK    1  A    between atoms: N_2  and  N_8 
REMARK    2  A    between atoms: N_4  and  N_9 
REMARK    3  A    between atoms: C_12  and  C_10 
REMARK    4  A    between atoms: C_13  and  C_11 
ROOT
ATOM      1  C   UNL d   1       0.835   0.052  -0.093  0.00  0.00     0.705 C 
ATOM      2  N   UNL d   1       0.106  -0.204  -1.133  0.00  0.00    -0.232 N 
ATOM      3  HN  UNL d   1       0.456  -0.261  -2.089  1.00  0.00     0.174 HD
ATOM      4  N   UNL d   1       0.304   0.151   1.179  0.00  0.00    -0.132 N 
ATOM      5  N   UNL d   1       2.189   0.302  -0.122  0.00  0.00    -0.132 N 
ATOM      6  H   UNL d   1      -0.864  -0.341  -0.859  0.00  0.00     0.174 HD
ATOM      7  H   UNL d   1      -0.701   0.026   1.224  0.00  0.00     0.205 HD
ATOM      8  H   UNL d   1       2.622   0.190   0.791  0.00  0.00     0.205 HD
ENDROOT
BRANCH   4   9
ATOM      9  N   UNL d   1       0.913   0.888   2.161  0.00  0.00    -0.297 N 
ATOM     10  C   UNL d   1       0.176   1.194   3.179  0.00  0.00     0.119 C 
ATOM     11  HN  UNL d   1       1.889   1.177   2.094  1.00  0.00     0.186 HD
BRANCH  10  12
ATOM     12  C   UNL d   1       0.682   2.081   4.247  0.00  0.00    -0.019 A 
ATOM     13  C   UNL d   1       1.902   2.750   4.094  0.00  0.00     0.013 A 
ATOM     14  C   UNL d   1       2.361   3.595   5.104  0.00  0.00     0.001 A 
ATOM     15  C   UNL d   1       1.605   3.772   6.262  0.00  0.00     0.000 A 
ATOM     16  C   UNL d   1       0.383   3.112   6.409  0.00  0.00     0.001 A 
ATOM     17  C   UNL d   1      -0.085   2.268   5.399  0.00  0.00     0.013 A 
ENDBRANCH  10  12
ENDBRANCH   4   9
BRANCH   5  18
ATOM     18  N   UNL d   1       3.020   0.546  -1.177  0.00  0.00    -0.297 N 
ATOM     19  C   UNL d   1       2.529   1.351  -2.066  0.00  0.00     0.119 C 
ATOM     20  HN  UNL d   1       3.948   0.131  -1.258  1.00  0.00     0.186 HD
BRANCH  19  21
ATOM     21  C   UNL d   1       3.287   1.778  -3.255  0.00  0.00    -0.019 A 
ATOM     22  C   UNL d   1       4.577   1.304  -3.503  0.00  0.00     0.013 A 
ATOM     23  C   UNL d   1       5.282   1.764  -4.615  0.00  0.00     0.001 A 
ATOM     24  C   UNL d   1       4.698   2.694  -5.477  0.00  0.00     0.000 A 
ATOM     25  C   UNL d   1       3.408   3.166  -5.230  0.00  0.00     0.001 A 
ATOM     26  C   UNL d   1       2.699   2.708  -4.119  0.00  0.00     0.013 A 
ENDBRANCH  19  21
ENDBRANCH   5  18
TORSDOF 4
