REMARK  2 active torsions:
REMARK  status: ('A' for Active; 'I' for Inactive)
REMARK    1  A    between atoms: N_7  and  C_4 
REMARK    2  A    between atoms: C_9  and  N_7 
ROOT
ATOM      1  C   UNL d   1      -2.378  -0.715   0.255  0.00  0.00     0.103 A 
ATOM      2  C   UNL d   1      -1.253  -1.688   0.216  0.00  0.00     0.200 A 
ATOM      3  C   UNL d   1      -1.810   0.653   0.356  0.00  0.00     0.200 A 
ATOM      4  C   UNL d   1      -3.672  -1.012   0.072  0.00  0.00     0.132 C 
ATOM      5  C   UNL d   1      -0.030  -0.874   0.167  0.00  0.00     0.029 A 
ATOM      6  C   UNL d   1      -0.351   0.477   0.243  0.00  0.00     0.029 A 
ATOM      7  C   UNL d   1      -4.117  -2.373  -0.035  0.00  0.00     0.118 C 
ATOM      8  N   UNL d   1      -4.527  -3.457  -0.121  0.00  0.00    -0.190 NA
ATOM      9  O   UNL d   1      -2.395   1.700   0.522  0.00  0.00    -0.286 OA
ATOM     10  O   UNL d   1      -1.296  -2.891   0.172  0.00  0.00    -0.286 OA
ATOM     11  C   UNL d   1       1.270  -1.315   0.023  0.00  0.00     0.016 A 
ATOM     12  C   UNL d   1       0.630   1.450   0.186  0.00  0.00     0.016 A 
ATOM     13  C   UNL d   1       1.956   1.025   0.046  0.00  0.00     0.001 A 
ATOM     14  C   UNL d   1       2.273  -0.345  -0.036  0.00  0.00     0.001 A 
ENDROOT
BRANCH   4  15
ATOM     15  N   UNL d   1      -4.732  -0.123  -0.069  0.00  0.00    -0.345 N 
ATOM     16  H   UNL d   1      -4.829   0.603   0.640  0.00  0.00     0.167 HD
BRANCH  15  17
ATOM     17  C   UNL d   1      -5.384   0.179  -1.295  0.00  0.00     0.055 A 
ATOM     18  C   UNL d   1      -6.588   0.910  -1.303  0.00  0.00     0.061 A 
ATOM     19  C   UNL d   1      -7.347   1.047  -2.473  0.00  0.00     0.033 A 
ATOM     20 CL   UNL d   1      -7.188   1.633   0.150  0.00  0.00    -0.082 Cl
ATOM     21  C   UNL d   1      -6.921   0.457  -3.668  0.00  0.00    -0.060 A 
ATOM     22  C   UNL d   1      -5.700  -0.219  -3.688  0.00  0.00     0.009 A 
ATOM     23  C   UNL d   1      -7.794   0.493  -4.888  0.00  0.00     0.048 C 
ATOM     24  C   UNL d   1      -4.948  -0.359  -2.518  0.00  0.00     0.032 A 
ENDBRANCH  15  17
ENDBRANCH   4  15
TORSDOF 2
