REMARK  4 active torsions:
REMARK  status: ('A' for Active; 'I' for Inactive)
REMARK    1  A    between atoms: N_6  and  C_2 
REMARK    2  A    between atoms: C_11  and  C_3 
REMARK       I    between atoms: C_9  and  N_6 
REMARK    3  A    between atoms: C_10  and  C_9 
REMARK    4  A    between atoms: C_12  and  C_13 
ROOT
ATOM      1  S   UNL d   1       0.909  -0.075   0.595  0.00  0.00    -0.033 SA
ATOM      2  C   UNL d   1      -0.066   1.178  -0.011  0.00  0.00     0.168 A 
ATOM      3  C   UNL d   1      -0.308  -1.185   0.105  0.00  0.00     0.102 A 
ATOM      4  N   UNL d   1      -1.373  -0.594  -0.407  0.00  0.00    -0.291 N 
ATOM      5  HN  UNL d   1      -2.196  -1.096  -0.741  1.00  0.00     0.187 HD
ATOM      6  N   UNL d   1      -1.245   0.786  -0.436  0.00  0.00    -0.279 N 
ATOM      7  HN  UNL d   1      -1.979   1.421  -0.750  1.00  0.00     0.189 HD
ENDROOT
BRANCH   3   8
ATOM      8  C   UNL d   1      -0.070  -2.633   0.172  0.00  0.00    -0.001 A 
ATOM      9  C   UNL d   1       0.692  -3.221   1.189  0.00  0.00     0.015 A 
ATOM     10  C   UNL d   1       0.980  -4.591   1.172  0.00  0.00     0.009 A 
ATOM     11  C   UNL d   1       0.517  -5.428   0.141  0.00  0.00    -0.051 A 
ATOM     12  C   UNL d   1      -0.277  -4.836  -0.853  0.00  0.00     0.009 A 
ATOM     13  C   UNL d   1      -0.571  -3.464  -0.835  0.00  0.00     0.015 A 
BRANCH  11  14
ATOM     14  C   UNL d   1       0.893  -6.921   0.132  0.00  0.00    -0.024 C 
ATOM     15  C   UNL d   1       0.309  -7.697  -1.070  0.00  0.00     0.019 C 
ATOM     16  C   UNL d   1       2.430  -7.074   0.070  0.00  0.00     0.019 C 
ATOM     17  C   UNL d   1       0.376  -7.604   1.416  0.00  0.00     0.019 C 
ENDBRANCH  11  14
ENDBRANCH   3   8
BRANCH   2  18
ATOM     18  N   UNL d   1       0.340   2.491  -0.050  0.00  0.00    -0.304 N 
ATOM     19  C   UNL d   1       1.624   2.959   0.158  0.00  0.00     0.256 C 
ATOM     20  O   UNL d   1       2.591   2.249   0.451  0.00  0.00    -0.270 OA
ATOM     21  H   UNL d   1      -0.375   3.133  -0.374  0.00  0.00     0.171 HD
BRANCH  19  22
ATOM     22  C   UNL d   1       1.832   4.459  -0.092  0.00  0.00     0.270 C 
ATOM     23 CL   UNL d   1       0.302   5.338  -0.327  0.00  0.00    -0.098 Cl
ATOM     24 CL   UNL d   1       2.725   5.169   1.270  0.00  0.00    -0.098 Cl
ENDBRANCH  19  22
ENDBRANCH   2  18
TORSDOF 4
