REMARK  3 active torsions:
REMARK  status: ('A' for Active; 'I' for Inactive)
REMARK    1  A    between atoms: C_2  and  S_1 
REMARK    2  A    between atoms: C_11  and  S_1 
REMARK    3  A    between atoms: N_9  and  C_3 
ROOT
ATOM      1  C   UNL d   1       0.481   0.222  -1.704  0.00  0.00     0.102 A 
ATOM      2  C   UNL d   1      -0.327   0.958  -4.218  0.00  0.00     0.680 A 
ATOM      3  N   UNL d   1      -0.440  -0.324  -3.830  0.00  0.00    -0.194 N 
ATOM      4  HN  UNL d   1      -0.832  -1.016  -4.468  1.00  0.00     0.184 HD
ATOM      5  N   UNL d   1       0.157   1.899  -3.394  0.00  0.00    -0.200 N 
ATOM      6  HN  UNL d   1       0.237   2.871  -3.694  1.00  0.00     0.183 HD
ATOM      7  C   UNL d   1      -0.033  -0.698  -2.587  0.00  0.00     0.046 A 
ATOM      8  C   UNL d   1       0.533   1.519  -2.155  0.00  0.00     0.132 A 
ATOM      9  C   UNL d   1      -0.170  -2.163  -2.306  0.00  0.00     0.070 C 
ENDROOT
BRANCH   1  10
ATOM     10  S   UNL d   1       0.982  -0.119  -0.060  0.00  0.00     0.210 S 
ATOM     11  O   UNL d   1       0.307  -1.317   0.395  0.00  0.00    -0.217 OA
ATOM     12  O   UNL d   1       0.831   1.114   0.695  0.00  0.00    -0.217 OA
BRANCH  10  13
ATOM     13  C   UNL d   1       2.729  -0.480  -0.089  0.00  0.00     0.064 A 
ATOM     14  C   UNL d   1       3.650   0.569   0.015  0.00  0.00     0.025 A 
ATOM     15  C   UNL d   1       5.018   0.285   0.037  0.00  0.00     0.025 A 
ATOM     16  C   UNL d   1       5.455  -1.038  -0.033  0.00  0.00     0.034 A 
ATOM     17  C   UNL d   1       4.535  -2.085  -0.110  0.00  0.00     0.025 A 
ATOM     18 CL   UNL d   1       7.140  -1.383  -0.009  0.00  0.00    -0.084 Cl
ATOM     19  C   UNL d   1       3.165  -1.808  -0.130  0.00  0.00     0.025 A 
ENDBRANCH  10  13
ENDBRANCH   1  10
BRANCH   2  20
ATOM     20  N   UNL d   1      -0.653   1.291  -5.511  0.00  0.00    -0.216 N 
ATOM     21  C   UNL d   1      -0.485   2.665  -5.986  0.00  0.00     0.151 C 
ATOM     22  C   UNL d   1      -1.807   3.436  -6.007  0.00  0.00     0.094 C 
ATOM     23  S   UNL d   1      -3.053   2.637  -7.081  0.00  0.00    -0.166 SA
ATOM     24  C   UNL d   1      -2.970   0.965  -6.344  0.00  0.00     0.094 C 
ATOM     25  C   UNL d   1      -1.538   0.420  -6.287  0.00  0.00     0.151 C 
ENDBRANCH   2  20
TORSDOF 3
