REMARK  5 active torsions:
REMARK  status: ('A' for Active; 'I' for Inactive)
REMARK    1  A    between atoms: C_3  and  S_1 
REMARK    2  A    between atoms: N_4  and  S_1 
REMARK    3  A    between atoms: C_7  and  N_4 
REMARK    4  A    between atoms: O_18  and  C_10 
REMARK    5  A    between atoms: O_19  and  C_16 
ROOT
ATOM      1  S   UNL d   1       1.291   0.120  -0.056  0.00  0.00     0.262 S 
ATOM      2  O   UNL d   1       2.470  -0.431  -0.683  0.00  0.00    -0.200 OA
ATOM      3  O   UNL d   1       1.379   1.317   0.750  0.00  0.00    -0.200 OA
ENDROOT
BRANCH   1   4
ATOM      4  C   UNL d   1       0.513  -1.171   0.884  0.00  0.00     0.115 A 
ATOM      5  C   UNL d   1       0.933  -2.490   0.635  0.00  0.00     0.065 A 
ATOM      6  C   UNL d   1       0.576  -3.523   1.501  0.00  0.00     0.069 A 
ATOM      7  C   UNL d   1      -0.149  -3.227   2.654  0.00  0.00     0.039 A 
ATOM      8  C   UNL d   1      -0.599  -1.926   2.888  0.00  0.00     0.041 A 
ATOM      9  C   UNL d   1      -0.306  -0.904   1.982  0.00  0.00     0.091 A 
BRANCH   6  10
ATOM     10  O   UNL d   1       0.926  -4.837   1.354  0.00  0.00    -0.356 OA
ATOM     11  C   UNL d   1       1.344  -5.238   0.053  0.00  0.00     0.210 C 
ENDBRANCH   6  10
BRANCH   9  12
ATOM     12  O   UNL d   1      -0.825   0.325   2.280  0.00  0.00    -0.354 OA
ATOM     13  C   UNL d   1      -1.921   0.647   1.424  0.00  0.00     0.210 C 
ENDBRANCH   9  12
ENDBRANCH   1   4
BRANCH   1  14
ATOM     14  N   UNL d   1       0.213   0.490  -1.278  0.00  0.00    -0.310 N 
ATOM     15  H   UNL d   1      -0.160   1.438  -1.216  0.00  0.00     0.172 HD
BRANCH  14  16
ATOM     16  C   UNL d   1      -0.202  -0.412  -2.349  0.00  0.00     0.108 C 
ATOM     17  C   UNL d   1       0.927  -1.186  -3.016  0.00  0.00     0.166 C 
ATOM     18  S   UNL d   1       0.200  -1.771  -4.534  0.00  0.00     0.146 S 
ATOM     19  O   UNL d   1      -0.430  -3.047  -4.264  0.00  0.00    -0.228 OA
ATOM     20  O   UNL d   1       1.150  -1.585  -5.612  0.00  0.00    -0.228 OA
ATOM     21  C   UNL d   1      -1.074  -0.528  -4.645  0.00  0.00     0.142 C 
ATOM     22  C   UNL d   1      -0.814   0.426  -3.485  0.00  0.00     0.041 C 
ENDBRANCH  14  16
ENDBRANCH   1  14
TORSDOF 5
