REMARK  1 active torsions:
REMARK  status: ('A' for Active; 'I' for Inactive)
REMARK    1  A    between atoms: O_11  and  C_2 
ROOT
ATOM      1  N   UNL d   1      -2.471  -0.832   0.308  0.00  0.00    -0.251 N 
ATOM      2  C   UNL d   1      -1.567  -1.357  -0.671  0.00  0.00     0.294 A 
ATOM      3  O   UNL d   1      -2.088  -1.216  -1.978  0.00  0.00    -0.255 OA
ATOM      4  C   UNL d   1      -1.900   0.157   1.090  0.00  0.00     0.263 A 
ATOM      5  C   UNL d   1      -3.821  -1.175   0.223  0.00  0.00     0.059 A 
ATOM      6  C   UNL d   1      -3.378  -1.574  -2.193  0.00  0.00     0.299 C 
ATOM      7  C   UNL d   1      -4.277  -1.639  -1.010  0.00  0.00     0.066 A 
ATOM      8  C   UNL d   1      -0.325  -0.555  -0.458  0.00  0.00     0.043 A 
ATOM      9  C   UNL d   1      -0.531   0.344   0.587  0.00  0.00     0.046 A 
ATOM     10  O   UNL d   1      -2.390   0.820   1.985  0.00  0.00    -0.267 OA
ATOM     11  O   UNL d   1      -3.812  -1.770  -3.322  0.00  0.00    -0.259 OA
ATOM     12  C   UNL d   1      -4.690  -1.097   1.310  0.00  0.00     0.031 A 
ATOM     13  C   UNL d   1      -5.607  -2.049  -1.160  0.00  0.00     0.020 A 
ATOM     14  C   UNL d   1       0.909  -0.626  -1.085  0.00  0.00     0.016 A 
ATOM     15  C   UNL d   1       0.437   1.239   1.003  0.00  0.00     0.018 A 
ATOM     16  C   UNL d   1      -6.467  -2.006  -0.064  0.00  0.00     0.001 A 
ATOM     17  C   UNL d   1      -6.010  -1.532   1.168  0.00  0.00     0.002 A 
ATOM     18  C   UNL d   1       1.676   1.186   0.360  0.00  0.00     0.001 A 
ATOM     19  C   UNL d   1       1.914   0.251  -0.664  0.00  0.00     0.001 A 
ENDROOT
BRANCH   2  20
ATOM     20  O   UNL d   1      -1.274  -2.703  -0.352  0.00  0.00    -0.344 OA
ATOM     21  H   UNL d   1      -1.976  -2.978   0.257  0.00  0.00     0.215 HD
ENDBRANCH   2  20
TORSDOF 1
