REMARK  4 active torsions:
REMARK  status: ('A' for Active; 'I' for Inactive)
REMARK    1  A    between atoms: C_4  and  C_1 
REMARK       I    between atoms: C_2  and  N_3 
REMARK    2  A    between atoms: C_7  and  C_2 
REMARK    3  A    between atoms: C_10  and  C_4 
REMARK    4  A    between atoms: C_11  and  C_12 
ROOT
ATOM      1  C   UNL d   1       3.055  -6.390  -1.994  0.00  0.00     0.253 C 
ATOM      2  N   UNL d   1       2.947  -5.160  -1.335  0.00  0.00    -0.348 N 
ATOM      3  C   UNL d   1       2.634  -2.662   0.071  0.00  0.00     0.064 C 
ATOM      4  C   UNL d   1       1.806  -4.290  -1.570  0.00  0.00     0.127 C 
ATOM      5  C   UNL d   1       3.602  -4.976  -0.024  0.00  0.00     0.127 C 
ATOM      6  O   UNL d   1       3.646  -7.362  -1.514  0.00  0.00    -0.267 OA
ATOM      7  C   UNL d   1       2.238  -2.849  -1.395  0.00  0.00     0.032 C 
ATOM      8  C   UNL d   1       3.918  -3.485   0.279  0.00  0.00     0.032 C 
ENDROOT
BRANCH   1   9
ATOM      9  C   UNL d   1       2.410  -6.535  -3.332  0.00  0.00     0.032 A 
ATOM     10  C   UNL d   1       2.461  -5.502  -4.271  0.00  0.00     0.017 A 
ATOM     11  C   UNL d   1       1.712  -5.576  -5.446  0.00  0.00     0.009 A 
ATOM     12  C   UNL d   1       0.975  -6.728  -5.774  0.00  0.00    -0.051 A 
ATOM     13  C   UNL d   1       1.004  -7.795  -4.855  0.00  0.00     0.009 A 
ATOM     14  C   UNL d   1       1.706  -7.700  -3.643  0.00  0.00     0.017 A 
BRANCH  12  15
ATOM     15  C   UNL d   1       0.197  -6.782  -7.101  0.00  0.00    -0.024 C 
ATOM     16  C   UNL d   1      -0.384  -8.176  -7.422  0.00  0.00     0.019 C 
ATOM     17  C   UNL d   1      -0.983  -5.786  -7.058  0.00  0.00     0.019 C 
ATOM     18  C   UNL d   1       1.132  -6.400  -8.272  0.00  0.00     0.019 C 
ENDBRANCH  12  15
ENDBRANCH   1   9
BRANCH   3  19
ATOM     19  C   UNL d   1       2.617  -1.173   0.355  0.00  0.00     0.164 C 
ATOM     20  O   UNL d   1       3.598  -0.497   0.043  0.00  0.00    -0.292 OA
BRANCH  19  21
ATOM     21  C   UNL d   1       1.332  -0.529   0.931  0.00  0.00     0.022 A 
ATOM     22  C   UNL d   1       1.444   0.690   1.671  0.00  0.00    -0.047 A 
ATOM     23  C   UNL d   1       0.281   1.312   2.202  0.00  0.00     0.014 A 
ATOM     24  C   UNL d   1       2.729   1.390   2.047  0.00  0.00     0.049 C 
ATOM     25  C   UNL d   1      -0.991   0.794   2.005  0.00  0.00    -0.061 A 
ATOM     26  C   UNL d   1      -1.109  -0.372   1.276  0.00  0.00     0.014 A 
ATOM     27  C   UNL d   1      -2.218   1.425   2.586  0.00  0.00     0.048 C 
ATOM     28  C   UNL d   1       0.009  -1.061   0.758  0.00  0.00    -0.047 A 
ATOM     29  C   UNL d   1      -0.443  -2.289   0.012  0.00  0.00     0.049 C 
ENDBRANCH  19  21
ENDBRANCH   3  19
TORSDOF 4
