REMARK  1 active torsions:
REMARK  status: ('A' for Active; 'I' for Inactive)
REMARK    1  A    between atoms: C_2  and  N_1 
ROOT
ATOM      1  C   UNL d   1       1.167   2.345  -1.058  0.00  0.00     0.048 A 
ATOM      2  C   UNL d   1       1.023   3.671  -0.612  0.00  0.00     0.070 A 
ATOM      3  C   UNL d   1       1.497   4.708  -1.399  0.00  0.00     0.107 A 
ATOM      4  C   UNL d   1       2.121   4.490  -2.599  0.00  0.00     0.105 A 
ATOM      5  O   UNL d   1       1.423   6.032  -1.091  0.00  0.00    -0.323 OA
ATOM      6  O   UNL d   1       2.515   5.639  -3.204  0.00  0.00    -0.323 OA
ATOM      7  C   UNL d   1       1.845   2.155  -2.296  0.00  0.00     0.033 A 
ATOM      8  C   UNL d   1       2.065   6.617  -2.244  0.00  0.00     0.352 A 
ATOM      9  C   UNL d   1       2.315   3.221  -3.076  0.00  0.00     0.042 A 
ENDROOT
BRANCH   1  10
ATOM     10  N   UNL d   1       0.762   1.192  -0.269  0.00  0.00    -0.249 N 
ATOM     11  C   UNL d   1       0.257   1.321   1.032  0.00  0.00     0.255 C 
ATOM     12  O   UNL d   1      -0.211   2.337   1.545  0.00  0.00    -0.270 OA
ATOM     13  C   UNL d   1       0.347   0.047   1.880  0.00  0.00     0.271 C 
ATOM     14  O   UNL d   1       0.069  -1.161   1.206  0.00  0.00    -0.373 OA
ATOM     15  C   UNL d   1       0.839  -1.245   0.027  0.00  0.00     0.271 C 
ATOM     16  C   UNL d   1       0.631  -0.054  -0.899  0.00  0.00     0.255 C 
ATOM     17  O   UNL d   1       0.364  -0.239  -2.085  0.00  0.00    -0.270 OA
ENDBRANCH   1  10
TORSDOF 1
