REMARK  5 active torsions:
REMARK  status: ('A' for Active; 'I' for Inactive)
REMARK    1  A    between atoms: C_5  and  C_1 
REMARK    2  A    between atoms: C_3  and  C_7 
REMARK    3  A    between atoms: C_14  and  C_5 
REMARK    4  A    between atoms: C_8  and  N_6 
REMARK    5  A    between atoms: N_12  and  C_14 
ROOT
ATOM      1  N   UNL d   1      -3.489  -2.755  -3.470  0.00  0.00    -0.266 NA
ATOM      2  N   UNL d   1      -3.247  -2.068  -0.558  0.00  0.00     0.098 N 
ATOM      3  C   UNL d   1      -3.951  -3.734  -2.465  0.00  0.00     0.127 C 
ATOM      4  C   UNL d   1      -3.565  -1.369  -2.976  0.00  0.00     0.127 C 
ATOM      5  C   UNL d   1      -3.419  -3.462  -1.024  0.00  0.00     0.287 C 
ATOM      6  C   UNL d   1      -2.788  -1.196  -1.653  0.00  0.00     0.287 C 
ENDROOT
BRANCH   2   7
ATOM      7  C   UNL d   1      -4.403  -1.493   0.155  0.00  0.00     0.358 C 
BRANCH   7   8
ATOM      8  C   UNL d   1      -4.556  -2.120   1.544  0.00  0.00     0.211 C 
ATOM      9  O   UNL d   1      -5.509  -2.874   1.774  0.00  0.00    -0.288 OA
BRANCH   8  10
ATOM     10  C   UNL d   1      -3.540  -1.835   2.538  0.00  0.00     0.124 A 
ATOM     11  O   UNL d   1      -2.623  -0.836   2.325  0.00  0.00    -0.306 OA
ATOM     12  C   UNL d   1      -1.725  -0.887   3.350  0.00  0.00     0.086 A 
ATOM     13  C   UNL d   1      -0.597  -0.082   3.480  0.00  0.00     0.038 A 
ATOM     14  C   UNL d   1      -2.073  -1.888   4.249  0.00  0.00     0.001 A 
ATOM     15  C   UNL d   1       0.243  -0.353   4.567  0.00  0.00     0.003 A 
ATOM     16  C   UNL d   1      -0.061  -1.367   5.479  0.00  0.00     0.001 A 
ATOM     17  C   UNL d   1      -1.226  -2.135   5.344  0.00  0.00     0.014 A 
ATOM     18  C   UNL d   1      -3.277  -2.449   3.752  0.00  0.00     0.055 A 
ENDBRANCH   8  10
ENDBRANCH   7   8
ENDBRANCH   2   7
BRANCH   1  19
ATOM     19  C   UNL d   1      -2.296  -3.065  -4.136  0.00  0.00     0.082 A 
ATOM     20  N   UNL d   1      -1.248  -2.215  -4.062  0.00  0.00    -0.356 N 
ATOM     21  C   UNL d   1      -0.085  -2.539  -4.674  0.00  0.00     0.105 A 
ATOM     22  HN  UNL d   1      -1.333  -1.337  -3.550  1.00  0.00     0.166 HD
ATOM     23  C   UNL d   1       0.103  -3.687  -5.416  0.00  0.00     0.063 A 
ATOM     24  C   UNL d   1      -1.000  -4.528  -5.564  0.00  0.00     0.021 A 
ATOM     25  C   UNL d   1      -2.201  -4.216  -4.918  0.00  0.00     0.043 A 
BRANCH  23  26
ATOM     26  C   UNL d   1       1.440  -4.005  -6.007  0.00  0.00     0.418 C 
ATOM     27  F   UNL d   1       2.402  -3.089  -5.706  0.00  0.00    -0.166 F 
ATOM     28  F   UNL d   1       1.924  -5.203  -5.575  0.00  0.00    -0.166 F 
ATOM     29  F   UNL d   1       1.413  -4.083  -7.365  0.00  0.00    -0.166 F 
ENDBRANCH  23  26
ENDBRANCH   1  19
TORSDOF 5
