REMARK  5 active torsions:
REMARK  status: ('A' for Active; 'I' for Inactive)
REMARK    1  A    between atoms: C_13  and  N_1 
REMARK    2  A    between atoms: N_2  and  C_14 
REMARK    3  A    between atoms: C_20  and  C_13 
REMARK    4  A    between atoms: C_14  and  C_19 
REMARK    5  A    between atoms: C_19  and  C_20 
ROOT
ATOM      1  C   UNL d   1       4.218  -0.042  -2.215  0.00  0.00     0.033 C 
ENDROOT
BRANCH   1   2
ATOM      2  C   UNL d   1       4.857   0.800  -3.385  0.00  0.00     0.036 C 
ATOM      3  C   UNL d   1       4.279   2.238  -3.256  0.00  0.00     0.039 C 
ATOM      4  C   UNL d   1       6.389   0.915  -3.227  0.00  0.00     0.039 C 
BRANCH   2   5
ATOM      5  N   UNL d   1       4.524   0.142  -4.725  0.00  0.00    -0.271 N 
ATOM      6  C   UNL d   1       4.889  -1.205  -4.905  0.00  0.00     0.262 C 
ATOM      7  C   UNL d   1       4.442  -1.887  -6.144  0.00  0.00     0.044 A 
ATOM      8  O   UNL d   1       5.575  -1.863  -4.126  0.00  0.00    -0.267 OA
ATOM      9  C   UNL d   1       4.604  -3.272  -6.278  0.00  0.00     0.018 A 
ATOM     10  C   UNL d   1       3.857  -1.146  -7.167  0.00  0.00     0.005 A 
ATOM     11  C   UNL d   1       4.160  -3.922  -7.429  0.00  0.00     0.002 A 
ATOM     12  C   UNL d   1       3.562  -3.188  -8.454  0.00  0.00     0.012 A 
ATOM     13  C   UNL d   1       3.414  -1.799  -8.343  0.00  0.00    -0.024 A 
ATOM     14  C   UNL d   1       2.843  -1.041  -9.378  0.00  0.00     0.012 A 
ATOM     15  C   UNL d   1       2.721   0.343  -9.260  0.00  0.00     0.002 A 
ATOM     16  C   UNL d   1       3.161   0.979  -8.103  0.00  0.00     0.018 A 
ATOM     17  C   UNL d   1       3.726   0.234  -7.057  0.00  0.00     0.044 A 
ATOM     18  C   UNL d   1       4.191   0.924  -5.835  0.00  0.00     0.262 C 
ATOM     19  O   UNL d   1       4.266   2.148  -5.905  0.00  0.00    -0.267 OA
ENDBRANCH   2   5
ENDBRANCH   1   2
BRANCH   1  20
ATOM     20  C   UNL d   1       4.450   0.494  -0.784  0.00  0.00     0.033 C 
BRANCH  20  21
ATOM     21  C   UNL d   1       3.873  -0.357   0.397  0.00  0.00     0.036 C 
ATOM     22  C   UNL d   1       4.489  -1.776   0.427  0.00  0.00     0.039 C 
ATOM     23  C   UNL d   1       2.361  -0.574   0.119  0.00  0.00     0.039 C 
BRANCH  21  24
ATOM     24  N   UNL d   1       4.179   0.340   1.727  0.00  0.00    -0.271 N 
ATOM     25  C   UNL d   1       3.150   0.779   2.570  0.00  0.00     0.262 C 
ATOM     26  C   UNL d   1       3.510   1.263   3.922  0.00  0.00     0.044 A 
ATOM     27  O   UNL d   1       1.956   0.824   2.287  0.00  0.00    -0.267 OA
ATOM     28  C   UNL d   1       2.497   1.513   4.861  0.00  0.00     0.018 A 
ATOM     29  C   UNL d   1       4.841   1.494   4.251  0.00  0.00     0.005 A 
ATOM     30  C   UNL d   1       2.814   1.999   6.126  0.00  0.00     0.002 A 
ATOM     31  C   UNL d   1       4.143   2.259   6.455  0.00  0.00     0.012 A 
ATOM     32  C   UNL d   1       5.167   2.020   5.526  0.00  0.00    -0.024 A 
ATOM     33  C   UNL d   1       6.508   2.292   5.838  0.00  0.00     0.012 A 
ATOM     34  C   UNL d   1       7.515   2.041   4.908  0.00  0.00     0.002 A 
ATOM     35  C   UNL d   1       7.192   1.498   3.667  0.00  0.00     0.018 A 
ATOM     36  C   UNL d   1       5.856   1.215   3.342  0.00  0.00     0.044 A 
ATOM     37  C   UNL d   1       5.532   0.570   2.049  0.00  0.00     0.262 C 
ATOM     38  O   UNL d   1       6.486   0.267   1.336  0.00  0.00    -0.267 OA
ENDBRANCH  21  24
ENDBRANCH  20  21
ENDBRANCH   1  20
TORSDOF 5
