REMARK  3 active torsions:
REMARK  status: ('A' for Active; 'I' for Inactive)
REMARK    1  A    between atoms: C_2  and  N_1 
REMARK    2  A    between atoms: N_3  and  C_7 
REMARK    3  A    between atoms: N_6  and  C_4 
ROOT
ATOM      1  C   UNL d   1       2.084  -1.459  -0.099  0.00  0.00     0.069 A 
ATOM      2  C   UNL d   1       2.299  -2.378  -1.156  0.00  0.00     0.067 A 
ATOM      3  C   UNL d   1       3.049  -1.379   0.929  0.00  0.00     0.068 A 
ATOM      4  C   UNL d   1       4.224  -2.142   0.880  0.00  0.00     0.105 A 
ATOM      5  C   UNL d   1       3.458  -3.191  -1.144  0.00  0.00     0.035 A 
ATOM      6  C   UNL d   1       4.426  -3.060  -0.147  0.00  0.00     0.038 A 
ENDROOT
BRANCH   1   7
ATOM      7  N   UNL d   1       0.912  -0.640   0.050  0.00  0.00    -0.318 N 
ATOM      8  C   UNL d   1       0.898   0.703   0.457  0.00  0.00     0.013 C 
ATOM      9  C   UNL d   1      -0.402   1.165   0.389  0.00  0.00     0.027 C 
ATOM     10  C   UNL d   1       2.085   1.529   0.836  0.00  0.00     0.068 C 
ATOM     11  C   UNL d   1      -1.220   0.095   0.006  0.00  0.00     0.027 C 
ATOM     12  C   UNL d   1      -0.421  -1.026  -0.120  0.00  0.00     0.013 C 
ATOM     13  C   UNL d   1      -0.921  -2.417  -0.330  0.00  0.00     0.068 C 
ENDBRANCH   1   7
BRANCH   2  14
ATOM     14  N   UNL d   1       1.487  -2.477  -2.319  0.00  0.00    -0.315 N 
ATOM     15  C   UNL d   1       1.245  -3.628  -3.043  0.00  0.00     0.188 A 
ATOM     16  N   UNL d   1       0.458  -3.423  -4.073  0.00  0.00    -0.360 N 
ATOM     17  C   UNL d   1       0.194  -2.080  -4.050  0.00  0.00     0.106 A 
ATOM     18  HN  UNL d   1       0.118  -4.113  -4.743  1.00  0.00     0.166 HD
ATOM     19  C   UNL d   1       0.833  -1.474  -2.995  0.00  0.00     0.115 A 
ENDBRANCH   2  14
BRANCH   4  20
ATOM     20  N   UNL d   1       5.262  -1.952   1.902  0.00  0.00    -0.116 N 
ATOM     21  O   UNL d   1       5.067  -1.085   2.765  0.00  0.00    -0.532 OA
ATOM     22  O   UNL d   1       6.278  -2.656   1.828  0.00  0.00    -0.532 OA
ENDBRANCH   4  20
TORSDOF 3
