REMARK  1 active torsions:
REMARK  status: ('A' for Active; 'I' for Inactive)
REMARK    1  A    between atoms: C_7  and  C_3 
ROOT
ATOM      1  C   UNL d   1       2.039  -2.432  -0.021  0.00  0.00    -0.007 A 
ATOM      2  C   UNL d   1       2.809  -4.481  -1.086  0.00  0.00     0.056 A 
ATOM      3  C   UNL d   1       1.964  -3.365  -1.065  0.00  0.00     0.039 A 
ATOM      4  C   UNL d   1       3.729  -4.680  -0.050  0.00  0.00     0.055 A 
ATOM      5  C   UNL d   1       2.960  -2.644   1.014  0.00  0.00     0.015 A 
ATOM      6  C   UNL d   1       3.800  -3.762   0.999  0.00  0.00     0.026 A 
ATOM      7 CL   UNL d   1       2.672  -5.572  -2.420  0.00  0.00    -0.083 Cl
ATOM      8 CL   UNL d   1       4.800  -6.034  -0.003  0.00  0.00    -0.083 Cl
ENDROOT
BRANCH   1   9
ATOM      9  C   UNL d   1       1.154  -1.274  -0.019  0.00  0.00     0.049 A 
ATOM     10  N   UNL d   1      -0.110  -1.334  -0.587  0.00  0.00    -0.353 N 
ATOM     11  C   UNL d   1      -0.726  -0.181  -0.435  0.00  0.00     0.047 A 
ATOM     12  HN  UNL d   1      -0.503  -2.151  -1.054  1.00  0.00     0.166 HD
ATOM     13  S   UNL d   1       0.184   1.049   0.348  0.00  0.00    -0.087 SA
ATOM     14  C   UNL d   1      -2.115   0.102  -0.884  0.00  0.00     0.076 C 
ATOM     15  C   UNL d   1       1.489  -0.047   0.519  0.00  0.00     0.081 A 
ENDBRANCH   1   9
TORSDOF 1
