REMARK  5 active torsions:
REMARK  status: ('A' for Active; 'I' for Inactive)
REMARK    1  A    between atoms: N_11  and  C_3 
REMARK    2  A    between atoms: C_7  and  C_6 
REMARK    3  A    between atoms: C_8  and  C_7 
REMARK       I    between atoms: N_10  and  C_8 
REMARK    4  A    between atoms: C_9  and  N_10 
REMARK    5  A    between atoms: C_15  and  N_11 
ROOT
ATOM      1  N   UNL d   1      -0.820  -1.571  -0.035  0.00  0.00    -0.306 N 
ATOM      2  HN  UNL d   1      -1.444  -2.331   0.237  1.00  0.00     0.171 HD
ATOM      3  C   UNL d   1       0.420  -1.740  -0.310  0.00  0.00     0.148 C 
ATOM      4  C   UNL d   1      -1.222  -0.262  -0.147  0.00  0.00     0.238 C 
ATOM      5  S   UNL d   1       1.303  -0.293  -0.778  0.00  0.00    -0.079 SA
ATOM      6  C   UNL d   1      -0.092   0.745  -0.218  0.00  0.00     0.156 C 
ATOM      7  O   UNL d   1      -2.395   0.088  -0.145  0.00  0.00    -0.272 OA
ENDROOT
BRANCH   6   8
ATOM      8  C   UNL d   1      -0.385   1.864  -1.197  0.00  0.00     0.128 C 
BRANCH   8   9
ATOM      9  C   UNL d   1      -1.095   3.067  -0.589  0.00  0.00     0.223 C 
ATOM     10  N   UNL d   1      -2.305   2.807   0.028  0.00  0.00    -0.326 N 
ATOM     11  H   UNL d   1      -2.645   1.839   0.043  0.00  0.00     0.169 HD
ATOM     12  O   UNL d   1      -0.613   4.185  -0.764  0.00  0.00    -0.273 OA
BRANCH  10  13
ATOM     13  C   UNL d   1      -3.318   3.773   0.301  0.00  0.00     0.058 C 
ATOM     14  C   UNL d   1      -3.086   5.152   0.256  0.00  0.00     0.055 C 
ATOM     15  C   UNL d   1      -4.156   6.050   0.267  0.00  0.00     0.036 C 
ATOM     16 CL   UNL d   1      -3.855   7.740   0.146  0.00  0.00    -0.084 Cl
ATOM     17  C   UNL d   1      -5.468   5.591   0.345  0.00  0.00     0.026 C 
ATOM     18  C   UNL d   1      -5.707   4.229   0.507  0.00  0.00     0.028 C 
ATOM     19  C   UNL d   1      -4.637   3.329   0.518  0.00  0.00     0.060 C 
ATOM     20 CL   UNL d   1      -5.005   1.661   0.774  0.00  0.00    -0.082 Cl
ENDBRANCH  10  13
ENDBRANCH   8   9
ENDBRANCH   6   8
BRANCH   3  21
ATOM     21  N   UNL d   1       1.193  -2.861  -0.282  0.00  0.00    -0.337 N 
ATOM     22  H   UNL d   1       2.165  -2.723  -0.527  0.00  0.00     0.168 HD
BRANCH  21  23
ATOM     23  C   UNL d   1       0.857  -4.170   0.106  0.00  0.00     0.036 A 
ATOM     24  C   UNL d   1      -0.450  -4.598   0.357  0.00  0.00     0.071 A 
ATOM     25  C   UNL d   1      -0.701  -5.911   0.753  0.00  0.00     0.118 A 
ATOM     26  F   UNL d   1      -1.963  -6.301   0.975  0.00  0.00    -0.206 F 
ATOM     27  C   UNL d   1       0.331  -6.825   0.920  0.00  0.00     0.042 A 
ATOM     28  C   UNL d   1       1.640  -6.419   0.689  0.00  0.00     0.005 A 
ATOM     29  C   UNL d   1       1.897  -5.103   0.287  0.00  0.00     0.029 A 
ENDBRANCH  21  23
ENDBRANCH   3  21
TORSDOF 5
