REMARK  3 active torsions:
REMARK  status: ('A' for Active; 'I' for Inactive)
REMARK    1  A    between atoms: C_7  and  N_1 
REMARK    2  A    between atoms: C_8  and  C_2 
REMARK    3  A    between atoms: C_9  and  C_10 
ROOT
ATOM      1  N   UNL d   1      -0.171  -1.299  -0.069  0.00  0.00    -0.224 N 
ATOM      2  C   UNL d   1       1.012  -0.637   0.247  0.00  0.00     0.148 C 
ATOM      3  N   UNL d   1      -1.058  -0.384  -0.527  0.00  0.00     0.001 NA
ATOM      4  N   UNL d   1      -0.509   0.797  -0.289  0.00  0.00    -0.007 NA
ATOM      5  N   UNL d   1       0.762   0.661   0.198  0.00  0.00    -0.269 N 
ATOM      6  HN  UNL d   1       1.394   1.414   0.471  1.00  0.00     0.185 HD
ENDROOT
BRANCH   1   7
ATOM      7  C   UNL d   1      -0.499  -2.672   0.006  0.00  0.00     0.056 A 
ATOM      8  C   UNL d   1       0.065  -3.490   0.988  0.00  0.00     0.032 A 
ATOM      9  C   UNL d   1      -0.184  -4.865   0.977  0.00  0.00     0.010 A 
ATOM     10  C   UNL d   1      -0.986  -5.459  -0.015  0.00  0.00    -0.051 A 
ATOM     11  C   UNL d   1      -1.589  -4.606  -0.956  0.00  0.00     0.010 A 
ATOM     12  C   UNL d   1      -1.369  -3.223  -0.936  0.00  0.00     0.032 A 
BRANCH  10  13
ATOM     13  C   UNL d   1      -1.163  -6.989  -0.048  0.00  0.00    -0.024 C 
ATOM     14  C   UNL d   1      -2.017  -7.487  -1.234  0.00  0.00     0.019 C 
ATOM     15  C   UNL d   1       0.219  -7.669  -0.168  0.00  0.00     0.019 C 
ATOM     16  C   UNL d   1      -1.849  -7.466   1.249  0.00  0.00     0.019 C 
ENDBRANCH  10  13
ENDBRANCH   1   7
BRANCH   2  17
ATOM     17  C   UNL d   1       2.330  -1.239   0.460  0.00  0.00     0.011 A 
ATOM     18  C   UNL d   1       2.764  -2.343  -0.297  0.00  0.00     0.015 A 
ATOM     19  C   UNL d   1       4.015  -2.918  -0.074  0.00  0.00     0.001 A 
ATOM     20  C   UNL d   1       4.867  -2.375   0.885  0.00  0.00     0.000 A 
ATOM     21  C   UNL d   1       4.470  -1.255   1.613  0.00  0.00     0.001 A 
ATOM     22  C   UNL d   1       3.209  -0.689   1.400  0.00  0.00     0.015 A 
ENDBRANCH   2  17
TORSDOF 3
