REMARK  8 active torsions:
REMARK  status: ('A' for Active; 'I' for Inactive)
REMARK    1  A    between atoms: C_10  and  N_3 
REMARK    2  A    between atoms: C_15  and  C_4 
REMARK    3  A    between atoms: N_8  and  C_14 
REMARK    4  A    between atoms: C_9  and  N_19 
REMARK    5  A    between atoms: N_13  and  C_9 
REMARK    6  A    between atoms: C_11  and  C_10 
REMARK       I    between atoms: N_20  and  C_11 
REMARK    7  A    between atoms: C_12  and  N_13 
REMARK    8  A    between atoms: N_19  and  N_20 
ROOT
ATOM      1  C   UNL d   1       1.892  -2.583  -0.404  0.00  0.00     0.257 C 
ATOM      2  N   UNL d   1       0.714  -3.133  -0.881  0.00  0.00    -0.266 N 
ATOM      3  O   UNL d   1       2.909  -3.259  -0.239  0.00  0.00    -0.270 OA
ATOM      4  H   UNL d   1      -0.184  -2.651  -0.880  0.00  0.00     0.190 HD
ENDROOT
BRANCH   1   5
ATOM      5  C   UNL d   1       1.814  -1.123  -0.051  0.00  0.00     0.271 C 
BRANCH   5   6
ATOM      6  N   UNL d   1       2.795  -0.329  -0.756  0.00  0.00    -0.207 N 
ATOM      7  N   UNL d   1       3.142   0.889  -0.281  0.00  0.00    -0.268 N 
ATOM      8  C   UNL d   1       3.705   1.430  -1.376  0.00  0.00     0.144 A 
ATOM      9  HN  UNL d   1       3.013   1.287   0.649  1.00  0.00     0.190 HD
ATOM     10  N   UNL d   1       3.687   0.575  -2.452  0.00  0.00    -0.266 N 
ATOM     11  N   UNL d   1       3.064  -0.527  -2.060  0.00  0.00    -0.002 NA
ATOM     12  HN  UNL d   1       4.078   0.754  -3.376  1.00  0.00     0.186 HD
BRANCH   8  13
ATOM     13  C   UNL d   1       4.152   2.815  -1.473  0.00  0.00     0.013 A 
ATOM     14  C   UNL d   1       4.044   3.681  -0.374  0.00  0.00     0.051 A 
ATOM     15  C   UNL d   1       4.371   5.037  -0.518  0.00  0.00     0.103 A 
ATOM     16  C   UNL d   1       4.824   5.538  -1.746  0.00  0.00     0.036 A 
ATOM     17  C   UNL d   1       4.960   4.672  -2.830  0.00  0.00     0.003 A 
ATOM     18  C   UNL d   1       4.628   3.321  -2.694  0.00  0.00     0.015 A 
BRANCH  15  19
ATOM     19  N   UNL d   1       4.208   5.950   0.621  0.00  0.00    -0.116 N 
ATOM     20  O   UNL d   1       3.803   5.472   1.690  0.00  0.00    -0.532 OA
ATOM     21  O   UNL d   1       4.480   7.146   0.444  0.00  0.00    -0.532 OA
ENDBRANCH  15  19
ENDBRANCH   8  13
ENDBRANCH   5   6
ENDBRANCH   1   5
BRANCH   2  22
ATOM     22  N   UNL d   1       0.678  -4.523  -1.033  0.00  0.00    -0.273 N 
ATOM     23  H   UNL d   1       1.584  -4.991  -1.088  0.00  0.00     0.189 HD
BRANCH  22  24
ATOM     24  C   UNL d   1      -0.488  -5.249  -1.002  0.00  0.00     0.191 C 
ATOM     25  S   UNL d   1      -2.017  -4.596  -1.171  0.00  0.00    -0.039 SA
BRANCH  24  26
ATOM     26  N   UNL d   1      -0.337  -6.608  -0.887  0.00  0.00    -0.332 N 
ATOM     27  H   UNL d   1      -1.141  -7.146  -1.196  0.00  0.00     0.168 HD
BRANCH  26  28
ATOM     28  C   UNL d   1       0.567  -7.305  -0.045  0.00  0.00     0.042 A 
ATOM     29  C   UNL d   1       1.202  -6.643   1.018  0.00  0.00     0.053 A 
ATOM     30  C   UNL d   1       1.997  -7.342   1.927  0.00  0.00     0.036 A 
ATOM     31 CL   UNL d   1       2.718  -6.511   3.247  0.00  0.00    -0.084 Cl
ATOM     32  C   UNL d   1       2.189  -8.708   1.779  0.00  0.00     0.024 A 
ATOM     33  C   UNL d   1       1.573  -9.378   0.721  0.00  0.00     0.011 A 
ATOM     34  C   UNL d   1       0.754  -8.694  -0.196  0.00  0.00    -0.035 A 
ATOM     35  C   UNL d   1       0.169  -9.508  -1.320  0.00  0.00     0.050 C 
ENDBRANCH  26  28
ENDBRANCH  24  26
ENDBRANCH  22  24
ENDBRANCH   2  22
TORSDOF 8
