REMARK  4 active torsions:
REMARK  status: ('A' for Active; 'I' for Inactive)
REMARK    1  A    between atoms: C_8  and  C_1 
REMARK    2  A    between atoms: N_6  and  C_2 
REMARK    3  A    between atoms: C_9  and  C_4 
REMARK       I    between atoms: C_7  and  N_6 
REMARK    4  A    between atoms: C_11  and  C_7 
ROOT
ATOM      1  C   UNL d   1       0.069   1.257   0.096  0.00  0.00     0.077 A 
ATOM      2  C   UNL d   1       1.370   0.836  -0.134  0.00  0.00     0.057 A 
ATOM      3  S   UNL d   1      -1.015  -0.067   0.121  0.00  0.00    -0.084 SA
ATOM      4  C   UNL d   1       0.231  -1.230  -0.011  0.00  0.00     0.018 A 
ATOM      5  C   UNL d   1       1.450  -0.596  -0.159  0.00  0.00     0.051 A 
ENDROOT
BRANCH   2   6
ATOM      6  N   UNL d   1       2.453   1.713  -0.281  0.00  0.00    -0.322 N 
ATOM      7  C   UNL d   1       3.608   1.350  -0.960  0.00  0.00     0.256 C 
ATOM      8  O   UNL d   1       3.735   0.313  -1.609  0.00  0.00    -0.267 OA
ATOM      9  H   UNL d   1       2.273   2.696  -0.089  0.00  0.00     0.169 HD
BRANCH   7  10
ATOM     10  C   UNL d   1       4.759   2.297  -0.939  0.00  0.00     0.032 A 
ATOM     11  C   UNL d   1       4.981   3.213   0.096  0.00  0.00     0.017 A 
ATOM     12  C   UNL d   1       6.158   3.973   0.111  0.00  0.00     0.001 A 
ATOM     13  C   UNL d   1       7.111   3.826  -0.899  0.00  0.00     0.000 A 
ATOM     14  C   UNL d   1       6.889   2.926  -1.938  0.00  0.00     0.001 A 
ATOM     15  C   UNL d   1       5.720   2.166  -1.956  0.00  0.00     0.017 A 
ENDBRANCH   7  10
ENDBRANCH   2   6
BRANCH   1  16
ATOM     16  C   UNL d   1      -0.418   2.624   0.240  0.00  0.00     0.164 C 
ATOM     17  O   UNL d   1       0.328   3.598   0.092  0.00  0.00    -0.292 OA
ATOM     18  C   UNL d   1      -1.878   2.854   0.576  0.00  0.00     0.097 C 
ENDBRANCH   1  16
BRANCH   4  19
ATOM     19  C   UNL d   1      -0.075  -2.675   0.010  0.00  0.00    -0.019 A 
ATOM     20  C   UNL d   1       0.738  -3.582  -0.689  0.00  0.00     0.013 A 
ATOM     21  C   UNL d   1       0.460  -4.953  -0.678  0.00  0.00     0.001 A 
ATOM     22  C   UNL d   1      -0.635  -5.440   0.034  0.00  0.00     0.000 A 
ATOM     23  C   UNL d   1      -1.444  -4.560   0.737  0.00  0.00     0.001 A 
ATOM     24  C   UNL d   1      -1.165  -3.189   0.730  0.00  0.00     0.013 A 
ENDBRANCH   4  19
TORSDOF 4
