REMARK  10 active torsions:
REMARK  status: ('A' for Active; 'I' for Inactive)
REMARK    1  A    between atoms: C_2  and  N_1 
REMARK    2  A    between atoms: C_3  and  N_14 
REMARK    3  A    between atoms: C_7  and  O_15 
REMARK    4  A    between atoms: C_9  and  O_16 
REMARK    5  A    between atoms: C_11  and  C_22 
REMARK    6  A    between atoms: O_28  and  C_13 
REMARK       I    between atoms: C_17  and  N_14 
REMARK    7  A    between atoms: C_19  and  O_15 
REMARK    8  A    between atoms: C_20  and  O_16 
REMARK    9  A    between atoms: C_21  and  O_23 
REMARK   10  A    between atoms: O_23  and  C_22 
ROOT
ATOM      1  C   UNL d   1      -0.038  -2.885   0.225  0.00  0.00     0.258 C 
ATOM      2  C   UNL d   1       0.492  -3.136   1.673  0.00  0.00     0.166 C 
ATOM      3  C   UNL d   1       1.975  -2.709   1.801  0.00  0.00     0.191 C 
ATOM      4  O   UNL d   1       0.820  -3.442  -0.773  0.00  0.00    -0.354 OA
ATOM      5  C   UNL d   1       2.799  -3.249   0.604  0.00  0.00     0.194 C 
ATOM      6  C   UNL d   1       2.143  -2.890  -0.739  0.00  0.00     0.180 C 
ENDROOT
BRANCH   1   7
ATOM      7  N   UNL d   1      -1.377  -3.438  -0.006  0.00  0.00    -0.280 N 
ATOM      8  C   UNL d   1      -1.565  -4.824   0.101  0.00  0.00     0.330 A 
ATOM      9  N   UNL d   1      -2.811  -5.333  -0.168  0.00  0.00    -0.289 N 
ATOM     10  O   UNL d   1      -0.658  -5.580   0.435  0.00  0.00    -0.246 OA
ATOM     11  C   UNL d   1      -3.742  -4.505  -0.472  0.00  0.00     0.146 A 
ATOM     12  HN  UNL d   1      -2.991  -6.336  -0.128  1.00  0.00     0.172 HD
ATOM     13  C   UNL d   1      -3.646  -3.051  -0.552  0.00  0.00     0.073 A 
ATOM     14  C   UNL d   1      -2.421  -2.586  -0.314  0.00  0.00     0.103 A 
BRANCH  11  15
ATOM     15  O   UNL d   1      -5.005  -4.889  -0.777  0.00  0.00    -0.341 OA
ATOM     16  C   UNL d   1      -5.225  -6.305  -0.804  0.00  0.00     0.211 C 
ENDBRANCH  11  15
ENDBRANCH   1   7
BRANCH   2  17
ATOM     17  N   UNL d   1      -0.366  -2.567   2.732  0.00  0.00    -0.350 N 
ATOM     18  C   UNL d   1      -0.859  -1.282   2.713  0.00  0.00     0.214 C 
ATOM     19  O   UNL d   1      -0.752  -0.523   1.757  0.00  0.00    -0.274 OA
ATOM     20  C   UNL d   1      -1.640  -0.918   3.945  0.00  0.00     0.117 C 
ATOM     21  H   UNL d   1      -0.325  -3.019   3.637  0.00  0.00     0.163 HD
ENDBRANCH   2  17
BRANCH   3  22
ATOM     22  O   UNL d   1       2.553  -3.313   3.000  0.00  0.00    -0.311 OA
BRANCH  22  23
ATOM     23  C   UNL d   1       2.425  -2.640   4.173  0.00  0.00     0.255 C 
ATOM     24  O   UNL d   1       1.856  -1.571   4.325  0.00  0.00    -0.266 OA
ATOM     25  C   UNL d   1       3.001  -3.443   5.299  0.00  0.00     0.126 C 
ENDBRANCH  22  23
ENDBRANCH   3  22
BRANCH   6  26
ATOM     26  C   UNL d   1       2.909  -3.479  -1.936  0.00  0.00     0.213 C 
BRANCH  26  27
ATOM     27  O   UNL d   1       2.330  -3.026  -3.180  0.00  0.00    -0.319 OA
BRANCH  27  28
ATOM     28  C   UNL d   1       2.717  -1.790  -3.589  0.00  0.00     0.254 C 
ATOM     29  O   UNL d   1       3.532  -1.083  -3.013  0.00  0.00    -0.266 OA
ATOM     30  C   UNL d   1       2.021  -1.402  -4.859  0.00  0.00     0.126 C 
ENDBRANCH  27  28
ENDBRANCH  26  27
ENDBRANCH   6  26
BRANCH   5  31
ATOM     31  O   UNL d   1       4.203  -2.891   0.677  0.00  0.00    -0.311 OA
BRANCH  31  32
ATOM     32  C   UNL d   1       4.547  -1.579   0.621  0.00  0.00     0.255 C 
ATOM     33  O   UNL d   1       3.758  -0.653   0.518  0.00  0.00    -0.266 OA
ATOM     34  C   UNL d   1       6.033  -1.408   0.710  0.00  0.00     0.126 C 
ENDBRANCH  31  32
ENDBRANCH   5  31
TORSDOF 10
