REMARK  5 active torsions:
REMARK  status: ('A' for Active; 'I' for Inactive)
REMARK    1  A    between atoms: C_8  and  C_1 
REMARK    2  A    between atoms: O_5  and  C_2 
REMARK    3  A    between atoms: S_3  and  O_5 
REMARK    4  A    between atoms: C_9  and  S_3 
REMARK    5  A    between atoms: O_15  and  C_8 
ROOT
ATOM      1  C   UNL d   1       2.053  -0.997  -0.137  0.00  0.00     0.116 A 
ATOM      2  C   UNL d   1       0.868  -1.716  -0.192  0.00  0.00     0.124 A 
ATOM      3  S   UNL d   1       1.766   0.685  -0.133  0.00  0.00    -0.081 SA
ATOM      4  C   UNL d   1      -0.303  -0.857  -0.293  0.00  0.00     0.017 A 
ATOM      5  C   UNL d   1       0.065   0.490  -0.164  0.00  0.00     0.019 A 
ATOM      6  C   UNL d   1      -1.694  -1.108  -0.449  0.00  0.00     0.016 A 
ATOM      7  C   UNL d   1      -0.884   1.533  -0.080  0.00  0.00     0.020 A 
ATOM      8  C   UNL d   1      -2.642  -0.079  -0.350  0.00  0.00     0.001 A 
ATOM      9  C   UNL d   1      -2.240   1.227  -0.139  0.00  0.00     0.001 A 
ENDROOT
BRANCH   2  10
ATOM     10  O   UNL d   1       0.960  -3.074  -0.122  0.00  0.00    -0.227 OA
BRANCH  10  11
ATOM     11  S   UNL d   1      -0.274  -4.129  -0.075  0.00  0.00     0.303 S 
ATOM     12  O   UNL d   1      -1.124  -3.802   1.055  0.00  0.00    -0.193 OA
ATOM     13  O   UNL d   1      -0.814  -4.268  -1.411  0.00  0.00    -0.193 OA
BRANCH  11  14
ATOM     14  C   UNL d   1       0.445  -5.721   0.320  0.00  0.00     0.086 A 
ATOM     15  C   UNL d   1      -0.359  -6.660   0.985  0.00  0.00     0.027 A 
ATOM     16  C   UNL d   1       0.160  -7.912   1.323  0.00  0.00     0.025 A 
ATOM     17  C   UNL d   1       1.482  -8.218   1.007  0.00  0.00     0.034 A 
ATOM     18  C   UNL d   1       2.285  -7.285   0.345  0.00  0.00     0.025 A 
ATOM     19 CL   UNL d   1       2.125  -9.755   1.439  0.00  0.00    -0.084 Cl
ATOM     20  C   UNL d   1       1.769  -6.029  -0.006  0.00  0.00     0.027 A 
ENDBRANCH  11  14
ENDBRANCH  10  11
ENDBRANCH   2  10
BRANCH   1  21
ATOM     21  C   UNL d   1       3.404  -1.531  -0.067  0.00  0.00     0.302 C 
ATOM     22  O   UNL d   1       3.682  -2.723  -0.053  0.00  0.00    -0.259 OA
BRANCH  21  23
ATOM     23  O   UNL d   1       4.342  -0.542  -0.021  0.00  0.00    -0.322 OA
ATOM     24  C   UNL d   1       5.689  -1.007   0.066  0.00  0.00     0.213 C 
ENDBRANCH  21  23
ENDBRANCH   1  21
TORSDOF 5
