REMARK  4 active torsions:
REMARK  status: ('A' for Active; 'I' for Inactive)
REMARK    1  A    between atoms: N_5  and  S_1 
REMARK    2  A    between atoms: C_10  and  S_1 
REMARK    3  A    between atoms: C_2  and  N_8 
REMARK    4  A    between atoms: C_25  and  C_9 
ROOT
ATOM      1  N   UNL d   1       0.433  -1.142   0.265  0.00  0.00    -0.304 N 
ATOM      2  N   UNL d   1       0.584  -3.722  -0.974  0.00  0.00    -0.362 N 
ATOM      3  C   UNL d   1       1.297  -2.233   0.833  0.00  0.00     0.155 C 
ATOM      4  C   UNL d   1      -0.660  -1.673  -0.615  0.00  0.00     0.155 C 
ATOM      5  C   UNL d   1      -0.124  -2.642  -1.683  0.00  0.00     0.145 C 
ATOM      6  C   UNL d   1       1.773  -3.225  -0.261  0.00  0.00     0.145 C 
ENDROOT
BRANCH   2   7
ATOM      7  C   UNL d   1       0.621  -4.963  -1.595  0.00  0.00     0.127 A 
ATOM      8  N   UNL d   1       0.400  -5.016  -2.930  0.00  0.00    -0.339 N 
ATOM      9  C   UNL d   1       0.278  -6.227  -3.515  0.00  0.00     0.060 A 
ATOM     10  HN  UNL d   1       0.327  -4.161  -3.482  1.00  0.00     0.167 HD
ATOM     11  C   UNL d   1       0.003  -6.319  -4.875  0.00  0.00     0.032 A 
ATOM     12  C   UNL d   1       0.395  -7.417  -2.768  0.00  0.00     0.059 A 
ATOM     13  C   UNL d   1      -0.178  -7.554  -5.504  0.00  0.00     0.002 A 
ATOM     14  C   UNL d   1      -0.077  -8.721  -4.760  0.00  0.00     0.002 A 
ATOM     15  C   UNL d   1       0.217  -8.642  -3.399  0.00  0.00     0.032 A 
ATOM     16  N   UNL d   1       0.647  -7.387  -1.453  0.00  0.00    -0.355 N 
ATOM     17  C   UNL d   1       0.724  -6.163  -0.860  0.00  0.00     0.053 A 
ATOM     18  HN  UNL d   1       0.776  -8.246  -0.917  1.00  0.00     0.166 HD
BRANCH  17  19
ATOM     19  C   UNL d   1       0.880  -6.176   0.643  0.00  0.00     0.056 C 
ATOM     20  C   UNL d   1       0.145  -7.317   1.334  0.00  0.00     0.011 C 
ENDBRANCH  17  19
ENDBRANCH   2   7
BRANCH   1  21
ATOM     21  S   UNL d   1       1.228   0.251  -0.273  0.00  0.00     0.260 S 
ATOM     22  O   UNL d   1       0.345   1.004  -1.134  0.00  0.00    -0.200 OA
ATOM     23  O   UNL d   1       2.562  -0.127  -0.693  0.00  0.00    -0.200 OA
BRANCH  21  24
ATOM     24  C   UNL d   1       1.362   1.179   1.243  0.00  0.00     0.079 A 
ATOM     25  C   UNL d   1       2.614   1.510   1.766  0.00  0.00     0.027 A 
ATOM     26  C   UNL d   1       2.687   2.297   2.918  0.00  0.00     0.025 A 
ATOM     27  C   UNL d   1       1.515   2.745   3.534  0.00  0.00     0.034 A 
ATOM     28  C   UNL d   1       0.266   2.405   3.015  0.00  0.00     0.025 A 
ATOM     29 CL   UNL d   1       1.613   3.737   4.937  0.00  0.00    -0.084 Cl
ATOM     30  C   UNL d   1       0.186   1.620   1.863  0.00  0.00     0.027 A 
ENDBRANCH  21  24
ENDBRANCH   1  21
TORSDOF 4
