REMARK  4 active torsions:
REMARK  status: ('A' for Active; 'I' for Inactive)
REMARK    1  A    between atoms: S_2  and  C_1 
REMARK    2  A    between atoms: C_4  and  S_2 
REMARK    3  A    between atoms: N_14  and  C_3 
REMARK    4  A    between atoms: C_11  and  C_8 
ROOT
ATOM      1  C   UNL d   1      -1.373  -3.678   1.427  0.00  0.00     0.145 C 
ATOM      2  C   UNL d   1      -2.200  -2.706   0.990  0.00  0.00     0.046 C 
ATOM      3  C   UNL d   1      -1.138  -4.921   0.733  0.00  0.00     0.112 C 
ATOM      4  N   UNL d   1      -0.966  -5.926   0.157  0.00  0.00    -0.191 NA
ENDROOT
BRANCH   1   5
ATOM      5  S   UNL d   1      -0.711  -3.453   3.024  0.00  0.00     0.221 S 
ATOM      6  O   UNL d   1      -1.515  -4.179   3.990  0.00  0.00    -0.216 OA
ATOM      7  O   UNL d   1      -0.432  -2.043   3.260  0.00  0.00    -0.216 OA
BRANCH   5   8
ATOM      8  C   UNL d   1       0.845  -4.183   3.097  0.00  0.00     0.118 A 
ATOM      9  C   UNL d   1       2.013  -3.547   2.739  0.00  0.00     0.143 A 
ATOM     10  O   UNL d   1       3.078  -4.345   2.985  0.00  0.00    -0.302 OA
ATOM     11  C   UNL d   1       2.605  -5.501   3.521  0.00  0.00     0.058 A 
ATOM     12  C   UNL d   1       1.219  -5.480   3.586  0.00  0.00    -0.007 A 
ATOM     13  C   UNL d   1       3.634  -6.480   3.934  0.00  0.00     0.077 C 
ATOM     14  C   UNL d   1       0.379  -6.589   4.109  0.00  0.00     0.052 C 
BRANCH   9  15
ATOM     15  N   UNL d   1       2.317  -2.329   2.260  0.00  0.00    -0.281 NA
ATOM     16  H   UNL d   1       1.685  -1.564   2.501  0.00  0.00     0.126 HD
ATOM     17  H   UNL d   1       3.291  -2.054   2.366  0.00  0.00     0.126 HD
ENDBRANCH   9  15
ENDBRANCH   5   8
ENDBRANCH   1   5
BRANCH   2  18
ATOM     18  C   UNL d   1      -2.966  -2.775  -0.256  0.00  0.00    -0.031 A 
ATOM     19  C   UNL d   1      -4.232  -3.373  -0.259  0.00  0.00     0.035 A 
ATOM     20  C   UNL d   1      -4.959  -3.458  -1.448  0.00  0.00     0.036 A 
ATOM     21 CL   UNL d   1      -6.516  -4.192  -1.441  0.00  0.00    -0.084 Cl
ATOM     22  C   UNL d   1      -4.441  -2.952  -2.635  0.00  0.00     0.047 A 
ATOM     23  C   UNL d   1      -3.179  -2.362  -2.628  0.00  0.00     0.036 A 
ATOM     24  C   UNL d   1      -2.437  -2.272  -1.448  0.00  0.00     0.035 A 
ATOM     25 CL   UNL d   1      -2.530  -1.731  -4.091  0.00  0.00    -0.084 Cl
ENDBRANCH   2  18
TORSDOF 4
