REMARK  6 active torsions:
REMARK  status: ('A' for Active; 'I' for Inactive)
REMARK    1  A    between atoms: S_2  and  C_1 
REMARK    2  A    between atoms: N_7  and  S_2 
REMARK    3  A    between atoms: C_8  and  C_3 
REMARK    4  A    between atoms: O_21  and  C_8 
REMARK    5  A    between atoms: C_16  and  C_9 
REMARK    6  A    between atoms: O_20  and  C_9 
ROOT
ATOM      1  N   UNL d   1       1.489   3.674  -1.426  0.00  0.00    -0.206 NA
ATOM      2  C   UNL d   1       0.160   4.514  -3.923  0.00  0.00     0.087 C 
ATOM      3  C   UNL d   1       1.554   3.849  -3.886  0.00  0.00     0.058 C 
ATOM      4  C   UNL d   1      -0.100   5.183  -2.560  0.00  0.00     0.058 C 
ATOM      5  C   UNL d   1       1.720   2.915  -2.686  0.00  0.00     0.111 C 
ATOM      6  C   UNL d   1       0.110   4.229  -1.396  0.00  0.00     0.111 C 
ENDROOT
BRANCH   1   7
ATOM      7  S   UNL d   1       1.813   2.777   0.006  0.00  0.00     0.247 S 
ATOM      8  O   UNL d   1       1.224   1.476  -0.178  0.00  0.00    -0.206 OA
ATOM      9  O   UNL d   1       1.473   3.583   1.156  0.00  0.00    -0.206 OA
BRANCH   7  10
ATOM     10  C   UNL d   1       3.506   2.520   0.182  0.00  0.00     0.122 A 
ATOM     11  C   UNL d   1       4.525   3.531   0.329  0.00  0.00     0.094 A 
ATOM     12  C   UNL d   1       5.687   2.821   0.609  0.00  0.00     0.067 A 
ATOM     13  C   UNL d   1       7.077   3.184   0.974  0.00  0.00     0.078 C 
ATOM     14  O   UNL d   1       5.458   1.485   0.560  0.00  0.00    -0.318 OA
ATOM     15  C   UNL d   1       4.136   1.294   0.306  0.00  0.00     0.073 A 
ATOM     16  C   UNL d   1       3.747  -0.133   0.265  0.00  0.00     0.078 C 
BRANCH  11  17
ATOM     17  C   UNL d   1       4.482   4.989   0.262  0.00  0.00     0.297 C 
ATOM     18  O   UNL d   1       5.497   5.679   0.295  0.00  0.00    -0.259 OA
BRANCH  17  19
ATOM     19  O   UNL d   1       3.237   5.516   0.142  0.00  0.00    -0.322 OA
ATOM     20  C   UNL d   1       3.200   6.947   0.138  0.00  0.00     0.213 C 
ENDBRANCH  17  19
ENDBRANCH  11  17
ENDBRANCH   7  10
ENDBRANCH   1   7
BRANCH   2  21
ATOM     21  C   UNL d   1      -0.035   5.558  -5.035  0.00  0.00    -0.024 A 
ATOM     22  C   UNL d   1       0.979   5.885  -5.952  0.00  0.00     0.012 A 
ATOM     23  C   UNL d   1       0.814   6.925  -6.875  0.00  0.00     0.024 A 
ATOM     24  C   UNL d   1      -0.376   7.644  -6.910  0.00  0.00     0.034 A 
ATOM     25  C   UNL d   1      -1.415   7.313  -6.050  0.00  0.00     0.024 A 
ATOM     26 CL   UNL d   1      -0.557   8.954  -8.009  0.00  0.00    -0.084 Cl
ATOM     27  C   UNL d   1      -1.248   6.276  -5.128  0.00  0.00     0.012 A 
ENDBRANCH   2  21
BRANCH   2  28
ATOM     28  O   UNL d   1      -0.797   3.460  -4.099  0.00  0.00    -0.385 OA
ATOM     29  H   UNL d   1      -1.577   3.810  -4.560  0.00  0.00     0.211 HD
ENDBRANCH   2  28
TORSDOF 6
