REMARK  14 active torsions:
REMARK  status: ('A' for Active; 'I' for Inactive)
REMARK    1  A    between atoms: C_1  and  O_13 
REMARK    2  A    between atoms: C_2  and  O_19 
REMARK    3  A    between atoms: C_3  and  O_20 
REMARK    4  A    between atoms: C_4  and  O_22 
REMARK    5  A    between atoms: C_5  and  O_23 
REMARK    6  A    between atoms: C_6  and  O_16 
REMARK    7  A    between atoms: C_9  and  O_24 
REMARK    8  A    between atoms: C_10  and  O_25 
REMARK    9  A    between atoms: C_18  and  C_11 
REMARK   10  A    between atoms: C_12  and  C_26 
REMARK   11  A    between atoms: C_17  and  O_13 
REMARK   12  A    between atoms: O_16  and  C_18 
REMARK   13  A    between atoms: C_21  and  C_17 
REMARK   14  A    between atoms: O_27  and  C_26 
ROOT
ATOM      1  N   UNL d   1       7.031  -1.853  -2.437  0.00  0.00    -0.194 NA
ATOM      2  C   UNL d   1       7.892  -1.151  -2.145  0.00  0.00     0.096 C 
ATOM      3  C   UNL d   1       9.027  -0.264  -1.769  0.00  0.00     0.264 C 
ENDROOT
BRANCH   3   4
ATOM      4  C   UNL d   1       9.419  -0.644  -0.338  0.00  0.00    -0.016 A 
ATOM      5  C   UNL d   1       9.057   0.133   0.774  0.00  0.00     0.011 A 
ATOM      6  C   UNL d   1       9.184  -0.378   2.070  0.00  0.00     0.001 A 
ATOM      7  C   UNL d   1       9.681  -1.664   2.273  0.00  0.00     0.000 A 
ATOM      8  C   UNL d   1      10.109  -2.422   1.186  0.00  0.00     0.001 A 
ATOM      9  C   UNL d   1       9.997  -1.910  -0.107  0.00  0.00     0.011 A 
ENDBRANCH   3   4
BRANCH   3  10
ATOM     10  O   UNL d   1       8.719   1.132  -1.853  0.00  0.00    -0.334 OA
BRANCH  10  11
ATOM     11  C   UNL d   1       8.391   1.685  -3.134  0.00  0.00     0.293 C 
ATOM     12  C   UNL d   1       6.970   1.336  -3.631  0.00  0.00     0.204 C 
ATOM     13  C   UNL d   1       6.671   2.046  -4.958  0.00  0.00     0.183 C 
ATOM     14  C   UNL d   1       7.782   1.740  -5.980  0.00  0.00     0.180 C 
ATOM     15  C   UNL d   1       9.161   2.109  -5.382  0.00  0.00     0.180 C 
ATOM     16  O   UNL d   1       9.373   1.413  -4.130  0.00  0.00    -0.348 OA
BRANCH  12  17
ATOM     17  O   UNL d   1       6.003   1.692  -2.643  0.00  0.00    -0.388 OA
ATOM     18  H   UNL d   1       5.203   2.006  -3.108  0.00  0.00     0.210 HD
ENDBRANCH  12  17
BRANCH  13  19
ATOM     19  O   UNL d   1       5.373   1.659  -5.430  0.00  0.00    -0.390 OA
ATOM     20  H   UNL d   1       5.358   0.690  -5.547  0.00  0.00     0.210 HD
ENDBRANCH  13  19
BRANCH  14  21
ATOM     21  O   UNL d   1       7.560   2.400  -7.228  0.00  0.00    -0.390 OA
ATOM     22  H   UNL d   1       7.224   3.300  -7.074  0.00  0.00     0.210 HD
ENDBRANCH  14  21
BRANCH  15  23
ATOM     23  C   UNL d   1       9.307   3.643  -5.274  0.00  0.00     0.205 C 
BRANCH  23  24
ATOM     24  O   UNL d   1      10.571   4.035  -4.739  0.00  0.00    -0.356 OA
BRANCH  24  25
ATOM     25  C   UNL d   1      10.588   5.449  -4.505  0.00  0.00     0.291 C 
ATOM     26  C   UNL d   1      11.952   5.883  -3.933  0.00  0.00     0.204 C 
ATOM     27  C   UNL d   1      11.955   7.414  -3.769  0.00  0.00     0.183 C 
ATOM     28  C   UNL d   1      11.546   8.124  -5.071  0.00  0.00     0.180 C 
ATOM     29  C   UNL d   1      10.219   7.543  -5.582  0.00  0.00     0.179 C 
ATOM     30  O   UNL d   1      10.326   6.130  -5.733  0.00  0.00    -0.348 OA
BRANCH  26  31
ATOM     31  O   UNL d   1      12.239   5.248  -2.678  0.00  0.00    -0.388 OA
ATOM     32  H   UNL d   1      11.789   5.728  -1.962  0.00  0.00     0.210 HD
ENDBRANCH  26  31
BRANCH  27  33
ATOM     33  O   UNL d   1      13.228   7.892  -3.322  0.00  0.00    -0.390 OA
ATOM     34  H   UNL d   1      13.927   7.410  -3.802  0.00  0.00     0.210 HD
ENDBRANCH  27  33
BRANCH  28  35
ATOM     35  O   UNL d   1      11.413   9.540  -4.888  0.00  0.00    -0.390 OA
ATOM     36  H   UNL d   1      11.236   9.715  -3.945  0.00  0.00     0.210 HD
ENDBRANCH  28  35
BRANCH  29  37
ATOM     37  C   UNL d   1       9.816   8.146  -6.936  0.00  0.00     0.198 C 
BRANCH  37  38
ATOM     38  O   UNL d   1       9.547   9.539  -6.845  0.00  0.00    -0.398 OA
ATOM     39  H   UNL d   1      10.319   9.950  -6.400  0.00  0.00     0.209 HD
ENDBRANCH  37  38
ENDBRANCH  29  37
ENDBRANCH  24  25
ENDBRANCH  23  24
ENDBRANCH  15  23
ENDBRANCH  10  11
ENDBRANCH   3  10
TORSDOF 14
