REMARK  6 active torsions:
REMARK  status: ('A' for Active; 'I' for Inactive)
REMARK    1  A    between atoms: C_4  and  C_3 
REMARK    2  A    between atoms: C_13  and  C_5 
REMARK    3  A    between atoms: N_6  and  C_12 
REMARK    4  A    between atoms: O_15  and  C_11 
REMARK    5  A    between atoms: C_20  and  O_15 
REMARK    6  A    between atoms: O_27  and  C_21 
ROOT
ATOM      1  C   UNL d   1       1.127  -2.315   0.074  0.00  0.00     0.053 A 
ATOM      2  C   UNL d   1       1.922  -2.744   1.159  0.00  0.00     0.054 A 
ATOM      3  C   UNL d   1       0.800  -3.250  -0.927  0.00  0.00     0.090 A 
ATOM      4  C   UNL d   1       2.356  -4.073   1.252  0.00  0.00     0.104 A 
ATOM      5  C   UNL d   1       1.170  -4.601  -0.771  0.00  0.00     0.041 A 
ATOM      6  C   UNL d   1       1.970  -5.010   0.295  0.00  0.00     0.039 A 
ENDROOT
BRANCH   1   7
ATOM      7  C   UNL d   1       0.715  -0.914   0.068  0.00  0.00     0.185 A 
ATOM      8  N   UNL d   1       1.296   0.111   0.652  0.00  0.00    -0.318 N 
ATOM      9  C   UNL d   1       0.396   1.136   0.447  0.00  0.00     0.138 A 
ATOM     10  HN  UNL d   1       2.192   0.141   1.138  1.00  0.00     0.169 HD
ATOM     11  N   UNL d   1      -0.706   0.757  -0.224  0.00  0.00    -0.242 N 
ATOM     12  O   UNL d   1      -0.496  -0.602  -0.475  0.00  0.00    -0.217 OA
ATOM     13  HN  UNL d   1      -1.509   1.328  -0.488  1.00  0.00     0.196 HD
BRANCH   9  14
ATOM     14  C   UNL d   1       0.634   2.489   0.952  0.00  0.00     0.010 A 
ATOM     15  C   UNL d   1      -0.330   3.500   0.806  0.00  0.00     0.022 A 
ATOM     16  C   UNL d   1      -0.114   4.788   1.322  0.00  0.00    -0.061 A 
ATOM     17  C   UNL d   1      -1.166   5.851   1.206  0.00  0.00     0.048 C 
ATOM     18  C   UNL d   1       1.097   5.074   1.963  0.00  0.00     0.007 A 
ATOM     19  C   UNL d   1       2.067   4.083   2.108  0.00  0.00     0.002 A 
ATOM     20  C   UNL d   1       1.833   2.797   1.613  0.00  0.00     0.015 A 
ENDBRANCH   9  14
ENDBRANCH   1   7
BRANCH   3  21
ATOM     21  O   UNL d   1       0.132  -2.831  -2.068  0.00  0.00    -0.310 OA
BRANCH  21  22
ATOM     22  C   UNL d   1       0.476  -3.434  -3.266  0.00  0.00     0.076 A 
ATOM     23  C   UNL d   1      -0.551  -3.789  -4.140  0.00  0.00     0.040 A 
ATOM     24  C   UNL d   1      -0.262  -4.493  -5.320  0.00  0.00     0.039 A 
ATOM     25  C   UNL d   1       1.057  -4.835  -5.625  0.00  0.00     0.068 A 
ATOM     26  C   UNL d   1       2.086  -4.414  -4.783  0.00  0.00     0.039 A 
ATOM     27  C   UNL d   1       1.807  -3.698  -3.619  0.00  0.00     0.040 A 
BRANCH  25  28
ATOM     28  O   UNL d   1       1.469  -5.524  -6.732  0.00  0.00    -0.356 OA
ATOM     29  C   UNL d   1       0.545  -6.464  -7.266  0.00  0.00     0.210 C 
ENDBRANCH  25  28
ENDBRANCH  21  22
ENDBRANCH   3  21
BRANCH   4  30
ATOM     30  N   UNL d   1       3.224  -4.488   2.361  0.00  0.00    -0.116 N 
ATOM     31  O   UNL d   1       3.498  -3.641   3.224  0.00  0.00    -0.532 OA
ATOM     32  O   UNL d   1       3.634  -5.655   2.366  0.00  0.00    -0.532 OA
ENDBRANCH   4  30
TORSDOF 6
