REMARK  3 active torsions:
REMARK  status: ('A' for Active; 'I' for Inactive)
REMARK    1  A    between atoms: N_8  and  C_3 
REMARK    2  A    between atoms: N_7  and  C_9 
REMARK    3  A    between atoms: C_11  and  N_10 
ROOT
ATOM      1  N   UNL d   1      -1.297   3.026  -0.178  0.00  0.00    -0.364 N 
ATOM      2  N   UNL d   1      -2.663   5.492  -0.601  0.00  0.00    -0.364 N 
ATOM      3  C   UNL d   1      -2.099   3.648   0.909  0.00  0.00     0.144 C 
ATOM      4  C   UNL d   1      -0.745   4.061  -1.104  0.00  0.00     0.144 C 
ATOM      5  C   UNL d   1      -1.877   4.929  -1.704  0.00  0.00     0.144 C 
ATOM      6  C   UNL d   1      -3.244   4.492   0.302  0.00  0.00     0.144 C 
ENDROOT
BRANCH   1   7
ATOM      7  C   UNL d   1      -0.673   1.780  -0.019  0.00  0.00     0.114 A 
ATOM      8  N   UNL d   1      -1.399   0.604   0.142  0.00  0.00    -0.289 N 
ATOM      9  C   UNL d   1      -0.810  -0.661   0.236  0.00  0.00     0.332 A 
ATOM     10  C   UNL d   1      -2.858   0.641   0.139  0.00  0.00     0.163 C 
ATOM     11  N   UNL d   1       0.568  -0.705   0.105  0.00  0.00    -0.271 N 
ATOM     12  O   UNL d   1      -1.480  -1.683   0.414  0.00  0.00    -0.246 OA
ATOM     13  C   UNL d   1       1.235  -1.991   0.082  0.00  0.00     0.164 C 
ATOM     14  C   UNL d   1       1.359   0.408  -0.020  0.00  0.00     0.254 A 
ATOM     15  C   UNL d   1       0.664   1.693  -0.077  0.00  0.00     0.123 A 
ATOM     16  O   UNL d   1       2.589   0.389  -0.105  0.00  0.00    -0.268 OA
ENDBRANCH   1   7
BRANCH   2  17
ATOM     17  C   UNL d   1      -3.104   6.788  -0.659  0.00  0.00     0.103 A 
ATOM     18  N   UNL d   1      -3.196   7.399  -1.861  0.00  0.00    -0.350 N 
ATOM     19  C   UNL d   1      -3.563   8.707  -1.904  0.00  0.00     0.125 A 
ATOM     20  HN  UNL d   1      -2.994   6.888  -2.721  1.00  0.00     0.166 HD
ATOM     21  C   UNL d   1      -3.818   9.457  -0.770  0.00  0.00     0.118 A 
ATOM     22  C   UNL d   1      -3.710   8.844   0.472  0.00  0.00     0.041 A 
ATOM     23  C   UNL d   1      -3.359   7.496   0.518  0.00  0.00     0.051 A 
BRANCH  21  24
ATOM     24  N   UNL d   1      -4.173  10.862  -0.884  0.00  0.00    -0.114 N 
ATOM     25  O   UNL d   1      -4.275  11.340  -2.023  0.00  0.00    -0.532 OA
ATOM     26  O   UNL d   1      -4.349  11.496   0.166  0.00  0.00    -0.532 OA
ENDBRANCH  21  24
ENDBRANCH   2  17
TORSDOF 3
