REMARK  8 active torsions:
REMARK  status: ('A' for Active; 'I' for Inactive)
REMARK    1  A    between atoms: C_7  and  C_1 
REMARK    2  A    between atoms: N_10  and  C_3 
REMARK    3  A    between atoms: C_13  and  C_4 
REMARK    4  A    between atoms: C_9  and  C_6 
REMARK    5  A    between atoms: O_16  and  C_7 
REMARK    6  A    between atoms: C_8  and  N_10 
REMARK    7  A    between atoms: O_17  and  C_9 
REMARK    8  A    between atoms: C_21  and  O_17 
ROOT
ATOM      1  C   UNL d   1       1.521   5.722   0.810  0.00  0.00     0.135 C 
ATOM      2  C   UNL d   1       1.509   4.791  -0.164  0.00  0.00     0.117 C 
ATOM      3  C   UNL d   1       1.294   5.384   2.168  0.00  0.00     0.107 C 
ATOM      4  N   UNL d   1       1.132   5.113   3.287  0.00  0.00    -0.191 NA
ENDROOT
BRANCH   1   5
ATOM      5  C   UNL d   1       1.929   7.104   0.449  0.00  0.00     0.305 C 
ATOM      6  O   UNL d   1       2.150   7.479  -0.694  0.00  0.00    -0.258 OA
BRANCH   5   7
ATOM      7  O   UNL d   1       2.101   7.854   1.569  0.00  0.00    -0.317 OA
BRANCH   7   8
ATOM      8  C   UNL d   1       2.780   9.111   1.415  0.00  0.00     0.174 C 
ATOM      9  C   UNL d   1       4.255   8.898   1.706  0.00  0.00     0.034 C 
ENDBRANCH   7   8
ENDBRANCH   5   7
ENDBRANCH   1   5
BRANCH   2  10
ATOM     10  N   UNL d   1       1.298   3.424  -0.058  0.00  0.00    -0.363 N 
ATOM     11  H   UNL d   1       2.098   2.881  -0.395  0.00  0.00     0.165 HD
BRANCH  10  12
ATOM     12  C   UNL d   1       0.104   2.761  -0.020  0.00  0.00     0.056 A 
ATOM     13  C   UNL d   1      -0.015   1.379   0.015  0.00  0.00     0.107 A 
ATOM     14  S   UNL d   1      -1.659   0.903  -0.005  0.00  0.00    -0.086 SA
ATOM     15  C   UNL d   1      -2.244   2.514  -0.009  0.00  0.00    -0.007 A 
ATOM     16  C   UNL d   1      -1.180   3.402  -0.016  0.00  0.00     0.046 A 
BRANCH  13  17
ATOM     17  C   UNL d   1       0.960   0.301   0.066  0.00  0.00     0.302 C 
ATOM     18  O   UNL d   1       0.701  -0.895   0.160  0.00  0.00    -0.259 OA
BRANCH  17  19
ATOM     19  O   UNL d   1       2.241   0.782  -0.003  0.00  0.00    -0.322 OA
ATOM     20  C   UNL d   1       3.225  -0.251   0.119  0.00  0.00     0.213 C 
ENDBRANCH  17  19
ENDBRANCH  13  17
BRANCH  15  21
ATOM     21  C   UNL d   1      -3.756   2.778  -0.002  0.00  0.00    -0.018 C 
ATOM     22  C   UNL d   1      -4.399   2.166   1.261  0.00  0.00     0.020 C 
ATOM     23  C   UNL d   1      -4.061   4.289   0.002  0.00  0.00     0.020 C 
ATOM     24  C   UNL d   1      -4.418   2.170  -1.257  0.00  0.00     0.020 C 
ENDBRANCH  15  21
ENDBRANCH  10  12
ENDBRANCH   2  10
TORSDOF 8
