REMARK  5 active torsions:
REMARK  status: ('A' for Active; 'I' for Inactive)
REMARK    1  A    between atoms: N_7  and  C_1 
REMARK    2  A    between atoms: C_18  and  N_4 
REMARK    3  A    between atoms: N_6  and  C_14 
REMARK    4  A    between atoms: C_19  and  C_9 
REMARK    5  A    between atoms: C_12  and  C_16 
ROOT
ATOM      1  N   UNL d   1      -0.488  -2.653  -0.267  0.00  0.00    -0.357 N 
ATOM      2  HN  UNL d   1      -1.368  -2.911  -0.714  1.00  0.00     0.165 HD
ATOM      3  C   UNL d   1       0.363  -3.543   0.141  0.00  0.00     0.125 C 
ENDROOT
BRANCH   1   4
ATOM      4  C   UNL d   1      -0.132  -1.344  -0.060  0.00  0.00     0.121 A 
ATOM      5  C   UNL d   1       1.234  -0.745  -0.245  0.00  0.00     0.291 A 
ATOM      6  N   UNL d   1       1.112   0.625   0.012  0.00  0.00    -0.234 N 
ATOM      7  O   UNL d   1       2.223  -1.403  -0.533  0.00  0.00    -0.264 OA
ATOM      8  N   UNL d   1      -0.250   0.923   0.338  0.00  0.00    -0.193 NA
ATOM      9  C   UNL d   1      -0.939  -0.297   0.199  0.00  0.00     0.037 A 
ATOM     10  C   UNL d   1      -0.788   2.184  -0.185  0.00  0.00     0.143 C 
ATOM     11  C   UNL d   1      -2.428  -0.428   0.281  0.00  0.00     0.066 C 
BRANCH   6  12
ATOM     12  C   UNL d   1       2.171   1.565   0.016  0.00  0.00     0.055 A 
ATOM     13  C   UNL d   1       3.307   1.339  -0.778  0.00  0.00     0.031 A 
ATOM     14  C   UNL d   1       4.354   2.263  -0.830  0.00  0.00     0.002 A 
ATOM     15  C   UNL d   1       4.288   3.427  -0.074  0.00  0.00     0.000 A 
ATOM     16  C   UNL d   1       3.182   3.658   0.742  0.00  0.00     0.002 A 
ATOM     17  C   UNL d   1       2.134   2.730   0.790  0.00  0.00     0.031 A 
ENDBRANCH   6  12
ENDBRANCH   1   4
BRANCH   3  18
ATOM     18  C   UNL d   1       0.112  -4.944  -0.062  0.00  0.00     0.091 A 
ATOM     19  O   UNL d   1       1.062  -5.847   0.336  0.00  0.00    -0.309 OA
ATOM     20  C   UNL d   1       0.603  -7.100   0.028  0.00  0.00     0.086 A 
ATOM     21  C   UNL d   1      -0.645  -6.993  -0.556  0.00  0.00     0.041 A 
ATOM     22  C   UNL d   1      -0.958  -5.616  -0.614  0.00  0.00     0.041 A 
BRANCH  20  23
ATOM     23  C   UNL d   1       1.466  -8.232   0.372  0.00  0.00    -0.002 A 
ATOM     24  C   UNL d   1       2.770  -8.050   0.862  0.00  0.00     0.017 A 
ATOM     25  C   UNL d   1       3.577  -9.144   1.202  0.00  0.00     0.037 A 
ATOM     26  C   UNL d   1       3.079 -10.443   1.048  0.00  0.00     0.102 A 
ATOM     27  C   UNL d   1       1.789 -10.649   0.553  0.00  0.00     0.037 A 
ATOM     28  C   UNL d   1       0.995  -9.547   0.217  0.00  0.00     0.017 A 
BRANCH  26  29
ATOM     29  N   UNL d   1       3.910 -11.599   1.411  0.00  0.00    -0.116 N 
ATOM     30  O   UNL d   1       5.040 -11.376   1.869  0.00  0.00    -0.532 OA
ATOM     31  O   UNL d   1       3.433 -12.728   1.239  0.00  0.00    -0.532 OA
ENDBRANCH  26  29
ENDBRANCH  20  23
ENDBRANCH   3  18
TORSDOF 5
