REMARK  3 active torsions:
REMARK  status: ('A' for Active; 'I' for Inactive)
REMARK    1  A    between atoms: C_2  and  N_1 
REMARK    2  A    between atoms: O_12  and  C_3 
REMARK    3  A    between atoms: O_13  and  C_4 
ROOT
ATOM      1  C   UNL d   1       0.274   0.683   0.929  0.00  0.00     0.203 A 
ATOM      2  C   UNL d   1       0.670   1.980   1.187  0.00  0.00     0.179 A 
ATOM      3  C   UNL d   1      -0.757   0.195   1.704  0.00  0.00     0.179 A 
ATOM      4  N   UNL d   1      -1.351   0.923   2.665  0.00  0.00    -0.331 N 
ATOM      5  HN  UNL d   1      -2.108   0.545   3.234  1.00  0.00     0.168 HD
ATOM      6  N   UNL d   1       0.093   2.739   2.136  0.00  0.00    -0.331 N 
ATOM      7  HN  UNL d   1       0.393   3.698   2.312  1.00  0.00     0.168 HD
ATOM      8  C   UNL d   1      -0.895   2.170   2.836  0.00  0.00     0.184 A 
ENDROOT
BRANCH   1   9
ATOM      9  N   UNL d   1       0.903  -0.112  -0.090  0.00  0.00    -0.107 N 
ATOM     10  O   UNL d   1       1.852   0.388  -0.712  0.00  0.00    -0.531 OA
ATOM     11  O   UNL d   1       0.459  -1.254  -0.288  0.00  0.00    -0.531 OA
ENDBRANCH   1   9
BRANCH   2  12
ATOM     12  O   UNL d   1       1.667   2.643   0.533  0.00  0.00    -0.344 OA
ATOM     13  H   UNL d   1       2.097   2.057  -0.120  0.00  0.00     0.219 HD
ENDBRANCH   2  12
BRANCH   3  14
ATOM     14  O   UNL d   1      -1.296  -1.056   1.598  0.00  0.00    -0.344 OA
ATOM     15  H   UNL d   1      -0.879  -1.547   0.863  0.00  0.00     0.219 HD
ENDBRANCH   3  14
TORSDOF 3
