REMARK  5 active torsions:
REMARK  status: ('A' for Active; 'I' for Inactive)
REMARK    1  A    between atoms: N_18  and  C_6 
REMARK    2  A    between atoms: N_13  and  C_21 
REMARK    3  A    between atoms: C_23  and  N_18 
REMARK    4  A    between atoms: C_21  and  C_22 
REMARK    5  A    between atoms: C_22  and  C_23 
ROOT
ATOM      1  C   UNL d   1       1.143   0.619  -0.027  0.00  0.00     0.089 A 
ATOM      2  C   UNL d   1       0.601  -0.663   0.009  0.00  0.00     0.043 A 
ATOM      3  S   UNL d   1      -0.011   1.864  -0.016  0.00  0.00    -0.075 SA
ATOM      4  C   UNL d   1      -0.854  -0.570   0.012  0.00  0.00    -0.029 A 
ATOM      5  C   UNL d   1      -1.284   0.749   0.026  0.00  0.00    -0.008 A 
ATOM      6  C   UNL d   1       1.555  -1.717   0.040  0.00  0.00     0.094 A 
ATOM      7  N   UNL d   1       2.441   0.961  -0.056  0.00  0.00    -0.346 N 
ATOM      8  HN  UNL d   1       2.775   1.925  -0.073  1.00  0.00     0.167 HD
ATOM      9  N   UNL d   1       2.871  -1.377  -0.018  0.00  0.00    -0.342 N 
ATOM     10  HN  UNL d   1       3.582  -2.108  -0.029  1.00  0.00     0.167 HD
ATOM     11  C   UNL d   1       3.239  -0.095  -0.059  0.00  0.00     0.182 A 
ATOM     12  C   UNL d   1      -1.857  -1.695   0.025  0.00  0.00     0.041 C 
ATOM     13  C   UNL d   1      -2.704   1.222   0.036  0.00  0.00     0.047 C 
ATOM     14  C   UNL d   1      -3.291  -1.211  -0.280  0.00  0.00     0.005 C 
ATOM     15  C   UNL d   1      -3.636   0.088   0.461  0.00  0.00     0.005 C 
ENDROOT
BRANCH   6  16
ATOM     16  N   UNL d   1       1.258  -3.099   0.153  0.00  0.00    -0.278 NA
ATOM     17  H   UNL d   1       0.356  -3.245   0.591  0.00  0.00     0.129 HD
BRANCH  16  18
ATOM     18  C   UNL d   1       2.379  -3.823   0.764  0.00  0.00     0.095 C 
BRANCH  18  19
ATOM     19  C   UNL d   1       2.163  -5.331   0.860  0.00  0.00     0.035 C 
BRANCH  19  20
ATOM     20  C   UNL d   1       3.383  -5.940   1.568  0.00  0.00     0.130 C 
BRANCH  20  21
ATOM     21  N   UNL d   1       3.330  -7.379   1.696  0.00  0.00    -0.352 N 
ATOM     22  C   UNL d   1       2.833  -8.069   2.764  0.00  0.00     0.182 A 
ATOM     23  N   UNL d   1       2.988  -9.365   2.611  0.00  0.00    -0.361 N 
ATOM     24  C   UNL d   1       3.634  -9.512   1.411  0.00  0.00     0.106 A 
ATOM     25  HN  UNL d   1       2.691 -10.103   3.249  1.00  0.00     0.166 HD
ATOM     26  C   UNL d   1       3.870  -8.289   0.830  0.00  0.00     0.108 A 
ENDBRANCH  20  21
ENDBRANCH  19  20
ENDBRANCH  18  19
ENDBRANCH  16  18
ENDBRANCH   6  16
TORSDOF 5
