REMARK  3 active torsions:
REMARK  status: ('A' for Active; 'I' for Inactive)
REMARK    1  A    between atoms: C_10  and  N_1 
REMARK    2  A    between atoms: N_9  and  C_2 
REMARK    3  A    between atoms: N_7  and  C_11 
ROOT
ATOM      1  N   UNL d   1      -1.315   1.449   0.288  0.00  0.00    -0.247 N 
ATOM      2  C   UNL d   1       0.133   1.151   0.206  0.00  0.00     0.147 C 
ATOM      3  N   UNL d   1      -1.992   0.528  -0.573  0.00  0.00    -0.242 N 
ATOM      4  HN  UNL d   1      -2.934   0.653  -0.946  1.00  0.00     0.208 HD
ATOM      5  N   UNL d   1      -1.240  -0.468  -0.800  0.00  0.00    -0.313 N 
ATOM      6  HN  UNL d   1      -1.376  -1.187  -1.511  1.00  0.00     0.182 HD
ATOM      7  C   UNL d   1      -0.154  -0.381   0.147  0.00  0.00     0.151 C 
ATOM      8  C   UNL d   1       1.000   0.950   1.480  0.00  0.00     0.058 C 
ATOM      9  C   UNL d   1       1.166  -1.072   0.033  0.00  0.00     0.031 C 
ATOM     10  C   UNL d   1       1.977  -0.209   1.036  0.00  0.00     0.007 C 
ENDROOT
BRANCH   1  11
ATOM     11  C   UNL d   1      -1.957   2.687   0.232  0.00  0.00     0.055 A 
ATOM     12  C   UNL d   1      -1.629   3.705  -0.667  0.00  0.00     0.034 A 
ATOM     13  C   UNL d   1      -2.450   4.811  -0.893  0.00  0.00     0.038 A 
ATOM     14  C   UNL d   1      -3.662   4.918  -0.214  0.00  0.00     0.103 A 
ATOM     15  C   UNL d   1      -4.018   3.947   0.726  0.00  0.00     0.038 A 
ATOM     16  C   UNL d   1      -3.168   2.849   0.941  0.00  0.00     0.034 A 
BRANCH  14  17
ATOM     17  N   UNL d   1      -4.580   6.011  -0.553  0.00  0.00    -0.116 N 
ATOM     18  O   UNL d   1      -4.269   6.758  -1.489  0.00  0.00    -0.532 OA
ATOM     19  O   UNL d   1      -5.620   6.115   0.117  0.00  0.00    -0.532 OA
ENDBRANCH  14  17
ENDBRANCH   1  11
BRANCH   2  20
ATOM     20  N   UNL d   1       1.069   1.653  -0.846  0.00  0.00    -0.380 N 
ATOM     21  C   UNL d   1       0.681   1.482  -2.249  0.00  0.00     0.145 C 
ATOM     22  C   UNL d   1       1.852   1.802  -3.197  0.00  0.00     0.187 C 
ATOM     23  O   UNL d   1       2.425   3.088  -2.933  0.00  0.00    -0.388 OA
ATOM     24  C   UNL d   1       2.897   3.144  -1.584  0.00  0.00     0.187 C 
ATOM     25  C   UNL d   1       1.738   2.939  -0.600  0.00  0.00     0.145 C 
ENDBRANCH   2  20
TORSDOF 3
