REMARK  7 active torsions:
REMARK  status: ('A' for Active; 'I' for Inactive)
REMARK    1  A    between atoms: C_2  and  C_1 
REMARK       I    between atoms: N_5  and  C_1 
REMARK    2  A    between atoms: C_8  and  C_3 
REMARK    3  A    between atoms: C_12  and  N_5 
REMARK    4  A    between atoms: C_6  and  C_8 
REMARK    5  A    between atoms: C_7  and  C_6 
REMARK    6  A    between atoms: O_17  and  C_7 
REMARK    7  A    between atoms: S_18  and  C_16 
ROOT
ATOM      1  C   UNL d   1       0.150  -0.134   1.278  0.00  0.00     0.044 A 
ATOM      2  C   UNL d   1       0.603   1.033   1.978  0.00  0.00    -0.040 A 
ATOM      3  C   UNL d   1      -0.905  -0.904   1.851  0.00  0.00    -0.045 A 
ATOM      4  C   UNL d   1       0.004   1.381   3.211  0.00  0.00     0.015 A 
ATOM      5  C   UNL d   1      -1.472  -0.491   3.081  0.00  0.00     0.014 A 
ATOM      6  C   UNL d   1      -1.038   0.641   3.760  0.00  0.00    -0.061 A 
ATOM      7  C   UNL d   1      -1.613  -2.101   1.268  0.00  0.00     0.049 C 
ATOM      8  C   UNL d   1      -1.690   1.072   5.040  0.00  0.00     0.048 C 
ENDROOT
BRANCH   1   9
ATOM      9  C   UNL d   1       0.767  -0.454  -0.068  0.00  0.00     0.257 C 
ATOM     10  N   UNL d   1       0.870  -1.774  -0.448  0.00  0.00    -0.323 N 
ATOM     11  H   UNL d   1       0.742  -2.471   0.274  0.00  0.00     0.169 HD
ATOM     12  O   UNL d   1       1.194   0.470  -0.760  0.00  0.00    -0.267 OA
BRANCH  10  13
ATOM     13  C   UNL d   1       1.207  -2.265  -1.735  0.00  0.00     0.036 A 
ATOM     14  C   UNL d   1       1.444  -1.449  -2.851  0.00  0.00     0.048 A 
ATOM     15  C   UNL d   1       1.817  -1.993  -4.089  0.00  0.00     0.002 A 
ATOM     16  C   UNL d   1       1.895  -3.383  -4.218  0.00  0.00     0.018 A 
ATOM     17  C   UNL d   1       1.617  -4.209  -3.129  0.00  0.00     0.004 A 
ATOM     18  C   UNL d   1       1.276  -3.651  -1.896  0.00  0.00     0.029 A 
BRANCH  15  19
ATOM     19  S   UNL d   1       2.160  -1.003  -5.543  0.00  0.00    -0.134 SA
ATOM     20  C   UNL d   1       2.776   0.544  -4.820  0.00  0.00     0.095 C 
ENDBRANCH  15  19
ENDBRANCH  10  13
ENDBRANCH   1   9
BRANCH   2  21
ATOM     21  C   UNL d   1       1.773   1.916   1.549  0.00  0.00     0.059 C 
BRANCH  21  22
ATOM     22  C   UNL d   1       1.540   3.282   0.823  0.00  0.00     0.042 C 
ATOM     23  C   UNL d   1       2.938   3.803   0.415  0.00  0.00     0.026 C 
ATOM     24  C   UNL d   1       0.718   3.221  -0.476  0.00  0.00     0.026 C 
BRANCH  22  25
ATOM     25  C   UNL d   1       0.767   4.245   1.745  0.00  0.00     0.148 C 
ATOM     26  O   UNL d   1      -0.437   4.179   1.943  0.00  0.00    -0.649 OA
BRANCH  25  27
ATOM     27  O   UNL d   1       1.500   5.194   2.370  0.00  0.00    -0.776 OA
ATOM     28  H   UNL d   1       2.446   5.235   2.158  0.00  0.00     0.167 HD
ENDBRANCH  25  27
ENDBRANCH  22  25
ENDBRANCH  21  22
ENDBRANCH   2  21
TORSDOF 7
