REMARK  3 active torsions:
REMARK  status: ('A' for Active; 'I' for Inactive)
REMARK    1  A    between atoms: C_3  and  C_1 
REMARK    2  A    between atoms: C_9  and  C_2 
REMARK    3  A    between atoms: C_15  and  C_6 
ROOT
ATOM      1  C   UNL d   1      -0.021  -1.277   0.001  0.00  0.00     0.078 A 
ATOM      2  C   UNL d   1      -1.361  -0.797   0.033  0.00  0.00     0.087 A 
ATOM      3  N   UNL d   1      -1.351   0.539   0.215  0.00  0.00    -0.259 N 
ATOM      4  HN  UNL d   1      -2.166   1.146   0.302  1.00  0.00     0.195 HD
ATOM      5  O   UNL d   1      -0.031   0.927   0.261  0.00  0.00    -0.241 OA
ATOM      6  C   UNL d   1       0.772  -0.162   0.142  0.00  0.00     0.089 A 
ATOM      7  C   UNL d   1       2.224   0.085   0.145  0.00  0.00     0.080 C 
ENDROOT
BRANCH   1   8
ATOM      8  C   UNL d   1       0.505  -2.651  -0.160  0.00  0.00     0.187 A 
ATOM      9  N   UNL d   1      -0.175  -3.656  -0.668  0.00  0.00    -0.317 N 
ATOM     10  C   UNL d   1       0.716  -4.708  -0.601  0.00  0.00     0.154 A 
ATOM     11  HN  UNL d   1      -1.130  -3.658  -1.026  1.00  0.00     0.169 HD
ATOM     12  N   UNL d   1       1.892  -4.384  -0.036  0.00  0.00    -0.241 N 
ATOM     13  O   UNL d   1       1.767  -3.026   0.223  0.00  0.00    -0.217 OA
ATOM     14  HN  UNL d   1       2.688  -4.992   0.157  1.00  0.00     0.196 HD
BRANCH  10  15
ATOM     15  C   UNL d   1       0.420  -6.035  -1.157  0.00  0.00     0.078 A 
ATOM     16  N   UNL d   1      -0.669  -6.130  -1.964  0.00  0.00    -0.363 N 
ATOM     17  C   UNL d   1      -0.909  -7.323  -2.546  0.00  0.00     0.088 A 
ATOM     18  HN  UNL d   1      -1.281  -5.330  -2.125  1.00  0.00     0.165 HD
ATOM     19  C   UNL d   1      -0.121  -8.445  -2.358  0.00  0.00     0.017 A 
ATOM     20  C   UNL d   1       0.980  -8.341  -1.516  0.00  0.00     0.004 A 
ATOM     21  C   UNL d   1       1.259  -7.120  -0.906  0.00  0.00     0.033 A 
ENDBRANCH  10  15
ENDBRANCH   1   8
BRANCH   2  22
ATOM     22  C   UNL d   1      -2.623  -1.541  -0.005  0.00  0.00     0.054 A 
ATOM     23  C   UNL d   1      -3.746  -1.134  -0.749  0.00  0.00     0.049 A 
ATOM     24 CL   UNL d   1      -3.778   0.302  -1.718  0.00  0.00    -0.083 Cl
ATOM     25  C   UNL d   1      -4.919  -1.906  -0.753  0.00  0.00     0.025 A 
ATOM     26  C   UNL d   1      -4.987  -3.104  -0.043  0.00  0.00     0.005 A 
ATOM     27  C   UNL d   1      -3.894  -3.511   0.708  0.00  0.00     0.043 A 
ATOM     28  C   UNL d   1      -2.747  -2.723   0.748  0.00  0.00     0.130 A 
ATOM     29  F   UNL d   1      -1.756  -3.116   1.560  0.00  0.00    -0.205 F 
ENDBRANCH   2  22
TORSDOF 3
