REMARK  3 active torsions:
REMARK  status: ('A' for Active; 'I' for Inactive)
REMARK    1  A    between atoms: O_2  and  C_1 
REMARK    2  A    between atoms: C_6  and  C_1 
REMARK    3  A    between atoms: C_3  and  O_2 
ROOT
ATOM      1  C   UNL d   1       0.761   0.061   0.138  0.00  0.00     0.298 C 
ATOM      2  O   UNL d   1       1.965  -0.023   0.301  0.00  0.00    -0.259 OA
ENDROOT
BRANCH   1   3
ATOM      3  O   UNL d   1      -0.226  -0.211   1.065  0.00  0.00    -0.273 OA
BRANCH   3   4
ATOM      4  C   UNL d   1       0.130  -0.070   2.414  0.00  0.00     0.101 A 
ATOM      5  C   UNL d   1       0.435   1.183   2.967  0.00  0.00     0.069 A 
ATOM      6  C   UNL d   1       0.598   1.304   4.346  0.00  0.00     0.050 A 
ATOM      7 CL   UNL d   1       0.524   2.618   2.012  0.00  0.00    -0.081 Cl
ATOM      8  C   UNL d   1       0.427   0.186   5.160  0.00  0.00     0.035 A 
ATOM      9  C   UNL d   1       0.113  -1.059   4.611  0.00  0.00     0.026 A 
ATOM     10 CL   UNL d   1       0.560   0.353   6.868  0.00  0.00    -0.084 Cl
ATOM     11  C   UNL d   1      -0.038  -1.190   3.230  0.00  0.00     0.041 A 
ENDBRANCH   3   4
ENDBRANCH   1   3
BRANCH   1  12
ATOM     12  C   UNL d   1       0.096   0.582  -1.098  0.00  0.00     0.040 A 
ATOM     13  C   UNL d   1       0.898   1.081  -2.133  0.00  0.00     0.019 A 
ATOM     14  C   UNL d   1       0.309   1.678  -3.253  0.00  0.00     0.025 A 
ATOM     15  C   UNL d   1      -1.080   1.776  -3.342  0.00  0.00     0.034 A 
ATOM     16  C   UNL d   1      -1.888   1.266  -2.330  0.00  0.00     0.025 A 
ATOM     17 CL   UNL d   1      -1.803   2.546  -4.699  0.00  0.00    -0.084 Cl
ATOM     18  C   UNL d   1      -1.303   0.667  -1.211  0.00  0.00     0.019 A 
ENDBRANCH   1  12
TORSDOF 3
