REMARK  7 active torsions:
REMARK  status: ('A' for Active; 'I' for Inactive)
REMARK    1  A    between atoms: N_2  and  S_1 
REMARK    2  A    between atoms: C_4  and  S_1 
REMARK    3  A    between atoms: C_3  and  N_2 
REMARK    4  A    between atoms: C_13  and  N_2 
REMARK    5  A    between atoms: C_7  and  C_3 
REMARK    6  A    between atoms: O_14  and  C_7 
REMARK    7  A    between atoms: C_11  and  C_13 
ROOT
ATOM      1  S   UNL d   1       1.008   0.098   0.004  0.00  0.00     0.244 S 
ATOM      2  O   UNL d   1      -0.064   1.008   0.344  0.00  0.00    -0.206 OA
ATOM      3  O   UNL d   1       2.333   0.596  -0.305  0.00  0.00    -0.206 OA
ENDROOT
BRANCH   1   4
ATOM      4  N   UNL d   1       0.447  -0.903  -1.285  0.00  0.00    -0.194 NA
BRANCH   4   5
ATOM      5  C   UNL d   1      -1.049  -1.037  -1.264  0.00  0.00     0.218 C 
BRANCH   5   6
ATOM      6  C   UNL d   1      -1.639  -1.955  -2.310  0.00  0.00     0.272 C 
ATOM      7  O   UNL d   1      -2.252  -1.558  -3.293  0.00  0.00    -0.264 OA
BRANCH   6   8
ATOM      8  O   UNL d   1      -1.367  -3.260  -2.031  0.00  0.00    -0.326 OA
ATOM      9  C   UNL d   1      -1.866  -4.192  -2.996  0.00  0.00     0.213 C 
ENDBRANCH   6   8
ENDBRANCH   5   6
ENDBRANCH   4   5
BRANCH   4  10
ATOM     10  C   UNL d   1       0.948  -0.498  -2.626  0.00  0.00     0.134 C 
BRANCH  10  11
ATOM     11  C   UNL d   1       2.400  -0.838  -2.784  0.00  0.00    -0.022 C 
ATOM     12  C   UNL d   1       2.963  -2.035  -2.570  0.00  0.00     0.008 C 
ENDBRANCH  10  11
ENDBRANCH   4  10
ENDBRANCH   1   4
BRANCH   1  13
ATOM     13  C   UNL d   1       1.217  -0.989   1.396  0.00  0.00     0.074 A 
ATOM     14  C   UNL d   1       0.918  -2.351   1.345  0.00  0.00     0.025 A 
ATOM     15  C   UNL d   1       1.137  -3.143   2.478  0.00  0.00     0.008 A 
ATOM     16  C   UNL d   1       1.675  -2.589   3.649  0.00  0.00    -0.062 A 
ATOM     17  C   UNL d   1       1.981  -1.224   3.682  0.00  0.00     0.008 A 
ATOM     18  C   UNL d   1       1.910  -3.453   4.854  0.00  0.00     0.048 C 
ATOM     19  C   UNL d   1       1.754  -0.427   2.560  0.00  0.00     0.025 A 
ENDBRANCH   1  13
TORSDOF 7
