REMARK  17 active torsions:
REMARK  status: ('A' for Active; 'I' for Inactive)
REMARK       I    between atoms: C_8  and  N_1 
REMARK    1  A    between atoms: C_3  and  C_2 
REMARK    2  A    between atoms: C_3  and  O_12 
REMARK    3  A    between atoms: C_3  and  C_4 
REMARK    4  A    between atoms: C_7  and  C_4 
REMARK    5  A    between atoms: C_4  and  O_13 
REMARK    6  A    between atoms: C_5  and  C_11 
REMARK    7  A    between atoms: C_9  and  C_7 
REMARK    8  A    between atoms: C_7  and  O_14 
REMARK    9  A    between atoms: C_9  and  O_15 
REMARK   10  A    between atoms: C_21  and  C_9 
REMARK   11  A    between atoms: O_30  and  C_11 
REMARK   12  A    between atoms: C_16  and  O_12 
REMARK   13  A    between atoms: C_17  and  O_13 
REMARK   14  A    between atoms: C_18  and  O_14 
REMARK   15  A    between atoms: C_19  and  O_15 
REMARK   16  A    between atoms: C_20  and  O_24 
REMARK   17  A    between atoms: O_24  and  C_21 
ROOT
ATOM      1  C   UNL d   1      -0.160  -1.324  -0.326  0.00  0.00     0.196 C 
ENDROOT
BRANCH   1   2
ATOM      2  C   UNL d   1       1.273  -1.621   0.243  0.00  0.00     0.195 C 
BRANCH   2   3
ATOM      3  C   UNL d   1       1.737  -3.104   0.141  0.00  0.00     0.188 C 
BRANCH   3   4
ATOM      4  O   UNL d   1       1.852  -3.598  -1.222  0.00  0.00    -0.311 OA
BRANCH   4   5
ATOM      5  C   UNL d   1       2.932  -3.288  -1.989  0.00  0.00     0.255 C 
ATOM      6  O   UNL d   1       3.845  -2.533  -1.686  0.00  0.00    -0.266 OA
ATOM      7  C   UNL d   1       2.904  -4.076  -3.263  0.00  0.00     0.126 C 
ENDBRANCH   4   5
ENDBRANCH   3   4
BRANCH   3   8
ATOM      8  C   UNL d   1       3.006  -3.389   0.979  0.00  0.00     0.213 C 
BRANCH   8   9
ATOM      9  O   UNL d   1       3.371  -4.787   0.910  0.00  0.00    -0.319 OA
BRANCH   9  10
ATOM     10  C   UNL d   1       2.736  -5.610   1.784  0.00  0.00     0.254 C 
ATOM     11  O   UNL d   1       1.867  -5.262   2.572  0.00  0.00    -0.266 OA
ATOM     12  C   UNL d   1       3.236  -7.019   1.660  0.00  0.00     0.126 C 
ENDBRANCH   9  10
ENDBRANCH   8   9
ENDBRANCH   3   8
ENDBRANCH   2   3
BRANCH   2  13
ATOM     13  O   UNL d   1       2.282  -0.767  -0.328  0.00  0.00    -0.311 OA
BRANCH  13  14
ATOM     14  C   UNL d   1       2.421   0.471   0.212  0.00  0.00     0.255 C 
ATOM     15  O   UNL d   1       1.695   0.954   1.066  0.00  0.00    -0.266 OA
ATOM     16  C   UNL d   1       3.625   1.158  -0.354  0.00  0.00     0.126 C 
ENDBRANCH  13  14
ENDBRANCH   2  13
ENDBRANCH   1   2
BRANCH   1  17
ATOM     17  O   UNL d   1      -1.126  -2.263   0.214  0.00  0.00    -0.311 OA
BRANCH  17  18
ATOM     18  C   UNL d   1      -1.508  -2.039   1.506  0.00  0.00     0.255 C 
ATOM     19  O   UNL d   1      -1.002  -1.221   2.258  0.00  0.00    -0.266 OA
ATOM     20  C   UNL d   1      -2.671  -2.904   1.873  0.00  0.00     0.126 C 
ENDBRANCH  17  18
ENDBRANCH   1  17
BRANCH   1  21
ATOM     21  C   UNL d   1      -0.290  -1.311  -1.885  0.00  0.00     0.197 C 
BRANCH  21  22
ATOM     22  O   UNL d   1       0.538  -0.294  -2.515  0.00  0.00    -0.311 OA
BRANCH  22  23
ATOM     23  C   UNL d   1       0.393   1.024  -2.238  0.00  0.00     0.255 C 
ATOM     24  O   UNL d   1      -0.435   1.507  -1.483  0.00  0.00    -0.266 OA
ATOM     25  C   UNL d   1       1.381   1.862  -2.989  0.00  0.00     0.126 C 
ENDBRANCH  22  23
ENDBRANCH  21  22
BRANCH  21  26
ATOM     26  C   UNL d   1      -1.766  -1.407  -2.443  0.00  0.00     0.182 C 
ATOM     27  N   UNL d   1      -1.883  -1.461  -3.906  0.00  0.00    -0.322 N 
ATOM     28  C   UNL d   1      -2.206  -0.176  -4.553  0.00  0.00     0.197 C 
ATOM     29  C   UNL d   1      -1.847  -2.572  -4.725  0.00  0.00     0.217 C 
ATOM     30  C   UNL d   1      -2.822   0.781  -3.536  0.00  0.00     0.111 C 
ATOM     31  S   UNL d   1      -2.945  -0.111  -1.961  0.00  0.00    -0.138 SA
ATOM     32  O   UNL d   1      -1.950  -2.469  -5.947  0.00  0.00    -0.274 OA
ATOM     33  C   UNL d   1      -1.709  -3.947  -4.128  0.00  0.00     0.117 C 
BRANCH  28  34
ATOM     34  C   UNL d   1      -0.973   0.418  -5.252  0.00  0.00     0.282 C 
ATOM     35  O   UNL d   1       0.152  -0.067  -5.231  0.00  0.00    -0.263 OA
BRANCH  34  36
ATOM     36  O   UNL d   1      -1.301   1.565  -5.913  0.00  0.00    -0.325 OA
ATOM     37  C   UNL d   1      -0.248   2.175  -6.670  0.00  0.00     0.213 C 
ENDBRANCH  34  36
ENDBRANCH  28  34
ENDBRANCH  21  26
ENDBRANCH   1  21
TORSDOF 17
