REMARK  4 active torsions:
REMARK  status: ('A' for Active; 'I' for Inactive)
REMARK    1  A    between atoms: C_2  and  C_1 
REMARK       I    between atoms: N_3  and  C_2 
REMARK    2  A    between atoms: C_7  and  N_5 
REMARK    3  A    between atoms: C_14  and  C_7 
REMARK    4  A    between atoms: C_15  and  C_7 
ROOT
ATOM      1  C   UNL d   1       2.386  -1.923   0.184  0.00  0.00     0.257 C 
ATOM      2  N   UNL d   1       2.420  -3.279  -0.152  0.00  0.00    -0.345 N 
ATOM      3  N   UNL d   1       2.215  -6.229  -0.467  0.00  0.00     0.105 N 
ATOM      4  O   UNL d   1       3.027  -1.468   1.133  0.00  0.00    -0.267 OA
ATOM      5  C   UNL d   1       1.802  -3.899  -1.327  0.00  0.00     0.156 C 
ATOM      6  C   UNL d   1       3.401  -4.148   0.519  0.00  0.00     0.156 C 
ATOM      7  C   UNL d   1       1.199  -5.252  -0.923  0.00  0.00     0.293 C 
ATOM      8  C   UNL d   1       2.902  -5.609   0.704  0.00  0.00     0.293 C 
ENDROOT
BRANCH   3   9
ATOM      9  C   UNL d   1       3.170  -6.602  -1.556  0.00  0.00     0.289 C 
BRANCH   9  10
ATOM     10  C   UNL d   1       4.203  -7.641  -1.121  0.00  0.00    -0.021 A 
ATOM     11  C   UNL d   1       3.820  -8.906  -0.646  0.00  0.00     0.010 A 
ATOM     12  C   UNL d   1       4.784  -9.849  -0.285  0.00  0.00     0.001 A 
ATOM     13  C   UNL d   1       6.138  -9.534  -0.384  0.00  0.00     0.000 A 
ATOM     14  C   UNL d   1       6.531  -8.279  -0.843  0.00  0.00     0.001 A 
ATOM     15  C   UNL d   1       5.573  -7.339  -1.212  0.00  0.00     0.010 A 
ENDBRANCH   9  10
BRANCH   9  16
ATOM     16  C   UNL d   1       2.496  -7.043  -2.869  0.00  0.00    -0.021 A 
ATOM     17  C   UNL d   1       3.070  -6.672  -4.098  0.00  0.00     0.010 A 
ATOM     18  C   UNL d   1       2.461  -7.016  -5.307  0.00  0.00     0.001 A 
ATOM     19  C   UNL d   1       1.270  -7.737  -5.308  0.00  0.00     0.000 A 
ATOM     20  C   UNL d   1       0.699  -8.137  -4.102  0.00  0.00     0.001 A 
ATOM     21  C   UNL d   1       1.317  -7.811  -2.893  0.00  0.00     0.010 A 
ENDBRANCH   9  16
ENDBRANCH   3   9
BRANCH   1  22
ATOM     22  C   UNL d   1       1.582  -0.969  -0.621  0.00  0.00     0.070 A 
ATOM     23  C   UNL d   1       2.161   0.239  -1.024  0.00  0.00     0.135 A 
ATOM     24  C   UNL d   1       1.481   1.114  -1.868  0.00  0.00     0.085 A 
ATOM     25  F   UNL d   1       3.401   0.578  -0.639  0.00  0.00    -0.205 F 
ATOM     26  C   UNL d   1       0.220   0.763  -2.329  0.00  0.00     0.119 A 
ATOM     27  C   UNL d   1      -0.401  -0.403  -1.897  0.00  0.00     0.043 A 
ATOM     28  F   UNL d   1      -0.411   1.559  -3.202  0.00  0.00    -0.206 F 
ATOM     29  C   UNL d   1       0.257  -1.240  -0.995  0.00  0.00     0.023 A 
ENDBRANCH   1  22
TORSDOF 4
