REMARK  2 active torsions:
REMARK  status: ('A' for Active; 'I' for Inactive)
REMARK    1  A    between atoms: C_3  and  C_4 
REMARK    2  A    between atoms: C_4  and  C_7 
ROOT
ATOM      1  N   UNL d   1       2.645  -1.357  -0.936  0.00  0.00    -0.197 NA
ATOM      2  C   UNL d   1       3.458  -0.613  -0.564  0.00  0.00     0.067 C 
ATOM      3  C   UNL d   1       4.530   0.269  -0.096  0.00  0.00     0.207 C 
ENDROOT
BRANCH   3   4
ATOM      4  C   UNL d   1       4.290   0.730   1.318  0.00  0.00     0.172 C 
ATOM      5  O   UNL d   1       3.698   1.782   1.559  0.00  0.00    -0.291 OA
BRANCH   4   6
ATOM      6  C   UNL d   1       4.838  -0.065   2.461  0.00  0.00     0.011 A 
ATOM      7  C   UNL d   1       5.057  -1.446   2.374  0.00  0.00     0.022 A 
ATOM      8  C   UNL d   1       5.558  -2.157   3.476  0.00  0.00    -0.061 A 
ATOM      9  C   UNL d   1       5.775  -3.641   3.406  0.00  0.00     0.048 C 
ATOM     10  C   UNL d   1       5.847  -1.472   4.662  0.00  0.00     0.007 A 
ATOM     11  C   UNL d   1       5.626  -0.099   4.758  0.00  0.00     0.002 A 
ATOM     12  C   UNL d   1       5.117   0.603   3.663  0.00  0.00     0.015 A 
ENDBRANCH   4   6
ENDBRANCH   3   4
TORSDOF 2
