REMARK  8 active torsions:
REMARK  status: ('A' for Active; 'I' for Inactive)
REMARK    1  A    between atoms: N_5  and  C_1 
REMARK    2  A    between atoms: N_6  and  C_4 
REMARK       I    between atoms: C_8  and  N_6 
REMARK    3  A    between atoms: O_17  and  C_7 
REMARK    4  A    between atoms: C_20  and  C_8 
REMARK    5  A    between atoms: C_9  and  C_21 
REMARK    6  A    between atoms: O_16  and  C_9 
REMARK    7  A    between atoms: O_15  and  C_20 
REMARK    8  A    between atoms: C_21  and  O_15 
ROOT
ATOM      1  C   UNL d   1      -0.529   1.290   0.097  0.00  0.00     0.112 A 
ATOM      2  N   UNL d   1      -1.328   0.204   0.140  0.00  0.00    -0.326 N 
ATOM      3  HN  UNL d   1      -2.333   0.286   0.291  1.00  0.00     0.169 HD
ATOM      4  C   UNL d   1       0.872   1.184  -0.084  0.00  0.00     0.073 A 
ATOM      5  C   UNL d   1      -0.733  -1.001  -0.027  0.00  0.00     0.142 A 
ATOM      6  C   UNL d   1       1.447  -0.064  -0.275  0.00  0.00     0.037 A 
ATOM      7  C   UNL d   1       0.631  -1.184  -0.238  0.00  0.00     0.058 A 
ENDROOT
BRANCH   4   8
ATOM      8  N   UNL d   1       1.627   2.371   0.021  0.00  0.00    -0.323 N 
ATOM      9  C   UNL d   1       2.784   2.656  -0.671  0.00  0.00     0.245 C 
ATOM     10  O   UNL d   1       3.336   1.916  -1.481  0.00  0.00    -0.271 OA
ATOM     11  H   UNL d   1       1.098   3.144   0.415  0.00  0.00     0.169 HD
BRANCH   9  12
ATOM     12  C   UNL d   1       3.292   4.070  -0.397  0.00  0.00     0.271 C 
BRANCH  12  13
ATOM     13  O   UNL d   1       3.702   4.190   0.966  0.00  0.00    -0.372 OA
BRANCH  13  14
ATOM     14  C   UNL d   1       4.388   5.423   1.205  0.00  0.00     0.277 C 
BRANCH  14  15
ATOM     15  C   UNL d   1       3.393   6.502   1.601  0.00  0.00     0.164 C 
ATOM     16  O   UNL d   1       3.513   7.689   1.344  0.00  0.00    -0.648 OA
BRANCH  15  17
ATOM     17  O   UNL d   1       2.344   5.991   2.294  0.00  0.00    -0.775 OA
ATOM     18  H   UNL d   1       2.458   5.020   2.395  0.00  0.00     0.167 HD
ENDBRANCH  15  17
ENDBRANCH  14  15
ENDBRANCH  13  14
ENDBRANCH  12  13
ENDBRANCH   9  12
ENDBRANCH   4   8
BRANCH   1  19
ATOM     19  N   UNL d   1      -1.062   2.595   0.231  0.00  0.00    -0.263 NA
ATOM     20  C   UNL d   1      -2.380   2.667   0.891  0.00  0.00     0.123 C 
ATOM     21  C   UNL d   1      -2.680   4.157   1.156  0.00  0.00     0.182 C 
ATOM     22  O   UNL d   1      -2.664   4.933  -0.059  0.00  0.00    -0.389 OA
ATOM     23  C   UNL d   1      -1.406   4.799  -0.743  0.00  0.00     0.182 C 
ATOM     24  C   UNL d   1      -1.108   3.325  -1.061  0.00  0.00     0.123 C 
ENDBRANCH   1  19
BRANCH   5  25
ATOM     25  O   UNL d   1      -1.477  -2.164   0.019  0.00  0.00    -0.341 OA
ATOM     26  C   UNL d   1      -2.875  -1.932   0.134  0.00  0.00     0.211 C 
ENDBRANCH   5  25
TORSDOF 8
