REMARK  4 active torsions:
REMARK  status: ('A' for Active; 'I' for Inactive)
REMARK    1  A    between atoms: S_14  and  C_3 
REMARK    2  A    between atoms: C_6  and  C_11 
REMARK    3  A    between atoms: C_11  and  C_16 
REMARK    4  A    between atoms: C_16  and  S_14 
ROOT
ATOM      1  N   UNL d   1       0.507   1.816  -0.059  0.00  0.00    -0.303 N 
ATOM      2  C   UNL d   1      -0.439   0.827   0.029  0.00  0.00     0.259 A 
ATOM      3  C   UNL d   1       1.843   1.569   0.011  0.00  0.00     0.147 A 
ATOM      4  N   UNL d   1       2.362   0.396   0.142  0.00  0.00    -0.336 N 
ATOM      5  HN  UNL d   1       3.373   0.264   0.181  1.00  0.00     0.168 HD
ATOM      6  C   UNL d   1       0.088  -0.539   0.190  0.00  0.00     0.059 A 
ATOM      7  C   UNL d   1       1.478  -0.693   0.228  0.00  0.00     0.049 A 
ATOM      8  O   UNL d   1      -1.639   1.062  -0.023  0.00  0.00    -0.267 OA
ATOM      9  C   UNL d   1      -0.768  -1.639   0.305  0.00  0.00     0.019 A 
ATOM     10  C   UNL d   1       2.006  -1.978   0.370  0.00  0.00     0.030 A 
ATOM     11  C   UNL d   1      -0.226  -2.915   0.455  0.00  0.00     0.001 A 
ATOM     12  C   UNL d   1       1.159  -3.085   0.484  0.00  0.00     0.002 A 
ATOM     13  H   UNL d   1       0.183   2.765  -0.166  0.00  0.00     0.171 HD
ENDROOT
BRANCH   3  14
ATOM     14  S   UNL d   1       2.797   3.015  -0.091  0.00  0.00    -0.086 SA
BRANCH  14  15
ATOM     15  C   UNL d   1       4.464   2.300   0.052  0.00  0.00     0.168 C 
BRANCH  15  16
ATOM     16  C   UNL d   1       5.512   3.386  -0.090  0.00  0.00     0.192 C 
ATOM     17  O   UNL d   1       5.926   3.705  -1.208  0.00  0.00    -0.289 OA
BRANCH  16  18
ATOM     18  C   UNL d   1       5.987   4.038   1.116  0.00  0.00     0.123 A 
ATOM     19  O   UNL d   1       5.518   3.653   2.343  0.00  0.00    -0.306 OA
ATOM     20  C   UNL d   1       6.105   4.460   3.272  0.00  0.00     0.086 A 
ATOM     21  C   UNL d   1       5.881   4.415   4.646  0.00  0.00     0.038 A 
ATOM     22  C   UNL d   1       6.965   5.361   2.655  0.00  0.00     0.001 A 
ATOM     23  C   UNL d   1       6.564   5.359   5.423  0.00  0.00     0.003 A 
ATOM     24  C   UNL d   1       7.433   6.284   4.838  0.00  0.00     0.001 A 
ATOM     25  C   UNL d   1       7.651   6.294   3.453  0.00  0.00     0.014 A 
ATOM     26  C   UNL d   1       6.898   5.068   1.270  0.00  0.00     0.055 A 
ENDBRANCH  16  18
ENDBRANCH  15  16
ENDBRANCH  14  15
ENDBRANCH   3  14
TORSDOF 4
