REMARK  4 active torsions:
REMARK  status: ('A' for Active; 'I' for Inactive)
REMARK    1  A    between atoms: C_6  and  N_1 
REMARK    2  A    between atoms: C_4  and  C_8 
REMARK       I    between atoms: N_5  and  C_4 
REMARK    3  A    between atoms: C_18  and  N_5 
REMARK    4  A    between atoms: C_9  and  C_10 
ROOT
ATOM      1  C   UNL d   1       3.770   3.753  -7.619  0.00  0.00     0.045 A 
ATOM      2  C   UNL d   1       3.210   4.703  -5.000  0.00  0.00     0.032 A 
ATOM      3  C   UNL d   1       2.725   3.215  -6.847  0.00  0.00     0.031 A 
ATOM      4  C   UNL d   1       4.533   4.781  -7.030  0.00  0.00     0.031 A 
ATOM      5  C   UNL d   1       4.253   5.262  -5.738  0.00  0.00     0.019 A 
ATOM      6  C   UNL d   1       2.450   3.677  -5.559  0.00  0.00     0.019 A 
ENDROOT
BRANCH   2   7
ATOM      7  C   UNL d   1       2.951   5.055  -3.583  0.00  0.00     0.256 C 
ATOM      8  N   UNL d   1       3.106   6.387  -3.248  0.00  0.00    -0.323 N 
ATOM      9  H   UNL d   1       3.234   7.049  -4.002  0.00  0.00     0.169 HD
ATOM     10  O   UNL d   1       2.612   4.144  -2.836  0.00  0.00    -0.267 OA
BRANCH   8  11
ATOM     11  C   UNL d   1       3.082   6.921  -1.942  0.00  0.00     0.035 A 
ATOM     12  C   UNL d   1       2.998   6.140  -0.793  0.00  0.00     0.030 A 
ATOM     13  C   UNL d   1       3.088   6.720   0.476  0.00  0.00     0.010 A 
ATOM     14  C   UNL d   1       3.271   8.102   0.643  0.00  0.00    -0.051 A 
ATOM     15  C   UNL d   1       3.291   8.887  -0.520  0.00  0.00     0.010 A 
ATOM     16  C   UNL d   1       3.203   8.305  -1.795  0.00  0.00     0.030 A 
BRANCH  14  17
ATOM     17  C   UNL d   1       3.494   8.673   2.052  0.00  0.00    -0.024 C 
ATOM     18  C   UNL d   1       3.710  10.201   2.078  0.00  0.00     0.019 C 
ATOM     19  C   UNL d   1       2.284   8.360   2.957  0.00  0.00     0.019 C 
ATOM     20  C   UNL d   1       4.760   8.024   2.658  0.00  0.00     0.019 C 
ENDBRANCH  14  17
ENDBRANCH   8  11
ENDBRANCH   2   7
BRANCH   1  21
ATOM     21  N   UNL d   1       4.124   3.134  -8.879  0.00  0.00    -0.251 N 
ATOM     22  C   UNL d   1       3.166   2.362  -9.546  0.00  0.00     0.240 C 
ATOM     23  O   UNL d   1       1.952   2.587  -9.540  0.00  0.00    -0.272 OA
ATOM     24  C   UNL d   1       3.700   1.142 -10.269  0.00  0.00     0.178 C 
ATOM     25  S   UNL d   1       4.974   1.575 -11.464  0.00  0.00    -0.150 SA
ATOM     26  C   UNL d   1       6.000   2.536 -10.338  0.00  0.00     0.178 C 
ATOM     27  C   UNL d   1       5.192   3.613  -9.638  0.00  0.00     0.240 C 
ATOM     28  O   UNL d   1       5.525   4.795  -9.742  0.00  0.00    -0.272 OA
ENDBRANCH   1  21
TORSDOF 4
