REMARK  6 active torsions:
REMARK  status: ('A' for Active; 'I' for Inactive)
REMARK    1  A    between atoms: C_2  and  N_1 
REMARK       I    between atoms: C_4  and  N_1 
REMARK    2  A    between atoms: C_16  and  C_4 
REMARK    3  A    between atoms: C_6  and  C_17 
REMARK    4  A    between atoms: O_13  and  C_6 
REMARK    5  A    between atoms: S_11  and  C_16 
REMARK    6  A    between atoms: C_17  and  S_11 
ROOT
ATOM      1  N   UNL d   1       1.241   0.124   0.101  0.00  0.00    -0.324 N 
ATOM      2  C   UNL d   1       2.604  -0.009  -0.081  0.00  0.00     0.231 C 
ATOM      3  O   UNL d   1       3.180  -0.887  -0.722  0.00  0.00    -0.272 OA
ATOM      4  H   UNL d   1       0.915   1.006   0.479  0.00  0.00     0.169 HD
ENDROOT
BRANCH   1   5
ATOM      5  C   UNL d   1       0.240  -0.769  -0.347  0.00  0.00     0.073 A 
ATOM      6  C   UNL d   1       0.448  -2.119  -0.673  0.00  0.00     0.145 A 
ATOM      7  C   UNL d   1      -0.589  -2.914  -1.156  0.00  0.00     0.086 A 
ATOM      8  F   UNL d   1       1.623  -2.723  -0.451  0.00  0.00    -0.204 F 
ATOM      9  C   UNL d   1      -1.854  -2.366  -1.297  0.00  0.00     0.119 A 
ATOM     10  C   UNL d   1      -2.104  -1.048  -0.936  0.00  0.00     0.044 A 
ATOM     11  F   UNL d   1      -2.853  -3.121  -1.770  0.00  0.00    -0.206 F 
ATOM     12  C   UNL d   1      -1.062  -0.253  -0.451  0.00  0.00     0.036 A 
ENDBRANCH   1   5
BRANCH   2  13
ATOM     13  C   UNL d   1       3.429   1.065   0.614  0.00  0.00     0.177 C 
BRANCH  13  14
ATOM     14  S   UNL d   1       3.965   0.494   2.257  0.00  0.00    -0.149 SA
BRANCH  14  15
ATOM     15  C   UNL d   1       4.837  -1.056   1.834  0.00  0.00     0.184 C 
BRANCH  15  16
ATOM     16  C   UNL d   1       6.005  -0.835   0.899  0.00  0.00     0.149 C 
ATOM     17  O   UNL d   1       7.114  -0.472   1.268  0.00  0.00    -0.649 OA
BRANCH  16  18
ATOM     18  O   UNL d   1       5.728  -1.050  -0.408  0.00  0.00    -0.776 OA
ATOM     19  H   UNL d   1       4.784  -1.278  -0.607  0.00  0.00     0.167 HD
ENDBRANCH  16  18
ENDBRANCH  15  16
ENDBRANCH  14  15
ENDBRANCH  13  14
ENDBRANCH   2  13
TORSDOF 6
