REMARK  8 active torsions:
REMARK  status: ('A' for Active; 'I' for Inactive)
REMARK    1  A    between atoms: N_14  and  C_1 
REMARK    2  A    between atoms: C_2  and  N_13 
REMARK    3  A    between atoms: C_25  and  C_3 
REMARK    4  A    between atoms: C_24  and  C_4 
REMARK    5  A    between atoms: C_18  and  N_7 
REMARK    6  A    between atoms: C_19  and  N_8 
REMARK       I    between atoms: N_13  and  C_15 
REMARK       I    between atoms: C_15  and  N_14 
REMARK    7  A    between atoms: N_16  and  C_21 
REMARK    8  A    between atoms: N_17  and  C_20 
ROOT
ATOM      1  N   UNL d   1       2.274  -3.268   0.260  0.00  0.00    -0.292 N 
ATOM      2  N   UNL d   1       0.140  -2.631  -0.405  0.00  0.00    -0.292 N 
ATOM      3  C   UNL d   1       1.069  -3.626  -0.257  0.00  0.00     0.327 C 
ATOM      4  O   UNL d   1       0.741  -4.754  -0.616  0.00  0.00    -0.247 OA
ATOM      5  H   UNL d   1       2.312  -2.391   0.759  0.00  0.00     0.172 HD
ATOM      6  H   UNL d   1      -0.627  -3.052  -0.910  0.00  0.00     0.172 HD
ENDROOT
BRANCH   1   7
ATOM      7  C   UNL d   1       3.403  -4.061   0.224  0.00  0.00     0.152 C 
ATOM      8  C   UNL d   1       4.612  -3.771   0.829  0.00  0.00     0.110 C 
ATOM      9  N   UNL d   1       5.459  -4.748   0.303  0.00  0.00    -0.235 N 
ATOM     10  N   UNL d   1       4.734  -5.718  -0.284  0.00  0.00    -0.013 NA
ATOM     11  N   UNL d   1       3.495  -5.262  -0.428  0.00  0.00    -0.267 N 
ATOM     12  HN  UNL d   1       2.742  -5.726  -0.936  1.00  0.00     0.186 HD
BRANCH   8  13
ATOM     13  C   UNL d   1       5.003  -2.763   1.815  0.00  0.00    -0.004 A 
ATOM     14  C   UNL d   1       5.821  -3.128   2.899  0.00  0.00     0.014 A 
ATOM     15  C   UNL d   1       6.302  -2.168   3.787  0.00  0.00     0.001 A 
ATOM     16  C   UNL d   1       5.919  -0.838   3.638  0.00  0.00     0.000 A 
ATOM     17  C   UNL d   1       5.060  -0.473   2.604  0.00  0.00     0.001 A 
ATOM     18  C   UNL d   1       4.614  -1.426   1.688  0.00  0.00     0.014 A 
ENDBRANCH   8  13
BRANCH   9  19
ATOM     19  C   UNL d   1       6.884  -4.755   0.263  0.00  0.00     0.055 A 
ATOM     20  C   UNL d   1       7.593  -5.966   0.262  0.00  0.00     0.034 A 
ATOM     21  C   UNL d   1       8.994  -5.952   0.289  0.00  0.00     0.038 A 
ATOM     22  C   UNL d   1       9.681  -4.729   0.273  0.00  0.00     0.103 A 
ATOM     23  C   UNL d   1       8.976  -3.520   0.229  0.00  0.00     0.038 A 
ATOM     24  C   UNL d   1       7.585  -3.543   0.219  0.00  0.00     0.034 A 
BRANCH  22  25
ATOM     25  N   UNL d   1      11.145  -4.696   0.308  0.00  0.00    -0.116 N 
ATOM     26  O   UNL d   1      11.741  -5.778   0.396  0.00  0.00    -0.532 OA
ATOM     27  O   UNL d   1      11.701  -3.595   0.252  0.00  0.00    -0.532 OA
ENDBRANCH  22  25
ENDBRANCH   9  19
ENDBRANCH   1   7
BRANCH   2  28
ATOM     28  C   UNL d   1       0.453  -1.335  -0.779  0.00  0.00     0.152 A 
ATOM     29  C   UNL d   1       0.136  -0.743  -1.998  0.00  0.00     0.110 A 
ATOM     30  N   UNL d   1       0.636   0.557  -1.853  0.00  0.00    -0.235 N 
ATOM     31  N   UNL d   1       1.300   0.654  -0.667  0.00  0.00    -0.013 NA
ATOM     32  N   UNL d   1       1.180  -0.489  -0.008  0.00  0.00    -0.267 N 
ATOM     33  HN  UNL d   1       1.564  -0.696   0.914  1.00  0.00     0.186 HD
BRANCH  29  34
ATOM     34  C   UNL d   1      -0.260  -1.418  -3.250  0.00  0.00    -0.004 A 
ATOM     35  C   UNL d   1      -1.289  -2.369  -3.264  0.00  0.00     0.014 A 
ATOM     36  C   UNL d   1      -1.531  -3.147  -4.399  0.00  0.00     0.001 A 
ATOM     37  C   UNL d   1      -0.802  -2.932  -5.564  0.00  0.00     0.000 A 
ATOM     38  C   UNL d   1       0.186  -1.954  -5.589  0.00  0.00     0.001 A 
ATOM     39  C   UNL d   1       0.480  -1.233  -4.431  0.00  0.00     0.014 A 
ENDBRANCH  29  34
BRANCH  30  40
ATOM     40  C   UNL d   1       0.646   1.648  -2.779  0.00  0.00     0.055 C 
ATOM     41  C   UNL d   1      -0.277   1.727  -3.834  0.00  0.00     0.034 C 
ATOM     42  C   UNL d   1      -0.079   2.636  -4.882  0.00  0.00     0.038 C 
ATOM     43  C   UNL d   1       1.026   3.494  -4.855  0.00  0.00     0.103 C 
ATOM     44  C   UNL d   1       1.875   3.516  -3.740  0.00  0.00     0.038 C 
ATOM     45  C   UNL d   1       1.673   2.604  -2.696  0.00  0.00     0.034 C 
BRANCH  43  46
ATOM     46  N   UNL d   1       1.335   4.328  -6.025  0.00  0.00    -0.116 N 
ATOM     47  O   UNL d   1       2.333   5.059  -5.964  0.00  0.00    -0.532 OA
ATOM     48  O   UNL d   1       0.595   4.226  -7.014  0.00  0.00    -0.532 OA
ENDBRANCH  43  46
ENDBRANCH  30  40
ENDBRANCH   2  28
TORSDOF 8
