REMARK  3 active torsions:
REMARK  status: ('A' for Active; 'I' for Inactive)
REMARK    1  A    between atoms: C_13  and  N_3 
REMARK    2  A    between atoms: C_12  and  C_6 
REMARK       I    between atoms: N_22  and  C_12 
REMARK    3  A    between atoms: C_23  and  C_13 
ROOT
ATOM      1  C   UNL d   1      -1.197   0.687  -0.011  0.00  0.00     0.127 A 
ATOM      2  C   UNL d   1      -1.236  -0.665   0.044  0.00  0.00     0.078 A 
ATOM      3  N   UNL d   1      -2.424   1.388  -0.104  0.00  0.00    -0.314 N 
ATOM      4  N   UNL d   1       0.004   1.363  -0.005  0.00  0.00    -0.327 N 
ATOM      5  HN  UNL d   1       0.019   2.383  -0.017  1.00  0.00     0.169 HD
ATOM      6  C   UNL d   1      -3.687  -0.795  -0.067  0.00  0.00     0.076 C 
ATOM      7  C   UNL d   1      -3.642   0.708  -0.265  0.00  0.00     0.118 C 
ATOM      8  C   UNL d   1       0.038  -1.431   0.084  0.00  0.00     0.267 A 
ATOM      9  N   UNL d   1       1.198  -0.683   0.045  0.00  0.00    -0.274 N 
ATOM     10  C   UNL d   1       1.113   0.695   0.015  0.00  0.00     0.115 A 
ATOM     11  C   UNL d   1      -2.493  -1.391   0.065  0.00  0.00     0.041 C 
ATOM     12  N   UNL d   1      -4.722   1.361  -0.596  0.00  0.00    -0.384 N 
ATOM     13  HN  UNL d   1      -4.776   2.371  -0.728  1.00  0.00     0.157 HD
ATOM     14  C   UNL d   1       2.428  -1.331   0.038  0.00  0.00     0.102 A 
ATOM     15  O   UNL d   1       0.008  -2.664   0.138  0.00  0.00    -0.267 OA
ATOM     16  C   UNL d   1       2.398   1.450   0.007  0.00  0.00     0.049 A 
ATOM     17  C   UNL d   1       3.581  -0.651   0.012  0.00  0.00     0.018 A 
ATOM     18  C   UNL d   1       3.562   0.788   0.003  0.00  0.00     0.005 A 
ATOM     19  H   UNL d   1      -5.517   0.705  -0.705  0.00  0.00     0.157 HD
ENDROOT
BRANCH   3  20
ATOM     20  C   UNL d   1      -2.443   2.857   0.024  0.00  0.00     0.170 C 
BRANCH  20  21
ATOM     21  C   UNL d   1      -2.517   3.263   1.485  0.00  0.00    -0.040 A 
ATOM     22  C   UNL d   1      -1.348   3.495   2.224  0.00  0.00     0.009 A 
ATOM     23  C   UNL d   1      -1.412   3.754   3.595  0.00  0.00     0.001 A 
ATOM     24  C   UNL d   1      -2.646   3.795   4.239  0.00  0.00     0.000 A 
ATOM     25  C   UNL d   1      -3.818   3.601   3.510  0.00  0.00     0.001 A 
ATOM     26  C   UNL d   1      -3.755   3.338   2.141  0.00  0.00     0.009 A 
ENDBRANCH  20  21
ENDBRANCH   3  20
BRANCH   6  27
ATOM     27  C   UNL d   1      -4.965  -1.565  -0.067  0.00  0.00     0.253 C 
ATOM     28  O   UNL d   1      -6.010  -1.080  -0.489  0.00  0.00    -0.268 OA
ATOM     29  N   UNL d   1      -4.953  -2.824   0.451  0.00  0.00    -0.366 N 
ATOM     30  H   UNL d   1      -4.174  -3.258   0.923  0.00  0.00     0.159 HD
ATOM     31  H   UNL d   1      -5.847  -3.304   0.481  0.00  0.00     0.159 HD
ENDBRANCH   6  27
TORSDOF 3
