REMARK  6 active torsions:
REMARK  status: ('A' for Active; 'I' for Inactive)
REMARK    1  A    between atoms: C_5  and  C_1 
REMARK       I    between atoms: N_9  and  C_1 
REMARK    2  A    between atoms: C_2  and  C_6 
REMARK       I    between atoms: N_10  and  C_2 
REMARK    3  A    between atoms: C_3  and  C_7 
REMARK    4  A    between atoms: C_4  and  C_8 
REMARK    5  A    between atoms: C_12  and  N_9 
REMARK    6  A    between atoms: C_14  and  N_10 
ROOT
ATOM      1  C   UNL d   1       5.110   2.192   1.814  0.00  0.00    -0.086 C 
ATOM      2  C   UNL d   1       4.249   2.099   0.609  0.00  0.00     0.096 C 
ATOM      3  C   UNL d   1       5.804   2.249   2.797  0.00  0.00     0.015 C 
ATOM      4  C   UNL d   1       3.865   3.512   0.099  0.00  0.00     0.044 C 
ATOM      5  C   UNL d   1       5.070   1.403  -0.510  0.00  0.00     0.044 C 
ATOM      6  C   UNL d   1       3.079   3.455  -1.213  0.00  0.00     0.004 C 
ATOM      7  C   UNL d   1       4.356   1.372  -1.864  0.00  0.00     0.004 C 
ATOM      8  C   UNL d   1       3.874   2.750  -2.305  0.00  0.00     0.000 C 
ENDROOT
BRANCH   2   9
ATOM      9  N   UNL d   1       3.068   1.281   0.926  0.00  0.00    -0.337 N 
ATOM     10  C   UNL d   1       2.085   1.648   1.816  0.00  0.00     0.254 C 
ATOM     11  O   UNL d   1       2.117   2.701   2.448  0.00  0.00    -0.268 OA
ATOM     12  H   UNL d   1       3.106   0.307   0.631  0.00  0.00     0.164 HD
BRANCH  10  13
ATOM     13  C   UNL d   1       0.894   0.758   2.011  0.00  0.00     0.047 A 
ATOM     14  C   UNL d   1       0.377  -0.157   1.081  0.00  0.00     0.048 A 
ATOM     15  C   UNL d   1      -0.864  -0.787   1.315  0.00  0.00     0.018 A 
ATOM     16  C   UNL d   1      -1.585  -0.529   2.478  0.00  0.00     0.001 A 
ATOM     17  C   UNL d   1      -1.065   0.341   3.427  0.00  0.00     0.001 A 
ATOM     18  C   UNL d   1       0.156   0.981   3.192  0.00  0.00     0.018 A 
BRANCH  14  19
ATOM     19  C   UNL d   1       1.111  -0.634  -0.104  0.00  0.00     0.257 C 
ATOM     20  N   UNL d   1       0.444  -0.513  -1.307  0.00  0.00    -0.323 N 
ATOM     21  H   UNL d   1      -0.296   0.178  -1.365  0.00  0.00     0.169 HD
ATOM     22  O   UNL d   1       2.228  -1.114   0.060  0.00  0.00    -0.267 OA
BRANCH  20  23
ATOM     23  C   UNL d   1       0.767  -1.220  -2.482  0.00  0.00     0.036 A 
ATOM     24  C   UNL d   1       1.439  -2.447  -2.453  0.00  0.00     0.045 A 
ATOM     25  C   UNL d   1       1.653  -3.182  -3.631  0.00  0.00     0.050 A 
ATOM     26  C   UNL d   1       1.239  -2.636  -4.856  0.00  0.00     0.032 A 
ATOM     27  C   UNL d   1       0.571  -1.404  -4.904  0.00  0.00     0.050 A 
ATOM     28  C   UNL d   1       0.318  -0.716  -3.705  0.00  0.00     0.045 A 
BRANCH  25  29
ATOM     29  C   UNL d   1       2.266  -4.561  -3.555  0.00  0.00     0.417 C 
ATOM     30  F   UNL d   1       2.341  -5.184  -4.765  0.00  0.00    -0.166 F 
ATOM     31  F   UNL d   1       3.531  -4.554  -3.058  0.00  0.00    -0.166 F 
ATOM     32  F   UNL d   1       1.549  -5.398  -2.755  0.00  0.00    -0.166 F 
ENDBRANCH  25  29
BRANCH  27  33
ATOM     33  C   UNL d   1       0.112  -0.816  -6.219  0.00  0.00     0.417 C 
ATOM     34  F   UNL d   1       0.339  -1.627  -7.288  0.00  0.00    -0.166 F 
ATOM     35  F   UNL d   1      -1.223  -0.551  -6.225  0.00  0.00    -0.166 F 
ATOM     36  F   UNL d   1       0.730   0.362  -6.501  0.00  0.00    -0.166 F 
ENDBRANCH  27  33
ENDBRANCH  20  23
ENDBRANCH  14  19
ENDBRANCH  10  13
ENDBRANCH   2   9
TORSDOF 6
