REMARK  3 active torsions:
REMARK  status: ('A' for Active; 'I' for Inactive)
REMARK    1  A    between atoms: C_3  and  C_1 
REMARK    2  A    between atoms: N_7  and  C_2 
REMARK       I    between atoms: N_9  and  C_3 
REMARK    3  A    between atoms: C_16  and  N_9 
ROOT
ATOM      1  C   UNL d   1       1.400  -0.733  -0.205  0.00  0.00     0.094 A 
ATOM      2  C   UNL d   1       0.110  -1.256  -0.149  0.00  0.00     0.145 A 
ATOM      3  N   UNL d   1      -0.105   0.996  -0.310  0.00  0.00    -0.307 N 
ATOM      4  HN  UNL d   1      -0.510   1.930  -0.363  1.00  0.00     0.186 HD
ATOM      5  N   UNL d   1      -0.753  -0.188  -0.218  0.00  0.00    -0.280 N 
ATOM      6  C   UNL d   1       1.184   0.661  -0.317  0.00  0.00     0.128 A 
ATOM      7  C   UNL d   1      -2.187  -0.117  -0.052  0.00  0.00     0.179 C 
ENDROOT
BRANCH   1   8
ATOM      8  C   UNL d   1       2.668  -1.442  -0.273  0.00  0.00     0.257 C 
ATOM      9  N   UNL d   1       3.737  -0.786   0.306  0.00  0.00    -0.353 N 
ATOM     10  H   UNL d   1       3.561   0.082   0.791  0.00  0.00     0.163 HD
ATOM     11  O   UNL d   1       2.776  -2.542  -0.805  0.00  0.00    -0.267 OA
BRANCH   9  12
ATOM     12  C   UNL d   1       5.076  -1.358   0.420  0.00  0.00     0.076 C 
ATOM     13  C   UNL d   1       5.104  -2.616   1.288  0.00  0.00     0.032 C 
ATOM     14  C   UNL d   1       5.728  -1.616  -0.937  0.00  0.00     0.032 C 
ENDBRANCH   9  12
ENDBRANCH   1   8
BRANCH   2  15
ATOM     15  N   UNL d   1      -0.274  -2.596  -0.014  0.00  0.00    -0.317 N 
ATOM     16  C   UNL d   1       0.416  -3.579   0.670  0.00  0.00     0.098 A 
ATOM     17  C   UNL d   1      -0.280  -4.765   0.609  0.00  0.00     0.019 A 
ATOM     18  C   UNL d   1      -1.444  -4.522  -0.144  0.00  0.00     0.019 A 
ATOM     19  C   UNL d   1      -1.412  -3.197  -0.522  0.00  0.00     0.098 A 
ENDBRANCH   2  15
TORSDOF 3
