REMARK  5 active torsions:
REMARK  status: ('A' for Active; 'I' for Inactive)
REMARK    1  A    between atoms: C_3  and  C_1 
REMARK       I    between atoms: N_8  and  C_3 
REMARK    2  A    between atoms: C_11  and  C_5 
REMARK    3  A    between atoms: C_7  and  O_10 
REMARK    4  A    between atoms: C_12  and  N_8 
REMARK    5  A    between atoms: O_10  and  C_16 
ROOT
ATOM      1  C   UNL d   1       0.236  -2.642   0.255  0.00  0.00     0.258 C 
ATOM      2  N   UNL d   1      -0.804  -3.555   0.364  0.00  0.00    -0.323 N 
ATOM      3  O   UNL d   1       1.418  -2.943   0.154  0.00  0.00    -0.267 OA
ATOM      4  H   UNL d   1      -1.740  -3.190   0.358  0.00  0.00     0.169 HD
ENDROOT
BRANCH   1   5
ATOM      5  C   UNL d   1      -0.187  -1.240   0.232  0.00  0.00     0.064 A 
ATOM      6  C   UNL d   1      -1.487  -0.660   0.383  0.00  0.00     0.057 A 
ATOM      7  C   UNL d   1      -1.349   0.709   0.264  0.00  0.00     0.087 A 
ATOM      8  O   UNL d   1      -0.037   1.010   0.065  0.00  0.00    -0.314 OA
ATOM      9  C   UNL d   1       0.663  -0.159   0.045  0.00  0.00     0.065 A 
ATOM     10  C   UNL d   1       2.120  -0.001  -0.169  0.00  0.00     0.077 C 
BRANCH   7  11
ATOM     11  C   UNL d   1      -2.280   1.834   0.297  0.00  0.00    -0.002 A 
ATOM     12  C   UNL d   1      -1.827   3.149   0.483  0.00  0.00     0.014 A 
ATOM     13  C   UNL d   1      -2.728   4.216   0.535  0.00  0.00     0.001 A 
ATOM     14  C   UNL d   1      -4.093   3.985   0.399  0.00  0.00     0.000 A 
ATOM     15  C   UNL d   1      -4.560   2.688   0.201  0.00  0.00     0.001 A 
ATOM     16  C   UNL d   1      -3.659   1.621   0.152  0.00  0.00     0.014 A 
ENDBRANCH   7  11
ENDBRANCH   1   5
BRANCH   2  17
ATOM     17  C   UNL d   1      -0.692  -4.963   0.363  0.00  0.00     0.035 A 
ATOM     18  C   UNL d   1       0.521  -5.652   0.441  0.00  0.00     0.032 A 
ATOM     19  C   UNL d   1       0.566  -7.053   0.391  0.00  0.00     0.039 A 
ATOM     20  C   UNL d   1      -0.611  -7.787   0.296  0.00  0.00     0.078 A 
ATOM     21  C   UNL d   1      -1.827  -7.101   0.218  0.00  0.00     0.039 A 
ATOM     22  C   UNL d   1      -1.871  -5.704   0.263  0.00  0.00     0.032 A 
BRANCH  20  23
ATOM     23  O   UNL d   1      -0.733  -9.143   0.274  0.00  0.00    -0.255 OA
BRANCH  23  24
ATOM     24  C   UNL d   1       0.391  -9.946   0.591  0.00  0.00     0.530 C 
ATOM     25  F   UNL d   1       1.138  -9.431   1.589  0.00  0.00    -0.144 F 
ATOM     26  F   UNL d   1      -0.057 -11.156   0.998  0.00  0.00    -0.144 F 
ATOM     27  F   UNL d   1       1.162 -10.129  -0.503  0.00  0.00    -0.144 F 
ENDBRANCH  23  24
ENDBRANCH  20  23
ENDBRANCH   2  17
TORSDOF 5
