REMARK  6 active torsions:
REMARK  status: ('A' for Active; 'I' for Inactive)
REMARK    1  A    between atoms: O_2  and  C_1 
REMARK    2  A    between atoms: C_12  and  C_1 
REMARK    3  A    between atoms: C_3  and  O_2 
REMARK    4  A    between atoms: C_14  and  N_5 
REMARK    5  A    between atoms: O_21  and  C_7 
REMARK    6  A    between atoms: C_10  and  C_17 
ROOT
ATOM      1  C   UNL d   1       1.096  -2.365   0.080  0.00  0.00     0.112 A 
ATOM      2  C   UNL d   1       2.063  -2.650   1.053  0.00  0.00     0.102 A 
ATOM      3  C   UNL d   1       2.665  -3.912   1.053  0.00  0.00     0.052 A 
ATOM      4  C   UNL d   1       0.693  -3.331  -0.848  0.00  0.00     0.041 A 
ATOM      5  C   UNL d   1       2.295  -4.870   0.098  0.00  0.00    -0.018 A 
ATOM      6  C   UNL d   1       1.299  -4.589  -0.840  0.00  0.00     0.016 A 
ENDROOT
BRANCH   5   7
ATOM      7  C   UNL d   1       3.007  -6.168   0.099  0.00  0.00     0.100 C 
ATOM      8  N   UNL d   1       2.656  -7.152  -0.666  0.00  0.00    -0.365 N 
ATOM      9  HN  UNL d   1       1.847  -7.065  -1.280  1.00  0.00     0.165 HD
BRANCH   8  10
ATOM     10  C   UNL d   1       3.406  -8.343  -0.641  0.00  0.00     0.033 A 
ATOM     11  C   UNL d   1       3.924  -8.917   0.524  0.00  0.00     0.053 A 
ATOM     12  C   UNL d   1       4.647 -10.116   0.472  0.00  0.00     0.042 A 
ATOM     13 CL   UNL d   1       5.284 -10.737   1.956  0.00  0.00    -0.084 Cl
ATOM     14  C   UNL d   1       4.845 -10.787  -0.744  0.00  0.00    -0.040 A 
ATOM     15  C   UNL d   1       4.309 -10.221  -1.907  0.00  0.00     0.011 A 
ATOM     16  C   UNL d   1       5.593 -12.088  -0.826  0.00  0.00     0.050 C 
ATOM     17  C   UNL d   1       3.599  -9.016  -1.850  0.00  0.00     0.030 A 
ENDBRANCH   8  10
ENDBRANCH   5   7
BRANCH   2  18
ATOM     18  O   UNL d   1       2.327  -1.676   1.979  0.00  0.00    -0.353 OA
ATOM     19  C   UNL d   1       3.624  -1.720   2.567  0.00  0.00     0.210 C 
ENDBRANCH   2  18
BRANCH   1  20
ATOM     20  O   UNL d   1       0.443  -1.120   0.015  0.00  0.00    -0.272 OA
BRANCH  20  21
ATOM     21  C   UNL d   1       1.247  -0.053  -0.342  0.00  0.00     0.298 C 
ATOM     22  O   UNL d   1       2.457  -0.063  -0.534  0.00  0.00    -0.259 OA
BRANCH  21  23
ATOM     23  C   UNL d   1       0.419   1.173  -0.535  0.00  0.00     0.039 A 
ATOM     24  C   UNL d   1       1.079   2.400  -0.708  0.00  0.00     0.017 A 
ATOM     25  C   UNL d   1       0.352   3.565  -0.967  0.00  0.00     0.001 A 
ATOM     26  C   UNL d   1      -1.037   3.515  -1.057  0.00  0.00     0.000 A 
ATOM     27  C   UNL d   1      -1.702   2.303  -0.875  0.00  0.00     0.001 A 
ATOM     28  C   UNL d   1      -0.981   1.135  -0.612  0.00  0.00     0.017 A 
ENDBRANCH  21  23
ENDBRANCH  20  21
ENDBRANCH   1  20
TORSDOF 6
