REMARK  6 active torsions:
REMARK  status: ('A' for Active; 'I' for Inactive)
REMARK    1  A    between atoms: N_7  and  C_1 
REMARK       I    between atoms: C_8  and  N_7 
REMARK    2  A    between atoms: C_16  and  C_8 
REMARK    3  A    between atoms: C_9  and  C_18 
REMARK    4  A    between atoms: O_15  and  C_9 
REMARK    5  A    between atoms: O_14  and  C_16 
REMARK    6  A    between atoms: C_18  and  O_14 
ROOT
ATOM      1  C   UNL d   1      -1.015   1.680  -0.014  0.00  0.00     0.135 A 
ATOM      2  N   UNL d   1      -2.048   0.840  -0.008  0.00  0.00    -0.282 N 
ATOM      3  HN  UNL d   1      -3.040   1.077  -0.002  1.00  0.00     0.189 HD
ATOM      4  N   UNL d   1      -1.504  -0.379  -0.012  0.00  0.00    -0.294 N 
ATOM      5  C   UNL d   1       0.225   0.967  -0.012  0.00  0.00     0.038 A 
ATOM      6  C   UNL d   1      -0.134  -0.381  -0.004  0.00  0.00     0.064 A 
ATOM      7  C   UNL d   1      -2.371  -1.531  -0.047  0.00  0.00     0.178 C 
ATOM      8  C   UNL d   1       1.597   1.297  -0.012  0.00  0.00     0.017 A 
ATOM      9  C   UNL d   1       0.803  -1.422   0.004  0.00  0.00     0.032 A 
ATOM     10  C   UNL d   1       2.549   0.267  -0.005  0.00  0.00     0.001 A 
ATOM     11  C   UNL d   1       2.155  -1.070   0.004  0.00  0.00     0.002 A 
ENDROOT
BRANCH   1  12
ATOM     12  N   UNL d   1      -1.145   3.055  -0.027  0.00  0.00    -0.309 N 
ATOM     13  C   UNL d   1      -2.358   3.724  -0.001  0.00  0.00     0.246 C 
ATOM     14  O   UNL d   1      -3.482   3.247   0.079  0.00  0.00    -0.271 OA
ATOM     15  H   UNL d   1      -0.295   3.593  -0.082  0.00  0.00     0.170 HD
BRANCH  13  16
ATOM     16  C   UNL d   1      -2.179   5.242  -0.009  0.00  0.00     0.271 C 
BRANCH  16  17
ATOM     17  O   UNL d   1      -1.314   5.687  -1.060  0.00  0.00    -0.372 OA
BRANCH  17  18
ATOM     18  C   UNL d   1      -1.398   7.108  -1.217  0.00  0.00     0.277 C 
BRANCH  18  19
ATOM     19  C   UNL d   1      -0.581   7.800  -0.138  0.00  0.00     0.164 C 
ATOM     20  O   UNL d   1      -0.969   8.735   0.543  0.00  0.00    -0.648 OA
BRANCH  19  21
ATOM     21  O   UNL d   1       0.645   7.234   0.003  0.00  0.00    -0.775 OA
ATOM     22  H   UNL d   1       0.746   6.486  -0.623  0.00  0.00     0.167 HD
ENDBRANCH  19  21
ENDBRANCH  18  19
ENDBRANCH  17  18
ENDBRANCH  16  17
ENDBRANCH  13  16
ENDBRANCH   1  12
TORSDOF 6
