REMARK  4 active torsions:
REMARK  status: ('A' for Active; 'I' for Inactive)
REMARK    1  A    between atoms: C_5  and  C_1 
REMARK    2  A    between atoms: C_4  and  C_2 
REMARK       I    between atoms: N_8  and  C_4 
REMARK       I    between atoms: N_9  and  C_5 
REMARK    3  A    between atoms: N_10  and  N_8 
REMARK    4  A    between atoms: N_11  and  N_9 
ROOT
ATOM      1  C   UNL d   1       0.024   0.911  -0.057  0.00  0.00     0.093 A 
ATOM      2  C   UNL d   1       0.841  -0.366   0.034  0.00  0.00     0.093 A 
ATOM      3  C   UNL d   1      -0.663  -0.431  -0.037  0.00  0.00     0.030 A 
ENDROOT
BRANCH   1   4
ATOM      4  C   UNL d   1       0.092   1.723  -1.298  0.00  0.00     0.236 C 
ATOM      5  O   UNL d   1       0.629   1.299  -2.315  0.00  0.00    -0.272 OA
ATOM      6  N   UNL d   1      -0.500   2.971  -1.194  0.00  0.00    -0.294 N 
ATOM      7  H   UNL d   1      -1.032   3.221  -0.362  0.00  0.00     0.183 HD
BRANCH   6   8
ATOM      8  N   UNL d   1      -0.541   3.824  -2.318  0.00  0.00    -0.247 NA
ATOM      9  H   UNL d   1      -0.234   3.265  -3.128  0.00  0.00     0.143 HD
ATOM     10  H   UNL d   1       0.199   4.524  -2.209  0.00  0.00     0.143 HD
ENDBRANCH   6   8
ENDBRANCH   1   4
BRANCH   2  11
ATOM     11  C   UNL d   1       1.567  -0.669   1.292  0.00  0.00     0.236 C 
ATOM     12  O   UNL d   1       1.358  -0.036   2.322  0.00  0.00    -0.272 OA
ATOM     13  N   UNL d   1       2.476  -1.709   1.190  0.00  0.00    -0.294 N 
ATOM     14  H   UNL d   1       2.523  -2.271   0.343  0.00  0.00     0.183 HD
BRANCH  13  15
ATOM     15  N   UNL d   1       3.208  -2.115   2.326  0.00  0.00    -0.247 NA
ATOM     16  H   UNL d   1       2.799  -1.627   3.136  0.00  0.00     0.143 HD
ATOM     17  H   UNL d   1       4.149  -1.720   2.251  0.00  0.00     0.143 HD
ENDBRANCH  13  15
ENDBRANCH   2  11
TORSDOF 4
