REMARK  2 active torsions:
REMARK  status: ('A' for Active; 'I' for Inactive)
REMARK       I    between atoms: N_3  and  C_1 
REMARK       I    between atoms: N_4  and  C_1 
REMARK    1  A    between atoms: C_2  and  N_3 
REMARK    2  A    between atoms: C_11  and  N_4 
ROOT
ATOM      1  C   UNL d   1       0.886   0.026  -0.162  0.00  0.00     0.325 C 
ATOM      2  N   UNL d   1       2.239  -0.238  -0.001  0.00  0.00    -0.309 N 
ATOM      3  N   UNL d   1       0.122  -0.694   0.742  0.00  0.00    -0.309 N 
ATOM      4  O   UNL d   1       0.429   0.783  -1.008  0.00  0.00    -0.247 OA
ATOM      5  H   UNL d   1       2.457  -1.078   0.514  0.00  0.00     0.170 HD
ATOM      6  H   UNL d   1       0.566  -0.934   1.615  0.00  0.00     0.170 HD
ENDROOT
BRANCH   2   7
ATOM      7  C   UNL d   1       3.287   0.344  -0.753  0.00  0.00     0.039 A 
ATOM      8  C   UNL d   1       3.131   1.495  -1.533  0.00  0.00     0.053 A 
ATOM      9  C   UNL d   1       4.195   1.991  -2.288  0.00  0.00     0.037 A 
ATOM     10 CL   UNL d   1       3.971   3.396  -3.257  0.00  0.00    -0.084 Cl
ATOM     11  C   UNL d   1       5.433   1.361  -2.267  0.00  0.00     0.048 A 
ATOM     12  C   UNL d   1       5.601   0.233  -1.472  0.00  0.00     0.037 A 
ATOM     13  C   UNL d   1       4.542  -0.275  -0.712  0.00  0.00     0.053 A 
ATOM     14 CL   UNL d   1       7.130  -0.557  -1.432  0.00  0.00    -0.084 Cl
ENDBRANCH   2   7
BRANCH   3  15
ATOM     15  C   UNL d   1      -1.283  -0.839   0.681  0.00  0.00     0.036 A 
ATOM     16  C   UNL d   1      -2.020  -0.586  -0.479  0.00  0.00     0.030 A 
ATOM     17  C   UNL d   1      -3.408  -0.745  -0.494  0.00  0.00     0.009 A 
ATOM     18  C   UNL d   1      -4.086  -1.167   0.650  0.00  0.00    -0.062 A 
ATOM     19  C   UNL d   1      -3.350  -1.444   1.808  0.00  0.00     0.009 A 
ATOM     20  C   UNL d   1      -5.576  -1.327   0.608  0.00  0.00     0.048 C 
ATOM     21  C   UNL d   1      -1.958  -1.287   1.821  0.00  0.00     0.030 A 
ENDBRANCH   3  15
TORSDOF 2
