REMARK  7 active torsions:
REMARK  status: ('A' for Active; 'I' for Inactive)
REMARK    1  A    between atoms: C_17  and  C_1 
REMARK    2  A    between atoms: C_2  and  C_18 
REMARK    3  A    between atoms: C_20  and  C_17 
REMARK    4  A    between atoms: C_18  and  C_19 
REMARK    5  A    between atoms: C_19  and  C_22 
REMARK    6  A    between atoms: C_21  and  C_20 
REMARK    7  A    between atoms: C_22  and  C_21 
ROOT
ATOM      1  C   UNL d   1      -3.700  -3.520  -0.028  0.00  0.00     0.000 C 
ENDROOT
BRANCH   1   2
ATOM      2  C   UNL d   1      -2.922  -2.205  -0.007  0.00  0.00     0.005 C 
BRANCH   2   3
ATOM      3  C   UNL d   1      -1.411  -2.447  -0.001  0.00  0.00     0.043 C 
BRANCH   3   4
ATOM      4  C   UNL d   1      -0.654  -1.148  -0.060  0.00  0.00    -0.004 A 
ATOM      5  C   UNL d   1      -0.289  -0.584  -1.220  0.00  0.00     0.066 A 
ATOM      6  C   UNL d   1       0.440   0.697  -1.280  0.00  0.00     0.172 A 
ATOM      7  O   UNL d   1       0.740   1.207  -2.350  0.00  0.00    -0.289 OA
ATOM      8  C   UNL d   1       0.786   1.339  -0.001  0.00  0.00     0.058 A 
ATOM      9  C   UNL d   1       0.443   0.784   1.165  0.00  0.00     0.059 A 
ATOM     10  C   UNL d   1      -0.302  -0.491   1.230  0.00  0.00     0.178 A 
ATOM     11  O   UNL d   1      -0.612  -0.968   2.313  0.00  0.00    -0.288 OA
ENDBRANCH   3   4
ENDBRANCH   2   3
ENDBRANCH   1   2
BRANCH   1  12
ATOM     12  C   UNL d   1      -5.208  -3.264  -0.058  0.00  0.00     0.000 C 
BRANCH  12  13
ATOM     13  C   UNL d   1      -5.989  -4.578  -0.077  0.00  0.00     0.005 C 
BRANCH  13  14
ATOM     14  C   UNL d   1      -7.499  -4.332  -0.086  0.00  0.00     0.043 C 
BRANCH  14  15
ATOM     15  C   UNL d   1      -8.260  -5.628  -0.024  0.00  0.00    -0.004 A 
ATOM     16  C   UNL d   1      -8.627  -6.189   1.139  0.00  0.00     0.066 A 
ATOM     17  C   UNL d   1      -9.363  -7.465   1.200  0.00  0.00     0.172 A 
ATOM     18  O   UNL d   1      -9.664  -7.973   2.272  0.00  0.00    -0.289 OA
ATOM     19  C   UNL d   1      -9.718  -8.105  -0.077  0.00  0.00     0.058 A 
ATOM     20  C   UNL d   1      -9.373  -7.554  -1.243  0.00  0.00     0.059 A 
ATOM     21  C   UNL d   1      -8.615  -6.287  -1.310  0.00  0.00     0.178 A 
ATOM     22  O   UNL d   1      -8.301  -5.816  -2.396  0.00  0.00    -0.288 OA
ENDBRANCH  14  15
ENDBRANCH  13  14
ENDBRANCH  12  13
ENDBRANCH   1  12
TORSDOF 7
