REMARK  1 active torsions:
REMARK  status: ('A' for Active; 'I' for Inactive)
REMARK    1  A    between atoms: O_13  and  C_2 
ROOT
ATOM      1  N   UNL d   1      -2.480  -0.838   0.276  0.00  0.00    -0.251 N 
ATOM      2  C   UNL d   1      -1.562  -1.343  -0.698  0.00  0.00     0.294 A 
ATOM      3  O   UNL d   1      -2.083  -1.205  -2.006  0.00  0.00    -0.255 OA
ATOM      4  C   UNL d   1      -1.925   0.149   1.076  0.00  0.00     0.263 A 
ATOM      5  C   UNL d   1      -3.810  -1.235   0.198  0.00  0.00     0.059 A 
ATOM      6  C   UNL d   1      -4.249  -1.726  -1.034  0.00  0.00     0.067 A 
ATOM      7  C   UNL d   1      -3.362  -1.600  -2.221  0.00  0.00     0.300 C 
ATOM      8  C   UNL d   1      -0.334  -0.524  -0.476  0.00  0.00     0.043 A 
ATOM      9  C   UNL d   1      -0.555   0.362   0.579  0.00  0.00     0.046 A 
ATOM     10  C   UNL d   1      -4.677  -1.211   1.289  0.00  0.00     0.031 A 
ATOM     11  O   UNL d   1      -2.425   0.788   1.982  0.00  0.00    -0.267 OA
ATOM     12  C   UNL d   1      -5.545  -2.232  -1.173  0.00  0.00     0.026 A 
ATOM     13  O   UNL d   1      -3.797  -1.786  -3.351  0.00  0.00    -0.259 OA
ATOM     14  C   UNL d   1      -5.963  -1.746   1.158  0.00  0.00     0.009 A 
ATOM     15  C   UNL d   1      -6.400  -2.276  -0.065  0.00  0.00    -0.061 A 
ATOM     16  C   UNL d   1       0.904  -0.577  -1.097  0.00  0.00     0.016 A 
ATOM     17  C   UNL d   1       0.403   1.260   1.009  0.00  0.00     0.018 A 
ATOM     18  C   UNL d   1      -7.785  -2.841  -0.188  0.00  0.00     0.048 C 
ATOM     19  C   UNL d   1       1.645   1.225   0.373  0.00  0.00     0.001 A 
ATOM     20  C   UNL d   1       1.898   0.305  -0.662  0.00  0.00     0.001 A 
ENDROOT
BRANCH   2  21
ATOM     21  O   UNL d   1      -1.248  -2.685  -0.384  0.00  0.00    -0.344 OA
ATOM     22  H   UNL d   1      -1.938  -2.971   0.233  0.00  0.00     0.215 HD
ENDBRANCH   2  21
TORSDOF 1
