REMARK  3 active torsions:
REMARK  status: ('A' for Active; 'I' for Inactive)
REMARK    1  A    between atoms: C_7  and  C_1 
REMARK    2  A    between atoms: C_6  and  N_9 
REMARK       I    between atoms: N_12  and  C_7 
REMARK    3  A    between atoms: N_9  and  N_12 
ROOT
ATOM      1  C   UNL d   1      -3.109  -0.767   0.065  0.00  0.00     0.284 C 
ATOM      2  N   UNL d   1      -3.458  -2.110   0.029  0.00  0.00    -0.281 N 
ATOM      3  O   UNL d   1      -3.937   0.140   0.071  0.00  0.00    -0.265 OA
ATOM      4  H   UNL d   1      -2.710  -2.772  -0.182  0.00  0.00     0.184 HD
ENDROOT
BRANCH   2   5
ATOM      5  N   UNL d   1      -4.759  -2.456  -0.346  0.00  0.00    -0.200 NA
ATOM      6  H   UNL d   1      -5.382  -1.634  -0.343  0.00  0.00     0.153 HD
BRANCH   5   7
ATOM      7  C   UNL d   1      -5.362  -3.548   0.350  0.00  0.00     0.071 A 
ATOM      8  C   UNL d   1      -4.674  -4.653   0.903  0.00  0.00     0.060 A 
ATOM      9  C   UNL d   1      -5.369  -5.743   1.451  0.00  0.00     0.049 A 
ATOM     10 CL   UNL d   1      -2.945  -4.804   0.937  0.00  0.00    -0.082 Cl
ATOM     11  C   UNL d   1      -6.757  -5.776   1.423  0.00  0.00     0.037 A 
ATOM     12  C   UNL d   1      -7.471  -4.728   0.864  0.00  0.00     0.049 A 
ATOM     13 CL   UNL d   1      -7.592  -7.139   2.059  0.00  0.00    -0.084 Cl
ATOM     14  C   UNL d   1      -6.779  -3.634   0.334  0.00  0.00     0.060 A 
ATOM     15 CL   UNL d   1      -7.734  -2.362  -0.363  0.00  0.00    -0.082 Cl
ENDBRANCH   5   7
ENDBRANCH   2   5
BRANCH   1  16
ATOM     16  C   UNL d   1      -1.656  -0.549   0.082  0.00  0.00     0.119 A 
ATOM     17  N   UNL d   1      -0.774  -1.568   0.005  0.00  0.00    -0.294 N 
ATOM     18  N   UNL d   1       0.433  -0.969   0.062  0.00  0.00    -0.301 N 
ATOM     19  HN  UNL d   1      -0.975  -2.564  -0.078  1.00  0.00     0.187 HD
ATOM     20  C   UNL d   1       1.630  -1.777   0.028  0.00  0.00     0.177 C 
ATOM     21  C   UNL d   1       0.364   0.397   0.163  0.00  0.00     0.026 A 
ATOM     22  C   UNL d   1      -0.983   0.696   0.168  0.00  0.00     0.063 A 
ATOM     23  C   UNL d   1       1.552   1.278   0.255  0.00  0.00     0.070 C 
ENDBRANCH   1  16
TORSDOF 3
