REMARK  10 active torsions:
REMARK  status: ('A' for Active; 'I' for Inactive)
REMARK    1  A    between atoms: C_6  and  C_1 
REMARK    2  A    between atoms: C_2  and  C_8 
REMARK       I    between atoms: N_5  and  C_2 
REMARK    3  A    between atoms: C_3  and  N_5 
REMARK    4  A    between atoms: C_4  and  C_10 
REMARK    5  A    between atoms: C_8  and  C_4 
REMARK    6  A    between atoms: C_9  and  C_4 
REMARK    7  A    between atoms: C_7  and  C_9 
REMARK    8  A    between atoms: O_25  and  C_7 
REMARK    9  A    between atoms: O_26  and  C_13 
REMARK   10  A    between atoms: O_27  and  C_14 
ROOT
ATOM      1  C   UNL d   1      -1.287  -5.732  -0.670  0.00  0.00     0.037 C 
ENDROOT
BRANCH   1   2
ATOM      2  C   UNL d   1      -0.108  -5.979   0.267  0.00  0.00    -0.053 A 
ATOM      3  C   UNL d   1       0.440  -7.270   0.322  0.00  0.00     0.008 A 
ATOM      4  C   UNL d   1       1.648  -7.507   0.978  0.00  0.00     0.017 A 
ATOM      5  C   UNL d   1       2.336  -6.459   1.603  0.00  0.00     0.047 A 
ATOM      6  C   UNL d   1       1.744  -5.192   1.641  0.00  0.00     0.017 A 
ATOM      7  C   UNL d   1       0.525  -4.957   0.988  0.00  0.00     0.008 A 
BRANCH   5   8
ATOM      8  C   UNL d   1       3.714  -6.702   2.165  0.00  0.00     0.417 C 
ATOM      9  F   UNL d   1       4.286  -5.592   2.712  0.00  0.00    -0.166 F 
ATOM     10  F   UNL d   1       4.589  -7.138   1.216  0.00  0.00    -0.166 F 
ATOM     11  F   UNL d   1       3.724  -7.649   3.143  0.00  0.00    -0.166 F 
ENDBRANCH   5   8
ENDBRANCH   1   2
BRANCH   1  12
ATOM     12  C   UNL d   1      -2.663  -5.929  -0.005  0.00  0.00     0.113 C 
BRANCH  12  13
ATOM     13  C   UNL d   1      -3.043  -4.948   1.071  0.00  0.00     0.222 C 
ATOM     14  N   UNL d   1      -3.985  -5.262   2.010  0.00  0.00    -0.327 N 
ATOM     15  H   UNL d   1      -4.030  -4.524   2.706  0.00  0.00     0.169 HD
ATOM     16  O   UNL d   1      -2.535  -3.826   1.130  0.00  0.00    -0.273 OA
BRANCH  14  17
ATOM     17  C   UNL d   1      -4.870  -6.345   2.236  0.00  0.00     0.040 A 
ATOM     18  C   UNL d   1      -5.172  -7.379   1.338  0.00  0.00     0.066 A 
ATOM     19  C   UNL d   1      -6.098  -8.374   1.687  0.00  0.00     0.073 A 
ATOM     20  C   UNL d   1      -6.731  -8.345   2.934  0.00  0.00     0.073 A 
ATOM     21  C   UNL d   1      -6.434  -7.335   3.840  0.00  0.00     0.073 A 
ATOM     22  C   UNL d   1      -5.532  -6.333   3.476  0.00  0.00     0.066 A 
BRANCH  19  23
ATOM     23  O   UNL d   1      -6.535  -9.381   0.869  0.00  0.00    -0.356 OA
ATOM     24  C   UNL d   1      -5.610  -9.879  -0.089  0.00  0.00     0.210 C 
ENDBRANCH  19  23
BRANCH  21  25
ATOM     25  O   UNL d   1      -6.993  -7.198   5.081  0.00  0.00    -0.356 OA
ATOM     26  C   UNL d   1      -7.432  -8.406   5.696  0.00  0.00     0.210 C 
ENDBRANCH  21  25
ENDBRANCH  14  17
ENDBRANCH  12  13
ENDBRANCH   1  12
BRANCH   1  27
ATOM     27  C   UNL d   1      -1.136  -4.446  -1.515  0.00  0.00     0.119 C 
BRANCH  27  28
ATOM     28  C   UNL d   1      -0.020  -4.596  -2.539  0.00  0.00     0.140 C 
ATOM     29  O   UNL d   1       0.454  -5.654  -2.919  0.00  0.00    -0.650 OA
BRANCH  28  30
ATOM     30  O   UNL d   1       0.370  -3.414  -3.069  0.00  0.00    -0.776 OA
ATOM     31  H   UNL d   1      -0.097  -2.642  -2.701  0.00  0.00     0.167 HD
ENDBRANCH  28  30
ENDBRANCH  27  28
ENDBRANCH   1  27
TORSDOF 10
