REMARK  4 active torsions:
REMARK  status: ('A' for Active; 'I' for Inactive)
REMARK    1  A    between atoms: N_6  and  C_1 
REMARK       I    between atoms: C_8  and  N_6 
REMARK    2  A    between atoms: C_9  and  C_8 
REMARK    3  A    between atoms: C_10  and  C_11 
REMARK    4  A    between atoms: O_15  and  C_10 
ROOT
ATOM      1  N   UNL d   1       1.963  -1.585   0.406  0.00  0.00    -0.307 N 
ATOM      2  C   UNL d   1       1.816  -2.961   0.049  0.00  0.00     0.247 C 
ATOM      3  O   UNL d   1       0.796  -3.438  -0.404  0.00  0.00    -0.268 OA
ATOM      4  H   UNL d   1       2.895  -1.229   0.566  0.00  0.00     0.170 HD
ENDROOT
BRANCH   1   5
ATOM      5  C   UNL d   1       0.915  -0.660   0.409  0.00  0.00     0.143 C 
ATOM      6  C   UNL d   1      -0.441  -0.824   0.619  0.00  0.00     0.073 C 
ATOM      7  C   UNL d   1      -1.017   0.446   0.450  0.00  0.00     0.130 C 
ATOM      8 BR   UNL d   1      -1.471  -2.284   1.183  0.00  0.00    -0.045 Br
ATOM      9  N   UNL d   1      -0.098   1.384   0.219  0.00  0.00    -0.307 N 
ATOM     10  N   UNL d   1       1.066   0.709   0.273  0.00  0.00    -0.280 N 
ATOM     11  HN  UNL d   1      -0.242   2.378   0.043  1.00  0.00     0.186 HD
ATOM     12  C   UNL d   1       2.287   1.476   0.198  0.00  0.00     0.179 C 
ENDBRANCH   1   5
BRANCH   2  13
ATOM     13  C   UNL d   1       3.083  -3.693   0.207  0.00  0.00     0.081 C 
ATOM     14  C   UNL d   1       3.102  -5.024   0.038  0.00  0.00     0.086 C 
BRANCH  14  15
ATOM     15  C   UNL d   1       4.398  -5.707   0.167  0.00  0.00     0.165 C 
ATOM     16  O   UNL d   1       5.449  -5.115   0.350  0.00  0.00    -0.647 OA
BRANCH  15  17
ATOM     17  O   UNL d   1       4.298  -7.041   0.067  0.00  0.00    -0.773 OA
ATOM     18  H   UNL d   1       3.407  -7.414  -0.072  0.00  0.00     0.167 HD
ENDBRANCH  15  17
ENDBRANCH  14  15
ENDBRANCH   2  13
TORSDOF 4
