REMARK  2 active torsions:
REMARK  status: ('A' for Active; 'I' for Inactive)
REMARK    1  A    between atoms: C_3  and  C_1 
REMARK       I    between atoms: N_9  and  C_3 
REMARK    2  A    between atoms: N_11  and  N_9 
ROOT
ATOM      1  C   UNL d   1       1.015   1.421  -0.047  0.00  0.00     0.060 A 
ATOM      2  C   UNL d   1      -0.183   0.678  -0.025  0.00  0.00     0.058 A 
ATOM      3  N   UNL d   1      -1.498   1.104  -0.031  0.00  0.00    -0.364 N 
ATOM      4  C   UNL d   1      -2.348   0.032  -0.018  0.00  0.00     0.089 A 
ATOM      5  C   UNL d   1      -0.214  -0.717   0.002  0.00  0.00    -0.007 A 
ATOM      6  C   UNL d   1      -1.581  -1.111   0.001  0.00  0.00     0.030 A 
ATOM      7  C   UNL d   1       2.212   0.684  -0.039  0.00  0.00     0.019 A 
ATOM      8  C   UNL d   1       2.207  -0.712  -0.007  0.00  0.00     0.002 A 
ATOM      9  C   UNL d   1       1.002  -1.423   0.009  0.00  0.00     0.014 A 
ATOM     10  H   UNL d   1      -1.761   2.084  -0.051  0.00  0.00     0.165 HD
ENDROOT
BRANCH   1  11
ATOM     11  C   UNL d   1       0.948   2.913  -0.109  0.00  0.00     0.268 C 
ATOM     12  O   UNL d   1      -0.138   3.487  -0.202  0.00  0.00    -0.266 OA
ATOM     13  N   UNL d   1       2.149   3.615  -0.062  0.00  0.00    -0.290 N 
ATOM     14  H   UNL d   1       3.027   3.161   0.169  0.00  0.00     0.183 HD
BRANCH  13  15
ATOM     15  N   UNL d   1       2.125   5.028  -0.089  0.00  0.00    -0.247 NA
ATOM     16  H   UNL d   1       1.139   5.306   0.021  0.00  0.00     0.143 HD
ATOM     17  H   UNL d   1       2.358   5.326  -1.040  0.00  0.00     0.143 HD
ENDBRANCH  13  15
ENDBRANCH   1  11
TORSDOF 2
