REMARK  4 active torsions:
REMARK  status: ('A' for Active; 'I' for Inactive)
REMARK    1  A    between atoms: C_7  and  C_1 
REMARK    2  A    between atoms: C_8  and  C_2 
REMARK    3  A    between atoms: O_13  and  C_7 
REMARK    4  A    between atoms: C_19  and  O_13 
ROOT
ATOM      1  C   UNL d   1       2.055   0.641   0.044  0.00  0.00     0.066 C 
ATOM      2  C   UNL d   1       1.138   1.837  -0.043  0.00  0.00     0.158 C 
ATOM      3  C   UNL d   1       1.577  -0.624   0.058  0.00  0.00     0.022 C 
ATOM      4  C   UNL d   1      -0.718   0.189   0.016  0.00  0.00     0.172 C 
ATOM      5  N   UNL d   1       0.207  -0.805   0.023  0.00  0.00    -0.337 N 
ATOM      6  N   UNL d   1      -0.261   1.457   0.094  0.00  0.00    -0.354 N 
ATOM      7  S   UNL d   1      -2.341  -0.146  -0.062  0.00  0.00    -0.041 SA
ATOM      8  C   UNL d   1       2.338  -1.923   0.029  0.00  0.00     0.069 C 
ATOM      9  H   UNL d   1      -0.164  -1.749  -0.018  0.00  0.00     0.168 HD
ATOM     10  H   UNL d   1      -0.955   2.189   0.060  0.00  0.00     0.163 HD
ENDROOT
BRANCH   2  11
ATOM     11  C   UNL d   1       1.430   2.950   0.953  0.00  0.00    -0.029 A 
ATOM     12  C   UNL d   1       1.372   2.732   2.339  0.00  0.00     0.028 A 
ATOM     13  C   UNL d   1       1.651   3.772   3.228  0.00  0.00     0.011 A 
ATOM     14 BR   UNL d   1       1.586   3.457   5.090  0.00  0.00    -0.051 Br
ATOM     15  C   UNL d   1       1.979   5.042   2.755  0.00  0.00     0.019 A 
ATOM     16  C   UNL d   1       2.029   5.274   1.383  0.00  0.00     0.002 A 
ATOM     17  C   UNL d   1       1.756   4.237   0.488  0.00  0.00     0.009 A 
ENDBRANCH   2  11
BRANCH   1  18
ATOM     18  C   UNL d   1       3.486   0.993  -0.099  0.00  0.00     0.293 C 
ATOM     19  O   UNL d   1       3.870   1.932  -0.783  0.00  0.00    -0.259 OA
BRANCH  18  20
ATOM     20  O   UNL d   1       4.290   0.143   0.585  0.00  0.00    -0.318 OA
BRANCH  20  21
ATOM     21  C   UNL d   1       5.686   0.209   0.249  0.00  0.00     0.174 C 
ATOM     22  C   UNL d   1       5.928  -0.426  -1.112  0.00  0.00     0.034 C 
ENDBRANCH  20  21
ENDBRANCH  18  20
ENDBRANCH   1  18
TORSDOF 4
