REMARK  5 active torsions:
REMARK  status: ('A' for Active; 'I' for Inactive)
REMARK    1  A    between atoms: C_6  and  C_3 
REMARK    2  A    between atoms: S_4  and  C_10 
REMARK    3  A    between atoms: C_16  and  S_4 
REMARK    4  A    between atoms: C_10  and  C_5 
REMARK    5  A    between atoms: C_20  and  C_16 
ROOT
ATOM      1  N   UNL d   1       0.118   0.413  -1.150  0.00  0.00    -0.322 N 
ATOM      2  HN  UNL d   1       0.265   0.727  -2.109  1.00  0.00     0.169 HD
ATOM      3  C   UNL d   1      -0.289  -0.764  -0.723  0.00  0.00     0.183 A 
ATOM      4  C   UNL d   1       0.296   1.112   0.017  0.00  0.00     0.118 A 
ATOM      5  N   UNL d   1      -0.023   0.434   1.125  0.00  0.00    -0.246 N 
ATOM      6  HN  UNL d   1      -0.000   0.757   2.093  1.00  0.00     0.196 HD
ATOM      7  O   UNL d   1      -0.394  -0.820   0.641  0.00  0.00    -0.217 OA
ENDROOT
BRANCH   4   8
ATOM      8  C   UNL d   1       0.720   2.520   0.030  0.00  0.00     0.218 C 
BRANCH   8   9
ATOM      9  S   UNL d   1       2.489   2.697   0.025  0.00  0.00     0.155 S 
ATOM     10  O   UNL d   1       2.754   4.127  -0.009  0.00  0.00    -0.227 OA
ATOM     11  O   UNL d   1       3.033   1.884   1.100  0.00  0.00    -0.227 OA
BRANCH   9  12
ATOM     12  C   UNL d   1       2.995   2.006  -1.553  0.00  0.00     0.179 C 
BRANCH  12  13
ATOM     13  C   UNL d   1       4.500   2.055  -1.657  0.00  0.00    -0.044 A 
ATOM     14  C   UNL d   1       5.272   0.974  -1.199  0.00  0.00     0.011 A 
ATOM     15  C   UNL d   1       6.665   1.013  -1.280  0.00  0.00     0.043 A 
ATOM     16  C   UNL d   1       7.289   2.132  -1.816  0.00  0.00     0.116 A 
ATOM     17  C   UNL d   1       6.546   3.215  -2.270  0.00  0.00     0.043 A 
ATOM     18  F   UNL d   1       8.625   2.169  -1.893  0.00  0.00    -0.206 F 
ATOM     19  C   UNL d   1       5.151   3.179  -2.190  0.00  0.00     0.011 A 
ENDBRANCH  12  13
ENDBRANCH   9  12
ENDBRANCH   8   9
ENDBRANCH   4   8
BRANCH   3  20
ATOM     20  C   UNL d   1      -0.636  -1.981  -1.453  0.00  0.00     0.039 A 
ATOM     21  C   UNL d   1      -0.124  -2.266  -2.735  0.00  0.00     0.051 A 
ATOM     22  C   UNL d   1      -0.486  -3.440  -3.406  0.00  0.00     0.067 A 
ATOM     23 CL   UNL d   1       0.999  -1.231  -3.553  0.00  0.00    -0.083 Cl
ATOM     24  C   UNL d   1      -1.357  -4.336  -2.805  0.00  0.00     0.118 A 
ATOM     25  C   UNL d   1      -1.879  -4.086  -1.545  0.00  0.00     0.043 A 
ATOM     26  F   UNL d   1      -1.698  -5.459  -3.450  0.00  0.00    -0.206 F 
ATOM     27  C   UNL d   1      -1.521  -2.915  -0.872  0.00  0.00     0.020 A 
ENDBRANCH   3  20
TORSDOF 5
