REMARK  0 active torsions:
REMARK  status: ('A' for Active; 'I' for Inactive)
ROOT
ATOM      1  N   UNL d   1       0.950  -1.393   0.002  0.00  0.00    -0.287 N 
ATOM      2  N   UNL d   1       2.123   0.697   0.006  0.00  0.00    -0.270 N 
ATOM      3  C   UNL d   1       2.168  -0.710   0.004  0.00  0.00     0.332 A 
ATOM      4  C   UNL d   1      -0.229   0.717   0.001  0.00  0.00     0.102 A 
ATOM      5  C   UNL d   1      -0.231  -0.674   0.001  0.00  0.00     0.149 A 
ATOM      6  C   UNL d   1       0.967   1.485   0.003  0.00  0.00     0.267 A 
ATOM      7  N   UNL d   1      -1.476  -1.162   0.000  0.00  0.00    -0.244 N 
ATOM      8  HN  UNL d   1      -1.757  -2.142  -0.000  1.00  0.00     0.196 HD
ATOM      9  O   UNL d   1      -2.307  -0.044  -0.000  0.00  0.00    -0.247 OA
ATOM     10  C   UNL d   1      -1.545   1.082   0.000  0.00  0.00     0.188 A 
ATOM     11  O   UNL d   1       3.243  -1.316   0.005  0.00  0.00    -0.246 OA
ATOM     12  O   UNL d   1       0.958   2.712   0.003  0.00  0.00    -0.267 OA
ATOM     13  C   UNL d   1       0.931  -2.847   0.002  0.00  0.00     0.163 C 
ATOM     14  C   UNL d   1       3.378   1.425   0.012  0.00  0.00     0.164 C 
ENDROOT
TORSDOF 0
