REMARK  9 active torsions:
REMARK  status: ('A' for Active; 'I' for Inactive)
REMARK    1  A    between atoms: C_2  and  C_1 
REMARK       I    between atoms: N_3  and  C_1 
REMARK    2  A    between atoms: C_6  and  N_3 
REMARK    3  A    between atoms: S_11  and  C_4 
REMARK    4  A    between atoms: O_12  and  C_5 
REMARK    5  A    between atoms: C_6  and  C_5 
REMARK    6  A    between atoms: C_13  and  C_6 
REMARK    7  A    between atoms: C_18  and  S_11 
REMARK    8  A    between atoms: C_17  and  C_13 
REMARK    9  A    between atoms: S_14  and  C_17 
ROOT
ATOM      1  C   UNL d   1      -0.660  -1.711  -0.332  0.00  0.00     0.255 C 
ATOM      2  N   UNL d   1      -1.641  -0.845   0.114  0.00  0.00    -0.343 N 
ATOM      3  O   UNL d   1       0.494  -1.639   0.063  0.00  0.00    -0.268 OA
ATOM      4  H   UNL d   1      -2.605  -0.985  -0.163  0.00  0.00     0.163 HD
ENDROOT
BRANCH   1   5
ATOM      5  C   UNL d   1      -1.092  -2.720  -1.349  0.00  0.00     0.065 A 
ATOM      6  C   UNL d   1      -0.503  -3.986  -1.486  0.00  0.00     0.085 A 
ATOM      7  N   UNL d   1      -0.931  -4.874  -2.428  0.00  0.00    -0.360 N 
ATOM      8  C   UNL d   1      -1.937  -4.520  -3.252  0.00  0.00     0.089 A 
ATOM      9  HN  UNL d   1      -0.496  -5.794  -2.508  1.00  0.00     0.166 HD
ATOM     10  C   UNL d   1      -2.563  -3.295  -3.197  0.00  0.00     0.018 A 
ATOM     11  C   UNL d   1      -2.128  -2.382  -2.243  0.00  0.00     0.021 A 
BRANCH   6  12
ATOM     12  S   UNL d   1       0.771  -4.635  -0.409  0.00  0.00    -0.112 SA
BRANCH  12  13
ATOM     13  C   UNL d   1       1.513  -5.899  -1.498  0.00  0.00     0.076 C 
ATOM     14  C   UNL d   1       2.682  -6.577  -0.805  0.00  0.00     0.016 C 
ENDBRANCH  12  13
ENDBRANCH   6  12
ENDBRANCH   1   5
BRANCH   2  15
ATOM     15  C   UNL d   1      -1.415   0.125   1.199  0.00  0.00     0.185 C 
BRANCH  15  16
ATOM     16  C   UNL d   1      -0.476   1.264   0.770  0.00  0.00     0.045 C 
BRANCH  16  17
ATOM     17  C   UNL d   1      -0.261   2.368   1.809  0.00  0.00     0.076 C 
BRANCH  17  18
ATOM     18  S   UNL d   1       0.261   1.810   3.464  0.00  0.00    -0.173 SA
ATOM     19  C   UNL d   1       1.848   1.045   3.048  0.00  0.00     0.089 C 
ENDBRANCH  17  18
ENDBRANCH  16  17
ENDBRANCH  15  16
BRANCH  15  20
ATOM     20  C   UNL d   1      -2.793   0.689   1.556  0.00  0.00     0.281 C 
ATOM     21  O   UNL d   1      -3.575   1.139   0.726  0.00  0.00    -0.263 OA
BRANCH  20  22
ATOM     22  O   UNL d   1      -3.046   0.554   2.884  0.00  0.00    -0.325 OA
ATOM     23  C   UNL d   1      -4.326   0.994   3.346  0.00  0.00     0.213 C 
ENDBRANCH  20  22
ENDBRANCH  15  20
ENDBRANCH   2  15
TORSDOF 9
