REMARK  5 active torsions:
REMARK  status: ('A' for Active; 'I' for Inactive)
REMARK    1  A    between atoms: C_3  and  C_1 
REMARK    2  A    between atoms: S_7  and  C_1 
REMARK    3  A    between atoms: C_2  and  N_4 
REMARK       I    between atoms: N_4  and  C_6 
REMARK    4  A    between atoms: C_6  and  C_15 
REMARK    5  A    between atoms: C_15  and  S_7 
ROOT
ATOM      1  N   UNL d   1      -1.668   3.330  -1.552  0.00  0.00    -0.326 N 
ATOM      2  C   UNL d   1      -2.258   2.292  -0.856  0.00  0.00     0.231 C 
ATOM      3  O   UNL d   1      -1.628   1.363  -0.346  0.00  0.00    -0.272 OA
ATOM      4  H   UNL d   1      -2.241   3.754  -2.263  0.00  0.00     0.169 HD
ENDROOT
BRANCH   2   5
ATOM      5  C   UNL d   1      -3.778   2.323  -0.730  0.00  0.00     0.185 C 
BRANCH   5   6
ATOM      6  S   UNL d   1      -4.597   3.820  -1.336  0.00  0.00    -0.077 SA
BRANCH   6   7
ATOM      7  C   UNL d   1      -4.583   3.518  -3.074  0.00  0.00     0.226 C 
ATOM      8  O   UNL d   1      -4.572   2.368  -3.497  0.00  0.00    -0.279 OA
BRANCH   7   9
ATOM      9  C   UNL d   1      -4.577   4.697  -3.930  0.00  0.00     0.061 A 
ATOM     10  S   UNL d   1      -3.987   6.231  -3.428  0.00  0.00    -0.098 SA
ATOM     11  C   UNL d   1      -4.325   6.949  -4.939  0.00  0.00     0.050 A 
ATOM     12  C   UNL d   1      -4.836   6.040  -5.834  0.00  0.00     0.009 A 
ATOM     13  C   UNL d   1      -4.958   4.739  -5.262  0.00  0.00     0.024 A 
ENDBRANCH   7   9
ENDBRANCH   6   7
ENDBRANCH   5   6
ENDBRANCH   2   5
BRANCH   1  14
ATOM     14  C   UNL d   1      -0.278   3.412  -1.778  0.00  0.00     0.046 A 
ATOM     15  C   UNL d   1       0.192   3.387  -3.109  0.00  0.00    -0.035 A 
ATOM     16  C   UNL d   1       1.554   3.622  -3.358  0.00  0.00     0.009 A 
ATOM     17  C   UNL d   1      -0.669   3.031  -4.292  0.00  0.00     0.050 C 
ATOM     18  C   UNL d   1       2.436   3.870  -2.312  0.00  0.00     0.001 A 
ATOM     19  C   UNL d   1       1.971   3.871  -1.001  0.00  0.00     0.009 A 
ATOM     20  C   UNL d   1       0.614   3.642  -0.711  0.00  0.00    -0.035 A 
ATOM     21  C   UNL d   1       0.203   3.746   0.733  0.00  0.00     0.050 C 
ENDBRANCH   1  14
TORSDOF 5
