REMARK  3 active torsions:
REMARK  status: ('A' for Active; 'I' for Inactive)
REMARK    1  A    between atoms: C_7  and  C_1 
REMARK    2  A    between atoms: C_8  and  C_2 
REMARK    3  A    between atoms: C_6  and  C_4 
ROOT
ATOM      1  C   UNL d   1      -0.071   1.108  -0.053  0.00  0.00     0.097 A 
ATOM      2  C   UNL d   1       1.227   0.629   0.080  0.00  0.00     0.012 A 
ATOM      3  O   UNL d   1      -0.950   0.055  -0.086  0.00  0.00    -0.308 OA
ATOM      4  C   UNL d   1      -0.224  -1.101  -0.009  0.00  0.00     0.087 A 
ATOM      5  C   UNL d   1       1.115  -0.787   0.105  0.00  0.00     0.053 A 
ENDROOT
BRANCH   4   6
ATOM      6  C   UNL d   1      -0.957  -2.365  -0.073  0.00  0.00    -0.002 A 
ATOM      7  C   UNL d   1      -2.360  -2.410  -0.066  0.00  0.00     0.017 A 
ATOM      8  C   UNL d   1      -3.036  -3.633  -0.131  0.00  0.00     0.043 A 
ATOM      9  C   UNL d   1      -2.313  -4.817  -0.208  0.00  0.00     0.116 A 
ATOM     10  C   UNL d   1      -0.927  -4.803  -0.218  0.00  0.00     0.043 A 
ATOM     11  F   UNL d   1      -2.962  -5.987  -0.274  0.00  0.00    -0.206 F 
ATOM     12  C   UNL d   1      -0.252  -3.582  -0.149  0.00  0.00     0.017 A 
ENDBRANCH   4   6
BRANCH   1  13
ATOM     13  C   UNL d   1      -0.677   2.434  -0.171  0.00  0.00    -0.001 A 
ATOM     14  C   UNL d   1      -0.077   3.430  -0.956  0.00  0.00     0.014 A 
ATOM     15  C   UNL d   1      -0.578   4.734  -0.967  0.00  0.00     0.001 A 
ATOM     16  C   UNL d   1      -1.706   5.052  -0.214  0.00  0.00     0.000 A 
ATOM     17  C   UNL d   1      -2.342   4.063   0.534  0.00  0.00     0.001 A 
ATOM     18  C   UNL d   1      -1.832   2.760   0.554  0.00  0.00     0.014 A 
ENDBRANCH   1  13
BRANCH   2  19
ATOM     19  C   UNL d   1       2.445   1.426   0.159  0.00  0.00    -0.023 A 
ATOM     20  C   UNL d   1       2.503   2.623   0.884  0.00  0.00     0.012 A 
ATOM     21  C   UNL d   1       3.675   3.384   0.909  0.00  0.00     0.001 A 
ATOM     22  C   UNL d   1       4.812   2.938   0.240  0.00  0.00     0.000 A 
ATOM     23  C   UNL d   1       4.779   1.731  -0.455  0.00  0.00     0.001 A 
ATOM     24  C   UNL d   1       3.602   0.981  -0.498  0.00  0.00     0.012 A 
ENDBRANCH   2  19
TORSDOF 3
