REMARK  11 active torsions:
REMARK  status: ('A' for Active; 'I' for Inactive)
REMARK    1  A    between atoms: C_15  and  C_1 
REMARK    2  A    between atoms: C_7  and  N_9 
REMARK    3  A    between atoms: N_13  and  C_7 
REMARK    4  A    between atoms: C_8  and  C_16 
REMARK       I    between atoms: N_10  and  C_8 
REMARK    5  A    between atoms: N_9  and  N_10 
REMARK    6  A    between atoms: C_24  and  N_13 
REMARK    7  A    between atoms: S_14  and  C_15 
REMARK    8  A    between atoms: C_16  and  S_14 
REMARK    9  A    between atoms: C_22  and  C_24 
REMARK   10  A    between atoms: C_25  and  C_22 
REMARK   11  A    between atoms: O_23  and  C_25 
ROOT
ATOM      1  C   UNL d   1      -4.625   4.197   0.780  0.00  0.00     0.245 C 
ATOM      2  N   UNL d   1      -5.288   3.135   1.366  0.00  0.00    -0.267 N 
ATOM      3  O   UNL d   1      -4.531   5.303   1.313  0.00  0.00    -0.271 OA
ATOM      4  H   UNL d   1      -5.443   2.256   0.878  0.00  0.00     0.190 HD
ENDROOT
BRANCH   1   5
ATOM      5  C   UNL d   1      -4.114   3.900  -0.619  0.00  0.00     0.178 C 
BRANCH   5   6
ATOM      6  S   UNL d   1      -2.408   3.298  -0.708  0.00  0.00    -0.155 SA
BRANCH   6   7
ATOM      7  C   UNL d   1      -2.554   1.658   0.095  0.00  0.00     0.114 C 
BRANCH   7   8
ATOM      8  C   UNL d   1      -1.259   0.836   0.066  0.00  0.00    -0.036 C 
ATOM      9  C   UNL d   1      -0.076   1.354   0.660  0.00  0.00    -0.048 C 
ATOM     10  C   UNL d   1       1.155   0.675   0.496  0.00  0.00    -0.049 C 
ATOM     11  C   UNL d   1      -0.102   2.630   1.475  0.00  0.00     0.049 C 
ATOM     12  C   UNL d   1       2.455   1.341   0.898  0.00  0.00     0.049 C 
ATOM     13  C   UNL d   1       1.170  -0.650  -0.001  0.00  0.00    -0.049 C 
ATOM     14  C   UNL d   1      -0.034  -1.252  -0.455  0.00  0.00    -0.049 C 
ATOM     15  C   UNL d   1       2.488  -1.400  -0.011  0.00  0.00     0.049 C 
ATOM     16  C   UNL d   1      -1.234  -0.484  -0.491  0.00  0.00    -0.048 C 
ATOM     17  C   UNL d   1       0.019  -2.704  -0.882  0.00  0.00     0.049 C 
ATOM     18  C   UNL d   1      -2.509  -1.047  -1.084  0.00  0.00     0.049 C 
ENDBRANCH   7   8
ENDBRANCH   6   7
ENDBRANCH   5   6
ENDBRANCH   1   5
BRANCH   2  19
ATOM     19  N   UNL d   1      -6.163   3.390   2.432  0.00  0.00    -0.274 N 
ATOM     20  H   UNL d   1      -6.355   4.379   2.602  0.00  0.00     0.189 HD
BRANCH  19  21
ATOM     21  C   UNL d   1      -6.236   2.548   3.514  0.00  0.00     0.186 C 
ATOM     22  S   UNL d   1      -5.242   1.236   3.802  0.00  0.00    -0.040 SA
BRANCH  21  23
ATOM     23  N   UNL d   1      -7.270   2.786   4.378  0.00  0.00    -0.366 N 
ATOM     24  H   UNL d   1      -7.284   2.170   5.184  0.00  0.00     0.161 HD
BRANCH  23  25
ATOM     25  C   UNL d   1      -8.506   3.486   4.040  0.00  0.00     0.124 C 
BRANCH  25  26
ATOM     26  C   UNL d   1      -9.705   2.884   4.774  0.00  0.00     0.046 C 
BRANCH  26  27
ATOM     27  C   UNL d   1     -11.004   3.603   4.427  0.00  0.00     0.168 C 
BRANCH  27  28
ATOM     28  O   UNL d   1     -11.248   3.487   3.026  0.00  0.00    -0.396 OA
ATOM     29  C   UNL d   1     -12.440   4.159   2.640  0.00  0.00     0.201 C 
ENDBRANCH  27  28
ENDBRANCH  26  27
ENDBRANCH  25  26
ENDBRANCH  23  25
ENDBRANCH  21  23
ENDBRANCH  19  21
ENDBRANCH   2  19
TORSDOF 11
