REMARK  3 active torsions:
REMARK  status: ('A' for Active; 'I' for Inactive)
REMARK    1  A    between atoms: C_4  and  C_1 
REMARK    2  A    between atoms: C_3  and  C_2 
REMARK    3  A    between atoms: C_8  and  C_4 
ROOT
ATOM      1  C   UNL d   1       0.612   0.947  -0.205  0.00  0.00     0.081 C 
ATOM      2  C   UNL d   1      -0.870   0.967   0.003  0.00  0.00     0.090 C 
ATOM      3  N   UNL d   1       1.130  -0.216  -0.466  0.00  0.00    -0.321 N 
ATOM      4  HN  UNL d   1       2.123  -0.429  -0.557  1.00  0.00     0.180 HD
ATOM      5  N   UNL d   1       0.106  -1.092  -0.596  0.00  0.00    -0.239 NA
ATOM      6  C   UNL d   1      -1.190  -0.517  -0.227  0.00  0.00     0.126 C 
ATOM      7  H   UNL d   1       0.291  -1.978  -0.119  0.00  0.00     0.146 HD
ENDROOT
BRANCH   1   8
ATOM      8  C   UNL d   1       1.421   2.228  -0.158  0.00  0.00     0.206 C 
ATOM      9  O   UNL d   1       0.845   3.282   0.070  0.00  0.00    -0.285 OA
BRANCH   8  10
ATOM     10  C   UNL d   1       2.885   2.214  -0.398  0.00  0.00     0.017 A 
ATOM     11  C   UNL d   1       3.684   3.162   0.261  0.00  0.00     0.028 A 
ATOM     12  C   UNL d   1       5.098   3.173   0.138  0.00  0.00    -0.014 A 
ATOM     13  C   UNL d   1       5.968   4.093   0.825  0.00  0.00    -0.015 A 
ATOM     14  C   UNL d   1       5.674   2.186  -0.704  0.00  0.00    -0.025 A 
ATOM     15  C   UNL d   1       7.374   3.956   0.681  0.00  0.00    -0.025 A 
ATOM     16  C   UNL d   1       5.515   5.147   1.658  0.00  0.00     0.013 A 
ATOM     17  C   UNL d   1       8.250   4.809   1.370  0.00  0.00     0.012 A 
ATOM     18  C   UNL d   1       7.898   2.963  -0.151  0.00  0.00     0.013 A 
ATOM     19  C   UNL d   1       7.767   5.822   2.193  0.00  0.00     0.001 A 
ATOM     20  C   UNL d   1       6.398   5.998   2.329  0.00  0.00     0.001 A 
ATOM     21  C   UNL d   1       7.059   2.099  -0.844  0.00  0.00     0.013 A 
ATOM     22  C   UNL d   1       4.865   1.280  -1.403  0.00  0.00     0.013 A 
ATOM     23  C   UNL d   1       3.482   1.300  -1.260  0.00  0.00     0.016 A 
ENDBRANCH   8  10
ENDBRANCH   1   8
BRANCH   2  24
ATOM     24  C   UNL d   1      -1.361   1.521   1.345  0.00  0.00    -0.025 A 
ATOM     25  C   UNL d   1      -2.239   2.668   1.338  0.00  0.00    -0.018 A 
ATOM     26  C   UNL d   1      -2.789   3.107   2.565  0.00  0.00    -0.025 A 
ATOM     27  C   UNL d   1      -2.607   3.421   0.190  0.00  0.00     0.013 A 
ATOM     28  C   UNL d   1      -3.664   4.207   2.611  0.00  0.00     0.012 A 
ATOM     29  C   UNL d   1      -2.470   2.444   3.753  0.00  0.00     0.024 A 
ATOM     30  C   UNL d   1      -4.012   4.906   1.460  0.00  0.00     0.001 A 
ATOM     31  C   UNL d   1      -3.479   4.515   0.245  0.00  0.00     0.001 A 
ATOM     32  C   UNL d   1      -1.599   1.353   3.789  0.00  0.00    -0.025 A 
ATOM     33  C   UNL d   1      -1.007   0.882   2.597  0.00  0.00    -0.018 A 
ATOM     34  C   UNL d   1      -1.333   0.732   5.026  0.00  0.00     0.012 A 
ATOM     35  C   UNL d   1      -0.107  -0.209   2.756  0.00  0.00     0.013 A 
ATOM     36  C   UNL d   1       0.143  -0.830   3.983  0.00  0.00     0.001 A 
ATOM     37  C   UNL d   1      -0.478  -0.360   5.124  0.00  0.00     0.001 A 
ENDBRANCH   2  24
TORSDOF 3
