REMARK  5 active torsions:
REMARK  status: ('A' for Active; 'I' for Inactive)
REMARK    1  A    between atoms: N_2  and  C_1 
REMARK    2  A    between atoms: N_4  and  C_1 
REMARK    3  A    between atoms: C_3  and  N_2 
REMARK    4  A    between atoms: S_10  and  C_3 
REMARK    5  A    between atoms: C_8  and  N_4 
ROOT
ATOM      1  C   UNL d   1       1.044   0.232  -0.094  0.00  0.00     0.178 C 
ATOM      2  S   UNL d   1       0.519   1.542   0.816  0.00  0.00    -0.040 SA
ENDROOT
BRANCH   1   3
ATOM      3  N   UNL d   1       2.375   0.053  -0.502  0.00  0.00    -0.314 N 
ATOM      4  H   UNL d   1       2.598  -0.826  -0.943  0.00  0.00     0.170 HD
BRANCH   3   5
ATOM      5  C   UNL d   1       3.471   0.881  -0.429  0.00  0.00     0.139 C 
ATOM      6  N   UNL d   1       3.460   2.115  -0.078  0.00  0.00    -0.380 N 
ATOM      7  H   UNL d   1       2.495   2.385   0.151  0.00  0.00     0.158 HD
ATOM      8  HN  UNL d   1       4.275   2.727  -0.034  1.00  0.00     0.158 HD
BRANCH   5   9
ATOM      9  S   UNL d   1       4.933   0.070  -0.888  0.00  0.00    -0.099 SA
ATOM     10  C   UNL d   1       6.145   1.332  -0.423  0.00  0.00     0.099 C 
ENDBRANCH   5   9
ENDBRANCH   3   5
ENDBRANCH   1   3
BRANCH   1  11
ATOM     11  N   UNL d   1       0.255  -0.847  -0.498  0.00  0.00    -0.333 N 
ATOM     12  H   UNL d   1       0.713  -1.750  -0.476  0.00  0.00     0.168 HD
BRANCH  11  13
ATOM     13  C   UNL d   1      -1.158  -0.899  -0.601  0.00  0.00     0.035 A 
ATOM     14  C   UNL d   1      -1.935   0.213  -0.939  0.00  0.00     0.053 A 
ATOM     15  C   UNL d   1      -3.324   0.107  -1.001  0.00  0.00     0.036 A 
ATOM     16 CL   UNL d   1      -4.268   1.493  -1.393  0.00  0.00    -0.084 Cl
ATOM     17  C   UNL d   1      -3.953  -1.109  -0.753  0.00  0.00     0.024 A 
ATOM     18  C   UNL d   1      -3.183  -2.234  -0.465  0.00  0.00     0.004 A 
ATOM     19  C   UNL d   1      -1.788  -2.133  -0.405  0.00  0.00     0.029 A 
ENDBRANCH  11  13
ENDBRANCH   1  11
TORSDOF 5
