REMARK  1 active torsions:
REMARK  status: ('A' for Active; 'I' for Inactive)
REMARK    1  A    between atoms: C_8  and  C_3 
REMARK       I    between atoms: C_10  and  N_6 
ROOT
ATOM      1  C   UNL d   1      -0.561  -1.221  -0.185  0.00  0.00     0.690 C 
ATOM      2  N   UNL d   1      -1.163  -0.077   0.239  0.00  0.00    -0.154 N 
ATOM      3  C   UNL d   1       0.772  -0.323   1.417  0.00  0.00     0.121 C 
ATOM      4  N   UNL d   1       0.693  -1.285   0.402  0.00  0.00    -0.182 N 
ATOM      5  C   UNL d   1      -0.445   0.547   1.220  0.00  0.00     0.287 C 
ATOM      6  N   UNL d   1      -1.258  -1.968  -0.955  0.00  0.00    -0.160 N 
ATOM      7  HN  UNL d   1      -2.109  -1.606  -1.386  1.00  0.00     0.187 HD
ATOM      8  C   UNL d   1      -0.858  -3.256  -1.200  0.00  0.00     0.231 C 
ATOM      9  O   UNL d   1      -0.737   1.594   1.761  0.00  0.00    -0.265 OA
ATOM     10  O   UNL d   1      -0.143  -3.940  -0.473  0.00  0.00    -0.273 OA
ATOM     11  C   UNL d   1       1.856  -1.733  -0.351  0.00  0.00     0.176 C 
ATOM     12  C   UNL d   1      -1.452  -3.849  -2.447  0.00  0.00     0.118 C 
ATOM     13  H   UNL d   1      -2.075   0.224  -0.056  0.00  0.00     0.187 HD
ENDROOT
BRANCH   3  14
ATOM     14  C   UNL d   1       1.683  -0.263   2.401  0.00  0.00     0.054 C 
ATOM     15  C   UNL d   1       1.609   0.549   3.568  0.00  0.00     0.007 A 
ATOM     16  S   UNL d   1       3.070   1.092   4.308  0.00  0.00    -0.102 SA
ATOM     17  C   UNL d   1       0.520   0.927   4.337  0.00  0.00     0.019 A 
ATOM     18  C   UNL d   1       2.236   1.835   5.600  0.00  0.00     0.050 A 
ATOM     19  C   UNL d   1       0.876   1.678   5.493  0.00  0.00     0.008 A 
ENDBRANCH   3  14
TORSDOF 1
