REMARK  10 active torsions:
REMARK  status: ('A' for Active; 'I' for Inactive)
REMARK    1  A    between atoms: N_2  and  CA_1 
REMARK    2  A    between atoms: C_3  and  CA_1 
REMARK    3  A    between atoms: CB_5  and  CA_1 
REMARK    4  A    between atoms: C4_13  and  N_2 
REMARK    5  A    between atoms: OXT_6  and  C_3 
REMARK    6  A    between atoms: OG1_7  and  CB_5 
REMARK    7  A    between atoms: C3_12  and  C6_15 
REMARK    8  A    between atoms: O1_16  and  C3_12 
REMARK    9  A    between atoms: C6_15  and  C5_14 
REMARK   10  A    between atoms: C8_18  and  O1_16 
ROOT
ATOM      1  C4  <1> d   1       1.470  -1.981  -1.526  0.00  0.00     0.035 C 
ATOM      2  C5  <1> d   1       2.595  -2.799  -1.220  0.00  0.00    -0.022 C 
ATOM      3  C9  <1> d   1       0.479  -2.565  -2.323  0.00  0.00     0.029 C 
ATOM      4  C10 <1> d   1       2.765  -4.046  -1.864  0.00  0.00     0.010 C 
ATOM      5  C15 <1> d   1       0.619  -3.844  -2.882  0.00  0.00     0.002 C 
ATOM      6  C16 <1> d   1       1.777  -4.571  -2.683  0.00  0.00     0.001 C 
ENDROOT
BRANCH   1   7
ATOM      7  N   THR d   1       1.371  -0.728  -0.960  0.00  0.00    -0.373 N 
ATOM      8  H   THR d   1       2.285  -0.351  -0.708  0.00  0.00     0.160 HD
BRANCH   7   9
ATOM      9  CA  THR d   1       0.381   0.399  -0.951  0.00  0.00     0.208 C 
BRANCH   9  10
ATOM     10  C   THR d   1       0.812   1.506  -1.921  0.00  0.00     0.166 C 
ATOM     11  O   THR d   1       0.766   2.701  -1.672  0.00  0.00    -0.648 OA
BRANCH  10  12
ATOM     12  OXT THR d   1       1.242   1.032  -3.118  0.00  0.00    -0.775 OA
ATOM     13  HXT THR d   1       1.265   0.053  -3.117  0.00  0.00     0.167 HD
ENDBRANCH  10  12
ENDBRANCH   9  10
BRANCH   9  14
ATOM     14  CB  THR d   1      -1.096   0.040  -1.160  0.00  0.00     0.147 C 
ATOM     15  CG2 THR d   1      -2.034   1.225  -0.932  0.00  0.00     0.042 C 
BRANCH  14  16
ATOM     16  OG1 THR d   1      -1.503  -0.991  -0.253  0.00  0.00    -0.393 OA
ATOM     17  HG1 THR d   1      -0.733  -1.579  -0.118  0.00  0.00     0.210 HD
ENDBRANCH  14  16
ENDBRANCH   9  14
ENDBRANCH   7   9
ENDBRANCH   1   7
BRANCH   2  18
ATOM     18  C6  <1> d   1       3.658  -2.374  -0.213  0.00  0.00     0.151 C 
BRANCH  18  19
ATOM     19  C3  <1> d   1       4.300  -3.525   0.544  0.00  0.00     0.263 C 
ATOM     20  O3  <1> d   1       3.689  -4.375   1.174  0.00  0.00    -0.265 OA
BRANCH  19  21
ATOM     21  O1  <1> d   1       5.653  -3.480   0.385  0.00  0.00    -0.311 OA
BRANCH  21  22
ATOM     22  C8  <1> d   1       6.507  -4.538   0.896  0.00  0.00     0.060 C 
ATOM     23  C11 <1> d   1       6.270  -5.844   0.130  0.00  0.00     0.045 C 
ATOM     24  C12 <1> d   1       7.933  -4.045   0.609  0.00  0.00     0.045 C 
ATOM     25  C13 <1> d   1       6.349  -4.735   2.408  0.00  0.00     0.045 C 
ENDBRANCH  21  22
ENDBRANCH  19  21
ENDBRANCH  18  19
ENDBRANCH   2  18
TORSDOF 10
