REMARK  7 active torsions:
REMARK  status: ('A' for Active; 'I' for Inactive)
REMARK    1  A    between atoms: C_2  and  C_1 
REMARK    2  A    between atoms: N_3  and  C_1 
REMARK    3  A    between atoms: C_4  and  C_1 
REMARK    4  A    between atoms: N_5  and  C_1 
REMARK       I    between atoms: C_6  and  N_3 
REMARK    5  A    between atoms: O_14  and  C_4 
REMARK    6  A    between atoms: C_7  and  N_5 
REMARK    7  A    between atoms: C_20  and  O_14 
ROOT
ATOM      1  C   UNL d   1       0.923  -0.090  -0.167  0.00  0.00     0.296 C 
ENDROOT
BRANCH   1   2
ATOM      2  C   UNL d   1       0.185   0.278  -1.502  0.00  0.00     0.442 C 
ATOM      3  F   UNL d   1      -0.420  -0.806  -2.062  0.00  0.00    -0.166 F 
ATOM      4  F   UNL d   1      -0.773   1.225  -1.360  0.00  0.00    -0.166 F 
ATOM      5  F   UNL d   1       1.043   0.743  -2.451  0.00  0.00    -0.166 F 
ENDBRANCH   1   2
BRANCH   1   6
ATOM      6  N   UNL d   1       0.590  -1.373   0.453  0.00  0.00    -0.319 N 
ATOM      7  C   UNL d   1      -0.695  -1.748   0.717  0.00  0.00     0.216 C 
ATOM      8  O   UNL d   1      -1.662  -1.064   0.389  0.00  0.00    -0.274 OA
ATOM      9  C   UNL d   1      -0.826  -3.039   1.467  0.00  0.00     0.117 C 
ATOM     10  H   UNL d   1       1.376  -1.954   0.696  0.00  0.00     0.165 HD
ENDBRANCH   1   6
BRANCH   1  11
ATOM     11  C   UNL d   1       0.642   1.110   0.793  0.00  0.00     0.318 C 
ATOM     12  O   UNL d   1       1.014   2.261   0.579  0.00  0.00    -0.260 OA
BRANCH  11  13
ATOM     13  O   UNL d   1       0.138   0.685   1.990  0.00  0.00    -0.318 OA
BRANCH  13  14
ATOM     14  C   UNL d   1       0.299   1.567   3.104  0.00  0.00     0.174 C 
ATOM     15  C   UNL d   1       1.643   1.258   3.739  0.00  0.00     0.034 C 
ENDBRANCH  13  14
ENDBRANCH  11  13
ENDBRANCH   1  11
BRANCH   1  16
ATOM     16  N   UNL d   1       2.412  -0.197  -0.225  0.00  0.00    -0.348 N 
ATOM     17  H   UNL d   1       2.904   0.439   0.400  0.00  0.00     0.163 HD
BRANCH  16  18
ATOM     18  C   UNL d   1       3.192  -0.975  -1.045  0.00  0.00     0.030 A 
ATOM     19  C   UNL d   1       2.676  -1.929  -1.933  0.00  0.00     0.036 A 
ATOM     20  C   UNL d   1       3.515  -2.751  -2.697  0.00  0.00    -0.060 A 
ATOM     21  C   UNL d   1       2.926  -3.794  -3.601  0.00  0.00     0.048 C 
ATOM     22  C   UNL d   1       4.900  -2.603  -2.599  0.00  0.00     0.007 A 
ATOM     23  C   UNL d   1       5.435  -1.644  -1.744  0.00  0.00     0.003 A 
ATOM     24  C   UNL d   1       4.586  -0.843  -0.979  0.00  0.00     0.029 A 
ENDBRANCH  16  18
ENDBRANCH   1  16
TORSDOF 7
