REMARK  4 active torsions:
REMARK  status: ('A' for Active; 'I' for Inactive)
REMARK    1  A    between atoms: C_2  and  C_1 
REMARK       I    between atoms: N_12  and  C_2 
REMARK    2  A    between atoms: C_17  and  C_5 
REMARK    3  A    between atoms: C_7  and  N_13 
REMARK    4  A    between atoms: C_8  and  C_9 
ROOT
ATOM      1  C   UNL d   1       0.049  -2.611   0.182  0.00  0.00     0.256 C 
ATOM      2  N   UNL d   1      -1.013  -3.502   0.026  0.00  0.00    -0.345 N 
ATOM      3  N   UNL d   1      -3.311  -5.164  -0.114  0.00  0.00    -0.363 N 
ATOM      4  O   UNL d   1       0.894  -2.757   1.062  0.00  0.00    -0.267 OA
ATOM      5  C   UNL d   1      -1.765  -3.700  -1.227  0.00  0.00     0.146 C 
ATOM      6  C   UNL d   1      -1.168  -4.611   0.988  0.00  0.00     0.146 C 
ATOM      7  C   UNL d   1      -3.246  -3.924  -0.901  0.00  0.00     0.144 C 
ATOM      8  C   UNL d   1      -2.652  -5.025   1.200  0.00  0.00     0.144 C 
ENDROOT
BRANCH   1   9
ATOM      9  C   UNL d   1       0.104  -1.470  -0.727  0.00  0.00     0.064 C 
ATOM     10  C   UNL d   1      -0.970  -0.689  -1.250  0.00  0.00     0.057 C 
ATOM     11  C   UNL d   1      -0.437   0.190  -2.166  0.00  0.00     0.087 C 
ATOM     12  O   UNL d   1       0.925   0.103  -2.124  0.00  0.00    -0.314 OA
ATOM     13  C   UNL d   1       1.250  -0.875  -1.227  0.00  0.00     0.065 C 
ATOM     14  C   UNL d   1       2.699  -1.094  -1.024  0.00  0.00     0.077 C 
BRANCH  11  15
ATOM     15  C   UNL d   1      -1.022   1.122  -3.125  0.00  0.00    -0.002 A 
ATOM     16  C   UNL d   1      -2.408   1.109  -3.362  0.00  0.00     0.016 A 
ATOM     17  C   UNL d   1      -2.991   1.990  -4.279  0.00  0.00     0.024 A 
ATOM     18  C   UNL d   1      -2.191   2.894  -4.971  0.00  0.00     0.034 A 
ATOM     19  C   UNL d   1      -0.815   2.915  -4.761  0.00  0.00     0.024 A 
ATOM     20 CL   UNL d   1      -2.909   3.985  -6.089  0.00  0.00    -0.084 Cl
ATOM     21  C   UNL d   1      -0.234   2.031  -3.845  0.00  0.00     0.016 A 
ENDBRANCH  11  15
ENDBRANCH   1   9
BRANCH   3  22
ATOM     22  C   UNL d   1      -4.459  -5.933  -0.212  0.00  0.00     0.125 A 
ATOM     23  N   UNL d   1      -5.137  -6.220   0.924  0.00  0.00    -0.350 N 
ATOM     24  C   UNL d   1      -6.229  -7.024   0.854  0.00  0.00     0.106 A 
ATOM     25  HN  UNL d   1      -4.832  -5.838   1.819  1.00  0.00     0.166 HD
ATOM     26  C   UNL d   1      -6.714  -7.579  -0.320  0.00  0.00     0.065 A 
ATOM     27  C   UNL d   1      -6.020  -7.289  -1.491  0.00  0.00     0.045 A 
ATOM     28  C   UNL d   1      -4.884  -6.482  -1.445  0.00  0.00     0.078 A 
ATOM     29 CL   UNL d   1      -3.998  -6.324  -2.926  0.00  0.00    -0.080 Cl
BRANCH  26  30
ATOM     30  C   UNL d   1      -7.904  -8.483  -0.299  0.00  0.00     0.418 C 
ATOM     31  F   UNL d   1      -8.300  -8.882  -1.539  0.00  0.00    -0.166 F 
ATOM     32  F   UNL d   1      -7.675  -9.625   0.404  0.00  0.00    -0.166 F 
ATOM     33  F   UNL d   1      -8.993  -7.901   0.271  0.00  0.00    -0.166 F 
ENDBRANCH  26  30
ENDBRANCH   3  22
TORSDOF 4
