REMARK  4 active torsions:
REMARK  status: ('A' for Active; 'I' for Inactive)
REMARK    1  A    between atoms: N_11  and  C_1 
REMARK    2  A    between atoms: C_14  and  N_11 
REMARK    3  A    between atoms: C_15  and  N_12 
REMARK    4  A    between atoms: C_20  and  C_15 
ROOT
ATOM      1  N   UNL d   1      -1.115  -2.822  -0.497  0.00  0.00    -0.273 NA
ATOM      2  H   UNL d   1      -1.140  -2.575  -1.478  0.00  0.00     0.129 HD
ENDROOT
BRANCH   1   3
ATOM      3  C   UNL d   1       0.199  -3.074  -0.096  0.00  0.00     0.095 A 
ATOM      4  C   UNL d   1       1.309  -2.310  -0.548  0.00  0.00     0.043 A 
ATOM      5  C   UNL d   1       2.549  -2.751  -0.101  0.00  0.00     0.088 A 
ATOM      6  C   UNL d   1       1.471  -1.116  -1.376  0.00  0.00    -0.039 A 
ATOM      7  S   UNL d   1       3.857  -1.835  -0.691  0.00  0.00    -0.083 SA
ATOM      8  N   UNL d   1       2.800  -3.790   0.712  0.00  0.00    -0.346 N 
ATOM      9  C   UNL d   1       2.810  -0.784  -1.523  0.00  0.00     0.059 A 
ATOM     10  C   UNL d   1       1.687  -4.402   1.102  0.00  0.00     0.182 A 
ATOM     11  HN  UNL d   1       3.737  -4.077   0.996  1.00  0.00     0.167 HD
ATOM     12  N   UNL d   1       0.432  -4.103   0.751  0.00  0.00    -0.342 N 
ATOM     13  HN  UNL d   1      -0.346  -4.649   1.120  1.00  0.00     0.167 HD
ATOM     14  C   UNL d   1       0.399  -0.271  -1.988  0.00  0.00     0.050 C 
ENDBRANCH   1   3
BRANCH   1  15
ATOM     15  C   UNL d   1      -2.167  -3.768  -0.084  0.00  0.00     0.065 C 
ATOM     16  C   UNL d   1      -3.352  -3.695  -1.051  0.00  0.00     0.050 C 
ATOM     17  C   UNL d   1      -4.093  -2.363  -0.947  0.00  0.00     0.274 C 
ATOM     18  N   UNL d   1      -4.530  -2.064   0.420  0.00  0.00     0.092 N 
ATOM     19  C   UNL d   1      -3.418  -2.127   1.381  0.00  0.00     0.274 C 
ATOM     20  C   UNL d   1      -2.670  -3.459   1.329  0.00  0.00     0.050 C 
BRANCH  18  21
ATOM     21  C   UNL d   1      -5.264  -0.780   0.503  0.00  0.00     0.311 C 
BRANCH  21  22
ATOM     22  C   UNL d   1      -4.459   0.464   0.167  0.00  0.00    -0.030 A 
ATOM     23  C   UNL d   1      -4.345   0.909  -1.158  0.00  0.00     0.009 A 
ATOM     24  C   UNL d   1      -3.475   1.949  -1.487  0.00  0.00     0.001 A 
ATOM     25  C   UNL d   1      -2.729   2.575  -0.491  0.00  0.00     0.000 A 
ATOM     26  C   UNL d   1      -2.873   2.179   0.838  0.00  0.00     0.001 A 
ATOM     27  C   UNL d   1      -3.740   1.137   1.166  0.00  0.00     0.009 A 
ENDBRANCH  21  22
ENDBRANCH  18  21
ENDBRANCH   1  15
TORSDOF 4
