REMARK  1 active torsions:
REMARK  status: ('A' for Active; 'I' for Inactive)
REMARK       I    between atoms: C_7  and  N_1 
REMARK    1  A    between atoms: C_8  and  C_4 
ROOT
ATOM      1  N   UNL d   1      -0.303   1.108   0.177  0.00  0.00    -0.224 N 
ATOM      2  N   UNL d   1       0.996   0.695   0.222  0.00  0.00    -0.272 N 
ATOM      3  HN  UNL d   1       1.825   1.255   0.417  1.00  0.00     0.189 HD
ATOM      4  C   UNL d   1       0.935  -0.571  -0.039  0.00  0.00     0.171 A 
ATOM      5  C   UNL d   1      -1.179   0.015  -0.224  0.00  0.00     0.158 A 
ATOM      6  O   UNL d   1      -0.290  -1.113  -0.249  0.00  0.00    -0.301 OA
ATOM      7  C   UNL d   1      -0.689   2.412   0.389  0.00  0.00     0.237 C 
ATOM      8  O   UNL d   1      -1.859   2.787   0.296  0.00  0.00    -0.272 OA
ATOM      9  C   UNL d   1      -2.302  -0.266   0.770  0.00  0.00     0.073 C 
ATOM     10  C   UNL d   1      -1.718   0.196  -1.644  0.00  0.00     0.073 C 
ATOM     11  C   UNL d   1       0.408   3.398   0.720  0.00  0.00     0.119 C 
ENDROOT
BRANCH   4  12
ATOM     12  C   UNL d   1       2.070  -1.482  -0.161  0.00  0.00     0.032 A 
ATOM     13  C   UNL d   1       1.904  -2.828  -0.453  0.00  0.00     0.103 A 
ATOM     14  N   UNL d   1       2.934  -3.694  -0.620  0.00  0.00    -0.374 N 
ATOM     15  C   UNL d   1       4.182  -3.191  -0.492  0.00  0.00     0.087 A 
ATOM     16  HN  UNL d   1       2.774  -4.679  -0.833  1.00  0.00     0.164 HD
ATOM     17  C   UNL d   1       4.449  -1.861  -0.199  0.00  0.00     0.018 A 
ATOM     18  C   UNL d   1       3.374  -0.994  -0.030  0.00  0.00     0.018 A 
ENDBRANCH   4  12
TORSDOF 1
