REMARK  4 active torsions:
REMARK  status: ('A' for Active; 'I' for Inactive)
REMARK    1  A    between atoms: C_6  and  C_1 
REMARK    2  A    between atoms: C_9  and  C_2 
REMARK    3  A    between atoms: C_17  and  N_3 
REMARK       I    between atoms: N_11  and  C_6 
REMARK    4  A    between atoms: C_7  and  N_12 
ROOT
ATOM      1  C   UNL d   1       0.033   2.966   0.177  0.00  0.00     0.257 C 
ATOM      2  N   UNL d   1       1.029   3.937   0.107  0.00  0.00    -0.346 N 
ATOM      3  N   UNL d   1       3.313   5.720   0.038  0.00  0.00    -0.265 NA
ATOM      4  O   UNL d   1      -0.105   2.107  -0.686  0.00  0.00    -0.267 OA
ATOM      5  C   UNL d   1       1.929   3.933  -1.055  0.00  0.00     0.141 C 
ATOM      6  C   UNL d   1       0.997   5.232   0.799  0.00  0.00     0.141 C 
ATOM      7  C   UNL d   1       3.354   4.442  -0.717  0.00  0.00     0.117 C 
ATOM      8  C   UNL d   1       2.410   5.659   1.213  0.00  0.00     0.117 C 
ENDROOT
BRANCH   1   9
ATOM      9  C   UNL d   1      -0.862   2.960   1.331  0.00  0.00     0.082 C 
ATOM     10  C   UNL d   1      -2.233   2.724   1.293  0.00  0.00     0.157 C 
ATOM     11  N   UNL d   1      -2.680   2.728   2.599  0.00  0.00    -0.251 N 
ATOM     12  N   UNL d   1      -1.683   3.100   3.448  0.00  0.00    -0.303 N 
ATOM     13  C   UNL d   1      -0.585   3.124   2.697  0.00  0.00     0.127 C 
ATOM     14  HN  UNL d   1      -1.760   3.314   4.442  1.00  0.00     0.186 HD
BRANCH  10  15
ATOM     15  C   UNL d   1      -3.117   2.602   0.125  0.00  0.00     0.435 C 
ATOM     16  F   UNL d   1      -2.614   3.228  -0.969  0.00  0.00    -0.165 F 
ATOM     17  F   UNL d   1      -3.336   1.309  -0.216  0.00  0.00    -0.165 F 
ATOM     18  F   UNL d   1      -4.332   3.170   0.334  0.00  0.00    -0.165 F 
ENDBRANCH  10  15
BRANCH  11  19
ATOM     19  C   UNL d   1      -3.965   2.436   3.145  0.00  0.00     0.057 A 
ATOM     20  C   UNL d   1      -4.836   1.518   2.544  0.00  0.00     0.033 A 
ATOM     21  C   UNL d   1      -6.109   1.300   3.083  0.00  0.00     0.026 A 
ATOM     22  C   UNL d   1      -6.513   1.991   4.223  0.00  0.00     0.034 A 
ATOM     23  C   UNL d   1      -5.641   2.873   4.855  0.00  0.00     0.026 A 
ATOM     24 CL   UNL d   1      -8.095   1.750   4.855  0.00  0.00    -0.084 Cl
ATOM     25  C   UNL d   1      -4.361   3.082   4.329  0.00  0.00     0.033 A 
ENDBRANCH  11  19
ENDBRANCH   1   9
BRANCH   3  26
ATOM     26  C   UNL d   1       4.609   6.143   0.434  0.00  0.00     0.103 A 
ATOM     27  C   UNL d   1       5.570   6.701  -0.436  0.00  0.00     0.070 A 
ATOM     28  S   UNL d   1       5.517   6.993  -2.137  0.00  0.00    -0.096 SA
ATOM     29  C   UNL d   1       6.784   7.150   0.089  0.00  0.00     0.054 A 
ATOM     30  C   UNL d   1       7.081   7.684  -2.155  0.00  0.00     0.053 A 
ATOM     31  C   UNL d   1       7.640   7.715  -0.902  0.00  0.00     0.038 A 
ATOM     32  N   UNL d   1       7.100   7.068   1.403  0.00  0.00    -0.351 N 
ATOM     33  C   UNL d   1       6.141   6.537   2.156  0.00  0.00     0.182 A 
ATOM     34  HN  UNL d   1       7.993   7.385   1.780  1.00  0.00     0.166 HD
ATOM     35  N   UNL d   1       4.947   6.089   1.750  0.00  0.00    -0.342 N 
ATOM     36  HN  UNL d   1       4.289   5.707   2.429  1.00  0.00     0.167 HD
ENDBRANCH   3  26
TORSDOF 4
