REMARK  5 active torsions:
REMARK  status: ('A' for Active; 'I' for Inactive)
REMARK    1  A    between atoms: S_2  and  C_1 
REMARK    2  A    between atoms: N_7  and  S_2 
REMARK    3  A    between atoms: C_8  and  C_3 
REMARK    4  A    between atoms: O_15  and  C_8 
REMARK    5  A    between atoms: C_20  and  O_15 
ROOT
ATOM      1  C   UNL d   1       0.683   1.393   0.219  0.00  0.00     0.122 A 
ATOM      2  C   UNL d   1      -0.745   1.381   0.405  0.00  0.00     0.094 A 
ATOM      3  C   UNL d   1       1.091   0.070   0.167  0.00  0.00     0.073 A 
ATOM      4  C   UNL d   1      -1.102   0.043   0.308  0.00  0.00     0.067 A 
ATOM      5  O   UNL d   1      -0.001  -0.741   0.195  0.00  0.00    -0.318 OA
ATOM      6  C   UNL d   1       2.374  -0.659   0.066  0.00  0.00     0.078 C 
ATOM      7  C   UNL d   1      -2.388  -0.690   0.278  0.00  0.00     0.078 C 
ENDROOT
BRANCH   1   8
ATOM      8  S   UNL d   1       1.683   2.788   0.059  0.00  0.00     0.247 S 
ATOM      9  O   UNL d   1       1.411   3.567   1.246  0.00  0.00    -0.206 OA
ATOM     10  O   UNL d   1       3.014   2.301  -0.221  0.00  0.00    -0.206 OA
BRANCH   8  11
ATOM     11  N   UNL d   1       1.152   3.627  -1.319  0.00  0.00    -0.202 NA
ATOM     12  C   UNL d   1       1.394   2.965  -2.639  0.00  0.00     0.134 C 
ATOM     13  C   UNL d   1       2.784   3.294  -3.201  0.00  0.00     0.183 C 
ATOM     14  O   UNL d   1       2.999   4.711  -3.267  0.00  0.00    -0.389 OA
ATOM     15  C   UNL d   1       2.895   5.295  -1.960  0.00  0.00     0.183 C 
ATOM     16  C   UNL d   1       1.497   5.076  -1.379  0.00  0.00     0.134 C 
ENDBRANCH   8  11
ENDBRANCH   1   8
BRANCH   2  17
ATOM     17  C   UNL d   1      -1.709   2.451   0.625  0.00  0.00     0.297 C 
ATOM     18  O   UNL d   1      -2.874   2.237   0.946  0.00  0.00    -0.259 OA
BRANCH  17  19
ATOM     19  O   UNL d   1      -1.211   3.696   0.423  0.00  0.00    -0.318 OA
BRANCH  19  20
ATOM     20  C   UNL d   1      -2.134   4.780   0.598  0.00  0.00     0.174 C 
ATOM     21  C   UNL d   1      -2.945   4.969  -0.670  0.00  0.00     0.034 C 
ENDBRANCH  19  20
ENDBRANCH  17  19
ENDBRANCH   2  17
TORSDOF 5
