REMARK  7 active torsions:
REMARK  status: ('A' for Active; 'I' for Inactive)
REMARK       I    between atoms: N_2  and  C_1 
REMARK       I    between atoms: N_3  and  C_1 
REMARK    1  A    between atoms: C_5  and  N_2 
REMARK    2  A    between atoms: C_6  and  N_2 
REMARK    3  A    between atoms: C_7  and  N_3 
REMARK    4  A    between atoms: C_8  and  C_5 
REMARK    5  A    between atoms: C_9  and  C_6 
REMARK    6  A    between atoms: O_27  and  C_11 
REMARK    7  A    between atoms: O_26  and  C_12 
ROOT
ATOM      1  C   UNL d   1       0.813  -0.227   0.187  0.00  0.00     0.323 C 
ATOM      2  N   UNL d   1      -0.051  -0.607  -0.841  0.00  0.00    -0.326 N 
ATOM      3  N   UNL d   1       0.324   0.698   1.083  0.00  0.00    -0.309 N 
ATOM      4  O   UNL d   1       1.955  -0.683   0.247  0.00  0.00    -0.247 OA
ATOM      5  H   UNL d   1      -0.678   0.750   1.174  0.00  0.00     0.170 HD
ENDROOT
BRANCH   2   6
ATOM      6  C   UNL d   1      -1.403  -0.081  -1.084  0.00  0.00     0.166 C 
BRANCH   6   7
ATOM      7  C   UNL d   1      -2.567  -0.913  -0.555  0.00  0.00    -0.040 A 
ATOM      8  C   UNL d   1      -3.727  -0.252  -0.110  0.00  0.00     0.011 A 
ATOM      9  C   UNL d   1      -4.889  -0.961   0.225  0.00  0.00     0.037 A 
ATOM     10  C   UNL d   1      -4.916  -2.349   0.133  0.00  0.00     0.068 A 
ATOM     11  C   UNL d   1      -3.786  -3.026  -0.316  0.00  0.00     0.037 A 
ATOM     12  C   UNL d   1      -2.621  -2.313  -0.649  0.00  0.00     0.011 A 
BRANCH  10  13
ATOM     13  O   UNL d   1      -6.109  -2.961   0.404  0.00  0.00    -0.356 OA
ATOM     14  C   UNL d   1      -5.991  -4.054   1.311  0.00  0.00     0.210 C 
ENDBRANCH  10  13
ENDBRANCH   6   7
ENDBRANCH   2   6
BRANCH   2  15
ATOM     15  C   UNL d   1       0.530  -1.446  -1.897  0.00  0.00     0.166 C 
BRANCH  15  16
ATOM     16  C   UNL d   1       1.163  -0.688  -3.050  0.00  0.00    -0.040 A 
ATOM     17  C   UNL d   1       2.460  -0.159  -2.951  0.00  0.00     0.011 A 
ATOM     18  C   UNL d   1       3.088   0.437  -4.058  0.00  0.00     0.037 A 
ATOM     19  C   UNL d   1       2.423   0.516  -5.279  0.00  0.00     0.068 A 
ATOM     20  C   UNL d   1       1.121   0.024  -5.375  0.00  0.00     0.037 A 
ATOM     21  C   UNL d   1       0.495  -0.571  -4.274  0.00  0.00     0.011 A 
BRANCH  19  22
ATOM     22  O   UNL d   1       2.920   1.039  -6.442  0.00  0.00    -0.356 OA
ATOM     23  C   UNL d   1       4.273   1.475  -6.437  0.00  0.00     0.210 C 
ENDBRANCH  19  22
ENDBRANCH  15  16
ENDBRANCH   2  15
BRANCH   3  24
ATOM     24  C   UNL d   1       1.077   1.454   2.015  0.00  0.00     0.036 A 
ATOM     25  C   UNL d   1       2.477   1.466   2.070  0.00  0.00     0.031 A 
ATOM     26  C   UNL d   1       3.156   2.264   2.999  0.00  0.00     0.026 A 
ATOM     27  C   UNL d   1       2.442   3.075   3.874  0.00  0.00     0.034 A 
ATOM     28  C   UNL d   1       1.050   3.086   3.830  0.00  0.00     0.026 A 
ATOM     29 CL   UNL d   1       3.276   4.071   4.999  0.00  0.00    -0.084 Cl
ATOM     30  C   UNL d   1       0.372   2.279   2.908  0.00  0.00     0.031 A 
ENDBRANCH   3  24
TORSDOF 7
