REMARK  5 active torsions:
REMARK  status: ('A' for Active; 'I' for Inactive)
REMARK       I    between atoms: C_3  and  N_1 
REMARK    1  A    between atoms: C_6  and  N_2 
REMARK    2  A    between atoms: C_5  and  C_3 
REMARK    3  A    between atoms: C_4  and  O_9 
REMARK    4  A    between atoms: C_18  and  C_8 
REMARK    5  A    between atoms: O_9  and  C_20 
ROOT
ATOM      1  N   UNL d   1      -1.375   0.124   0.124  0.00  0.00    -0.346 N 
ATOM      2  N   UNL d   1       1.474  -0.107  -0.133  0.00  0.00    -0.378 N 
ATOM      3  C   UNL d   1      -2.542   0.144   0.864  0.00  0.00     0.243 C 
ATOM      4  C   UNL d   1      -0.771  -1.177  -0.217  0.00  0.00     0.146 C 
ATOM      5  C   UNL d   1      -0.570   1.268  -0.341  0.00  0.00     0.146 C 
ATOM      6  C   UNL d   1       0.861   1.185   0.218  0.00  0.00     0.143 C 
ATOM      7  C   UNL d   1       0.692  -1.294   0.273  0.00  0.00     0.143 C 
ATOM      8  O   UNL d   1      -3.102  -0.893   1.222  0.00  0.00    -0.268 OA
ENDROOT
BRANCH   3   9
ATOM      9  C   UNL d   1      -3.123   1.463   1.254  0.00  0.00     0.075 C 
ATOM     10  C   UNL d   1      -4.239   1.497   2.003  0.00  0.00     0.017 C 
BRANCH  10  11
ATOM     11  C   UNL d   1      -4.891   2.720   2.496  0.00  0.00    -0.036 A 
ATOM     12  C   UNL d   1      -6.286   2.732   2.653  0.00  0.00     0.014 A 
ATOM     13  C   UNL d   1      -6.942   3.835   3.220  0.00  0.00     0.038 A 
ATOM     14  C   UNL d   1      -6.206   4.926   3.674  0.00  0.00     0.078 A 
ATOM     15  C   UNL d   1      -4.823   4.939   3.480  0.00  0.00     0.038 A 
ATOM     16  C   UNL d   1      -4.169   3.843   2.906  0.00  0.00     0.014 A 
BRANCH  14  17
ATOM     17  O   UNL d   1      -6.697   6.031   4.302  0.00  0.00    -0.255 OA
BRANCH  17  18
ATOM     18  C   UNL d   1      -7.920   5.931   5.017  0.00  0.00     0.530 C 
ATOM     19  F   UNL d   1      -8.194   4.679   5.441  0.00  0.00    -0.144 F 
ATOM     20  F   UNL d   1      -7.838   6.724   6.109  0.00  0.00    -0.144 F 
ATOM     21  F   UNL d   1      -8.938   6.373   4.249  0.00  0.00    -0.144 F 
ENDBRANCH  17  18
ENDBRANCH  14  17
ENDBRANCH  10  11
ENDBRANCH   3   9
BRANCH   2  22
ATOM     22  C   UNL d   1       2.581  -0.209  -0.954  0.00  0.00     0.031 A 
ATOM     23  C   UNL d   1       2.871   0.748  -1.939  0.00  0.00     0.053 A 
ATOM     24  C   UNL d   1       4.012   0.648  -2.741  0.00  0.00     0.036 A 
ATOM     25 CL   UNL d   1       4.319   1.847  -3.939  0.00  0.00    -0.084 Cl
ATOM     26  C   UNL d   1       4.903  -0.406  -2.580  0.00  0.00     0.024 A 
ATOM     27  C   UNL d   1       4.641  -1.371  -1.614  0.00  0.00     0.004 A 
ATOM     28  C   UNL d   1       3.492  -1.268  -0.817  0.00  0.00     0.029 A 
ENDBRANCH   2  22
TORSDOF 5
