REMARK  8 active torsions:
REMARK  status: ('A' for Active; 'I' for Inactive)
REMARK    1  A    between atoms: C_2  and  C_1 
REMARK    2  A    between atoms: N_3  and  C_1 
REMARK    3  A    between atoms: C_4  and  C_1 
REMARK    4  A    between atoms: O_6  and  C_1 
REMARK       I    between atoms: C_5  and  N_3 
REMARK    5  A    between atoms: O_14  and  C_4 
REMARK    6  A    between atoms: C_13  and  C_5 
REMARK    7  A    between atoms: O_12  and  C_13 
REMARK    8  A    between atoms: C_15  and  O_12 
ROOT
ATOM      1  N   UNL d   1       0.657   1.048  -1.097  0.00  0.00    -0.312 N 
ATOM      2  C   UNL d   1       1.110   2.345  -1.123  0.00  0.00     0.244 C 
ATOM      3  O   UNL d   1       2.056   2.697  -0.416  0.00  0.00    -0.271 OA
ATOM      4  H   UNL d   1      -0.253   0.829  -1.489  0.00  0.00     0.166 HD
ENDROOT
BRANCH   1   5
ATOM      5  C   UNL d   1       1.227   0.094  -0.133  0.00  0.00     0.325 C 
BRANCH   5   6
ATOM      6  C   UNL d   1       0.984   0.431   1.374  0.00  0.00     0.448 C 
ATOM      7  F   UNL d   1       0.194   1.523   1.529  0.00  0.00    -0.166 F 
ATOM      8  F   UNL d   1       0.384  -0.571   2.062  0.00  0.00    -0.166 F 
ATOM      9  F   UNL d   1       2.152   0.695   2.013  0.00  0.00    -0.166 F 
ENDBRANCH   5   6
BRANCH   5  10
ATOM     10  C   UNL d   1       0.544  -1.268  -0.346  0.00  0.00     0.324 C 
ATOM     11  O   UNL d   1      -0.608  -1.395  -0.756  0.00  0.00    -0.259 OA
BRANCH  10  12
ATOM     12  O   UNL d   1       1.375  -2.300  -0.022  0.00  0.00    -0.322 OA
ATOM     13  C   UNL d   1       0.839  -3.611  -0.211  0.00  0.00     0.213 C 
ENDBRANCH  10  12
ENDBRANCH   5  10
BRANCH   5  14
ATOM     14  O   UNL d   1       2.615   0.011  -0.483  0.00  0.00    -0.356 OA
ATOM     15  H   UNL d   1       2.978   0.892  -0.253  0.00  0.00     0.213 HD
ENDBRANCH   5  14
ENDBRANCH   1   5
BRANCH   2  16
ATOM     16  C   UNL d   1       0.430   3.264  -2.128  0.00  0.00     0.278 C 
BRANCH  16  17
ATOM     17  O   UNL d   1      -0.773   3.781  -1.580  0.00  0.00    -0.342 OA
BRANCH  17  18
ATOM     18  C   UNL d   1      -1.472   4.653  -2.375  0.00  0.00     0.069 A 
ATOM     19  C   UNL d   1      -1.114   5.058  -3.664  0.00  0.00     0.037 A 
ATOM     20  C   UNL d   1      -1.933   5.933  -4.384  0.00  0.00     0.003 A 
ATOM     21  C   UNL d   1      -3.114   6.410  -3.819  0.00  0.00     0.000 A 
ATOM     22  C   UNL d   1      -3.470   6.024  -2.529  0.00  0.00     0.003 A 
ATOM     23  C   UNL d   1      -2.650   5.151  -1.810  0.00  0.00     0.037 A 
ENDBRANCH  17  18
ENDBRANCH  16  17
ENDBRANCH   2  16
TORSDOF 8
