REMARK  1 active torsions:
REMARK  status: ('A' for Active; 'I' for Inactive)
REMARK    1  A    between atoms: C_8  and  C_4 
ROOT
ATOM      1  C   UNL d   1      -1.225   0.090  -0.138  0.00  0.00     0.115 C 
ATOM      2  C   UNL d   1      -0.618  -1.212   0.168  0.00  0.00     0.302 C 
ATOM      3  C   UNL d   1      -0.494   1.318   0.205  0.00  0.00     0.302 C 
ATOM      4  C   UNL d   1      -2.423   0.088  -0.759  0.00  0.00     0.037 C 
ATOM      5  O   UNL d   1       0.721  -1.190   0.334  0.00  0.00    -0.280 OA
ATOM      6  O   UNL d   1       0.846   1.188   0.249  0.00  0.00    -0.280 OA
ATOM      7  C   UNL d   1       1.437  -0.050  -0.144  0.00  0.00     0.175 C 
ATOM      8  O   UNL d   1      -1.034   2.387   0.456  0.00  0.00    -0.259 OA
ATOM      9  O   UNL d   1      -1.266  -2.246   0.276  0.00  0.00    -0.259 OA
ATOM     10  C   UNL d   1       1.602  -0.115  -1.666  0.00  0.00     0.080 C 
ATOM     11  C   UNL d   1       2.817  -0.084   0.512  0.00  0.00     0.080 C 
ENDROOT
BRANCH   4  12
ATOM     12  C   UNL d   1      -3.139   1.289  -1.212  0.00  0.00    -0.013 A 
ATOM     13  C   UNL d   1      -2.920   1.871  -2.473  0.00  0.00     0.045 A 
ATOM     14  C   UNL d   1      -3.564   3.058  -2.831  0.00  0.00     0.048 A 
ATOM     15 CL   UNL d   1      -1.845   1.157  -3.625  0.00  0.00    -0.083 Cl
ATOM     16  C   UNL d   1      -4.429   3.668  -1.927  0.00  0.00     0.035 A 
ATOM     17  C   UNL d   1      -4.671   3.095  -0.679  0.00  0.00     0.024 A 
ATOM     18 CL   UNL d   1      -5.202   5.145  -2.350  0.00  0.00    -0.084 Cl
ATOM     19  C   UNL d   1      -4.032   1.905  -0.324  0.00  0.00     0.015 A 
ENDBRANCH   4  12
TORSDOF 1
