REMARK  1 active torsions:
REMARK  status: ('A' for Active; 'I' for Inactive)
REMARK    1  A    between atoms: S_13  and  C_7 
ROOT
ATOM      1  C   UNL d   1       0.485  -0.947   0.013  0.00  0.00     0.706 A 
ATOM      2  N   UNL d   1       0.775   0.426   0.002  0.00  0.00    -0.089 N 
ATOM      3  N   UNL d   1       1.616  -1.622   0.013  0.00  0.00    -0.167 N 
ATOM      4  HN  UNL d   1       1.748  -2.634   0.020  1.00  0.00     0.186 HD
ATOM      5  N   UNL d   1       2.112   0.604  -0.006  0.00  0.00    -0.258 N 
ATOM      6  HN  UNL d   1       2.641   1.476  -0.016  1.00  0.00     0.190 HD
ATOM      7  C   UNL d   1       2.568  -0.648   0.002  0.00  0.00     0.174 A 
ATOM      8  N   UNL d   1      -0.802  -1.406   0.023  0.00  0.00    -0.194 N 
ATOM      9  HN  UNL d   1      -1.013  -2.404   0.031  1.00  0.00     0.184 HD
ATOM     10  C   UNL d   1      -0.242   1.387   0.002  0.00  0.00     0.050 A 
ATOM     11  C   UNL d   1      -1.521   0.973   0.011  0.00  0.00     0.052 A 
ATOM     12  C   UNL d   1      -1.745  -0.508   0.022  0.00  0.00     0.024 A 
ATOM     13  C   UNL d   1       0.121   2.839  -0.009  0.00  0.00     0.071 C 
ATOM     14  C   UNL d   1      -3.180  -0.977   0.035  0.00  0.00     0.068 C 
ENDROOT
BRANCH   7  15
ATOM     15  S   UNL d   1       4.288  -0.931  -0.001  0.00  0.00    -0.097 SA
ATOM     16  C   UNL d   1       4.361  -2.728   0.023  0.00  0.00     0.099 C 
ENDBRANCH   7  15
TORSDOF 1
