REMARK  3 active torsions:
REMARK  status: ('A' for Active; 'I' for Inactive)
REMARK    1  A    between atoms: C_4  and  C_1 
REMARK       I    between atoms: N_8  and  C_4 
REMARK    2  A    between atoms: C_15  and  N_8 
REMARK    3  A    between atoms: C_10  and  C_15 
ROOT
ATOM      1  C   UNL d   1      -0.061   2.530  -0.011  0.00  0.00     0.256 C 
ATOM      2  N   UNL d   1      -1.238   3.259   0.008  0.00  0.00    -0.352 N 
ATOM      3  O   UNL d   1       1.017   3.122  -0.030  0.00  0.00    -0.267 OA
ATOM      4  H   UNL d   1      -2.151   2.840   0.042  0.00  0.00     0.163 HD
ENDROOT
BRANCH   1   5
ATOM      5  C   UNL d   1      -0.098   1.076   0.000  0.00  0.00     0.087 A 
ATOM      6  C   UNL d   1       1.065   0.318  -0.016  0.00  0.00     0.090 A 
ATOM      7  O   UNL d   1       0.762  -1.000  -0.002  0.00  0.00    -0.242 OA
ATOM      8  C   UNL d   1       2.507   0.649  -0.044  0.00  0.00     0.080 C 
ATOM      9  N   UNL d   1      -0.602  -1.157   0.020  0.00  0.00    -0.265 N 
ATOM     10  C   UNL d   1      -1.118   0.082   0.020  0.00  0.00     0.047 A 
ATOM     11  HN  UNL d   1      -1.119  -2.036   0.035  1.00  0.00     0.194 HD
ATOM     12  C   UNL d   1      -2.596   0.204   0.037  0.00  0.00     0.071 C 
ENDBRANCH   1   5
BRANCH   2  13
ATOM     13  C   UNL d   1      -1.089   4.699   0.011  0.00  0.00     0.169 C 
BRANCH  13  14
ATOM     14  C   UNL d   1      -2.340   5.515   0.026  0.00  0.00     0.000 A 
ATOM     15  S   UNL d   1      -3.923   4.867   0.062  0.00  0.00    -0.105 SA
ATOM     16  C   UNL d   1      -4.634   6.428   0.065  0.00  0.00     0.050 A 
ATOM     17  C   UNL d   1      -3.692   7.431   0.040  0.00  0.00     0.008 A 
ATOM     18  C   UNL d   1      -2.372   6.902   0.017  0.00  0.00     0.017 A 
ENDBRANCH  13  14
ENDBRANCH   2  13
TORSDOF 3
