REMARK  4 active torsions:
REMARK  status: ('A' for Active; 'I' for Inactive)
REMARK    1  A    between atoms: C_6  and  S_1 
REMARK    2  A    between atoms: C_11  and  S_1 
REMARK    3  A    between atoms: C_9  and  C_4 
REMARK    4  A    between atoms: C_5  and  C_6 
ROOT
ATOM      1  N   UNL d   1       1.340  -1.711  -2.238  0.00  0.00    -0.322 N 
ATOM      2  HN  UNL d   1       1.590  -0.725  -2.318  1.00  0.00     0.169 HD
ATOM      3  C   UNL d   1       1.490  -2.666  -3.130  0.00  0.00     0.183 A 
ATOM      4  C   UNL d   1       0.769  -2.360  -1.178  0.00  0.00     0.118 A 
ATOM      5  N   UNL d   1       0.533  -3.661  -1.386  0.00  0.00    -0.246 N 
ATOM      6  HN  UNL d   1       0.098  -4.334  -0.756  1.00  0.00     0.196 HD
ATOM      7  O   UNL d   1       1.028  -3.874  -2.675  0.00  0.00    -0.217 OA
ENDROOT
BRANCH   4   8
ATOM      8  C   UNL d   1       0.385  -1.653   0.054  0.00  0.00     0.225 C 
BRANCH   8   9
ATOM      9  S   UNL d   1       1.725  -1.582   1.212  0.00  0.00     0.197 S 
ATOM     10  O   UNL d   1       2.222  -2.931   1.437  0.00  0.00    -0.221 OA
ATOM     11  O   UNL d   1       1.302  -0.785   2.354  0.00  0.00    -0.221 OA
BRANCH   9  12
ATOM     12  C   UNL d   1       3.001  -0.671   0.364  0.00  0.00     0.128 A 
ATOM     13  N   UNL d   1       2.624   0.578  -0.018  0.00  0.00    -0.357 N 
ATOM     14  C   UNL d   1       3.568   1.301  -0.657  0.00  0.00     0.089 A 
ATOM     15  HN  UNL d   1       1.690   0.944   0.166  1.00  0.00     0.166 HD
ATOM     16  C   UNL d   1       4.847   0.833  -0.930  0.00  0.00     0.017 A 
ATOM     17  C   UNL d   1       5.188  -0.456  -0.528  0.00  0.00     0.004 A 
ATOM     18  C   UNL d   1       4.247  -1.234   0.138  0.00  0.00     0.042 A 
ENDBRANCH   9  12
ENDBRANCH   8   9
ENDBRANCH   4   8
BRANCH   3  19
ATOM     19  C   UNL d   1       2.033  -2.627  -4.488  0.00  0.00     0.039 A 
ATOM     20  C   UNL d   1       2.531  -1.445  -5.072  0.00  0.00     0.048 A 
ATOM     21 CL   UNL d   1       2.604   0.077  -4.247  0.00  0.00    -0.083 Cl
ATOM     22  C   UNL d   1       3.012  -1.444  -6.389  0.00  0.00     0.025 A 
ATOM     23  C   UNL d   1       3.014  -2.614  -7.144  0.00  0.00     0.002 A 
ATOM     24  C   UNL d   1       2.541  -3.794  -6.583  0.00  0.00     0.001 A 
ATOM     25  C   UNL d   1       2.056  -3.800  -5.271  0.00  0.00     0.017 A 
ENDBRANCH   3  19
TORSDOF 4
