REMARK  8 active torsions:
REMARK  status: ('A' for Active; 'I' for Inactive)
REMARK    1  A    between atoms: C_3  and  N_1 
REMARK    2  A    between atoms: C_2  and  C_3 
REMARK    3  A    between atoms: C_4  and  C_2 
REMARK    4  A    between atoms: S_5  and  C_2 
REMARK    5  A    between atoms: C_7  and  S_5 
REMARK    6  A    between atoms: O_16  and  C_6 
REMARK    7  A    between atoms: N_15  and  C_12 
REMARK    8  A    between atoms: O_17  and  C_13 
ROOT
ATOM      1  C   UNL d   1       0.808  -2.026  -1.448  0.00  0.00     0.112 C 
ENDROOT
BRANCH   1   2
ATOM      2  C   UNL d   1      -0.344  -1.368  -0.683  0.00  0.00     0.221 C 
BRANCH   2   3
ATOM      3  N   UNL d   1       0.188  -0.258   0.168  0.00  0.00    -0.154 N 
ATOM      4  O   UNL d   1       0.559   0.769  -0.420  0.00  0.00    -0.536 OA
ATOM      5  O   UNL d   1       0.161  -0.421   1.393  0.00  0.00    -0.536 OA
ENDBRANCH   2   3
ENDBRANCH   1   2
BRANCH   1   6
ATOM      6  C   UNL d   1       1.844  -2.632  -0.513  0.00  0.00    -0.009 A 
ATOM      7  C   UNL d   1       3.133  -2.085  -0.387  0.00  0.00     0.078 A 
ATOM      8  C   UNL d   1       4.025  -2.540   0.596  0.00  0.00     0.074 A 
ATOM      9  C   UNL d   1       3.650  -3.563   1.465  0.00  0.00     0.070 A 
ATOM     10  C   UNL d   1       2.387  -4.136   1.330  0.00  0.00     0.037 A 
ATOM     11  C   UNL d   1       1.493  -3.679   0.359  0.00  0.00     0.014 A 
BRANCH   7  12
ATOM     12  O   UNL d   1       3.524  -0.973  -1.087  0.00  0.00    -0.355 OA
ATOM     13  C   UNL d   1       3.876  -1.262  -2.442  0.00  0.00     0.210 C 
ENDBRANCH   7  12
BRANCH   9  14
ATOM     14  O   UNL d   1       4.400  -4.077   2.486  0.00  0.00    -0.356 OA
ATOM     15  C   UNL d   1       5.610  -3.400   2.801  0.00  0.00     0.210 C 
ENDBRANCH   9  14
ENDBRANCH   1   6
BRANCH   1  16
ATOM     16  S   UNL d   1       0.008  -3.282  -2.570  0.00  0.00    -0.117 SA
BRANCH  16  17
ATOM     17  C   UNL d   1       1.414  -3.995  -3.426  0.00  0.00     0.022 A 
ATOM     18  C   UNL d   1       1.925  -3.442  -4.619  0.00  0.00     0.022 A 
ATOM     19  C   UNL d   1       3.012  -4.068  -5.244  0.00  0.00     0.024 A 
ATOM     20  C   UNL d   1       3.511  -5.282  -4.767  0.00  0.00     0.002 A 
ATOM     21  C   UNL d   1       2.958  -5.861  -3.630  0.00  0.00     0.001 A 
ATOM     22  C   UNL d   1       1.916  -5.219  -2.960  0.00  0.00     0.020 A 
BRANCH  18  23
ATOM     23  N   UNL d   1       1.518  -2.172  -5.078  0.00  0.00    -0.302 NA
ATOM     24  H   UNL d   1       0.559  -1.971  -4.801  0.00  0.00     0.124 HD
ATOM     25  H   UNL d   1       1.654  -2.049  -6.078  0.00  0.00     0.124 HD
ENDBRANCH  18  23
ENDBRANCH  16  17
ENDBRANCH   1  16
TORSDOF 8
