REMARK  5 active torsions:
REMARK  status: ('A' for Active; 'I' for Inactive)
REMARK    1  A    between atoms: C_4  and  C_1 
REMARK    2  A    between atoms: O_11  and  C_4 
REMARK    3  A    between atoms: C_6  and  C_8 
REMARK    4  A    between atoms: N_16  and  C_8 
REMARK    5  A    between atoms: N_9  and  O_11 
ROOT
ATOM      1  C   UNL d   1       4.366  -3.643   0.303  0.00  0.00     0.112 C 
ATOM      2  N   UNL d   1       3.825  -2.530  -0.092  0.00  0.00    -0.245 N 
ATOM      3  HN  UNL d   1       4.365  -1.715  -0.383  1.00  0.00     0.196 HD
ENDROOT
BRANCH   2   4
ATOM      4  O   UNL d   1       2.407  -2.562  -0.077  0.00  0.00    -0.193 OA
BRANCH   4   5
ATOM      5  C   UNL d   1       1.925  -1.269  -0.150  0.00  0.00     0.323 C 
ATOM      6  O   UNL d   1       2.630  -0.263  -0.072  0.00  0.00    -0.257 OA
BRANCH   5   7
ATOM      7  C   UNL d   1       0.484  -1.235  -0.373  0.00  0.00     0.105 A 
ATOM      8  S   UNL d   1      -0.211   0.321  -0.616  0.00  0.00    -0.082 SA
ATOM      9  C   UNL d   1      -1.780  -0.301  -0.886  0.00  0.00     0.018 A 
ATOM     10  C   UNL d   1      -2.938   0.450  -1.179  0.00  0.00     0.020 A 
ATOM     11  C   UNL d   1      -1.804  -1.694  -0.786  0.00  0.00     0.004 A 
ATOM     12  C   UNL d   1      -4.143  -0.218  -1.400  0.00  0.00     0.001 A 
ATOM     13  C   UNL d   1      -4.198  -1.600  -1.330  0.00  0.00     0.001 A 
ATOM     14  C   UNL d   1      -3.048  -2.338  -1.020  0.00  0.00     0.014 A 
ATOM     15  C   UNL d   1      -0.491  -2.213  -0.444  0.00  0.00     0.069 A 
ATOM     16 CL   UNL d   1      -0.254  -3.899  -0.181  0.00  0.00    -0.082 Cl
ENDBRANCH   5   7
ENDBRANCH   4   5
ENDBRANCH   2   4
BRANCH   1  17
ATOM     17  C   UNL d   1       5.873  -3.706   0.351  0.00  0.00     0.047 A 
ATOM     18  C   UNL d   1       6.629  -2.635   0.871  0.00  0.00     0.049 A 
ATOM     19 CL   UNL d   1       5.934  -1.226   1.600  0.00  0.00    -0.083 Cl
ATOM     20  C   UNL d   1       8.033  -2.687   0.883  0.00  0.00     0.025 A 
ATOM     21  C   UNL d   1       8.707  -3.804   0.403  0.00  0.00     0.003 A 
ATOM     22  C   UNL d   1       7.975  -4.875  -0.100  0.00  0.00     0.025 A 
ATOM     23  C   UNL d   1       6.572  -4.827  -0.138  0.00  0.00     0.049 A 
ATOM     24 CL   UNL d   1       5.792  -6.201  -0.851  0.00  0.00    -0.083 Cl
ENDBRANCH   1  17
BRANCH   1  25
ATOM     25  N   UNL d   1       3.626  -4.745   0.664  0.00  0.00    -0.286 NA
ATOM     26  H   UNL d   1       4.037  -5.648   0.441  0.00  0.00     0.125 HD
ATOM     27  H   UNL d   1       2.661  -4.686   0.356  0.00  0.00     0.125 HD
ENDBRANCH   1  25
TORSDOF 5
