REMARK  3 active torsions:
REMARK  status: ('A' for Active; 'I' for Inactive)
REMARK    1  A    between atoms: C_11  and  C_1 
REMARK    2  A    between atoms: C_4  and  C_5 
REMARK       I    between atoms: C_5  and  N_9 
REMARK    3  A    between atoms: N_9  and  C_11 
ROOT
ATOM      1  C   UNL d   1       0.835  -1.752  -0.054  0.00  0.00    -0.022 A 
ATOM      2  S   UNL d   1       0.663   0.563  -1.177  0.00  0.00    -0.101 SA
ATOM      3  C   UNL d   1       0.743  -1.132  -1.286  0.00  0.00     0.060 A 
ATOM      4  C   UNL d   1       0.806  -0.782   1.026  0.00  0.00    -0.011 A 
ATOM      5  C   UNL d   1       0.747   0.529   0.540  0.00  0.00     0.015 A 
ATOM      6  C   UNL d   1       0.851  -0.955   2.434  0.00  0.00     0.013 A 
ATOM      7  C   UNL d   1       0.760   1.645   1.402  0.00  0.00     0.019 A 
ATOM      8  C   UNL d   1       0.857   0.151   3.293  0.00  0.00     0.001 A 
ATOM      9  C   UNL d   1       0.820   1.438   2.780  0.00  0.00     0.001 A 
ENDROOT
BRANCH   1  10
ATOM     10  C   UNL d   1       0.987  -3.233   0.111  0.00  0.00     0.162 C 
BRANCH  10  11
ATOM     11  N   UNL d   1      -0.313  -3.857   0.098  0.00  0.00    -0.356 N 
ATOM     12  C   UNL d   1      -0.425  -5.221   0.005  0.00  0.00     0.222 C 
ATOM     13  O   UNL d   1       0.531  -5.986  -0.059  0.00  0.00    -0.273 OA
ATOM     14  H   UNL d   1      -1.131  -3.294   0.286  0.00  0.00     0.162 HD
BRANCH  12  15
ATOM     15  C   UNL d   1      -1.828  -5.724  -0.001  0.00  0.00     0.078 A 
ATOM     16  C   UNL d   1      -2.268  -6.771   0.995  0.00  0.00     0.015 A 
ATOM     17  C   UNL d   1      -2.130  -7.135  -0.455  0.00  0.00     0.015 A 
ENDBRANCH  12  15
ENDBRANCH  10  11
ENDBRANCH   1  10
TORSDOF 3
