REMARK  7 active torsions:
REMARK  status: ('A' for Active; 'I' for Inactive)
REMARK    1  A    between atoms: N_2  and  S_1 
REMARK    2  A    between atoms: C_5  and  S_1 
REMARK    3  A    between atoms: C_6  and  N_2 
REMARK    4  A    between atoms: N_3  and  C_10 
REMARK    5  A    between atoms: O_7  and  C_4 
REMARK    6  A    between atoms: C_14  and  C_6 
REMARK    7  A    between atoms: C_15  and  O_7 
ROOT
ATOM      1  C   UNL d   1      -0.241   3.740  -2.136  0.00  0.00     0.119 A 
ATOM      2  C   UNL d   1       0.546   1.468  -0.694  0.00  0.00     0.083 A 
ATOM      3  C   UNL d   1       0.440   3.865  -0.916  0.00  0.00     0.071 A 
ATOM      4  C   UNL d   1      -0.493   2.453  -2.642  0.00  0.00     0.071 A 
ATOM      5  C   UNL d   1       0.832   2.739  -0.194  0.00  0.00     0.052 A 
ATOM      6  C   UNL d   1      -0.133   1.321  -1.904  0.00  0.00     0.052 A 
ATOM      7 CL   UNL d   1      -1.154   2.170  -4.214  0.00  0.00    -0.081 Cl
ATOM      8 CL   UNL d   1       0.878   5.415  -0.283  0.00  0.00    -0.081 Cl
ENDROOT
BRANCH   2   9
ATOM      9  S   UNL d   1       1.170  -0.009   0.076  0.00  0.00     0.264 S 
ATOM     10  O   UNL d   1       0.071  -0.606   0.802  0.00  0.00    -0.200 OA
ATOM     11  O   UNL d   1       1.918  -0.716  -0.933  0.00  0.00    -0.200 OA
BRANCH   9  12
ATOM     12  N   UNL d   1       2.296   0.555   1.168  0.00  0.00    -0.265 N 
ATOM     13  H   UNL d   1       3.243   0.440   0.809  0.00  0.00     0.180 HD
BRANCH  12  14
ATOM     14  C   UNL d   1       2.058   1.029   2.461  0.00  0.00     0.120 C 
ATOM     15  N   UNL d   1       0.958   0.781   3.078  0.00  0.00    -0.384 N 
ATOM     16  H   UNL d   1       0.366   0.141   2.523  0.00  0.00     0.157 HD
ATOM     17  HN  UNL d   1       0.704   1.164   3.989  1.00  0.00     0.157 HD
BRANCH  14  18
ATOM     18  C   UNL d   1       3.103   1.890   3.067  0.00  0.00     0.023 A 
ATOM     19  C   UNL d   1       2.858   2.432   4.326  0.00  0.00     0.102 A 
ATOM     20  N   UNL d   1       3.702   3.277   4.970  0.00  0.00    -0.374 N 
ATOM     21  C   UNL d   1       4.842   3.604   4.327  0.00  0.00     0.087 A 
ATOM     22  HN  UNL d   1       3.485   3.648   5.895  1.00  0.00     0.164 HD
ATOM     23  C   UNL d   1       5.173   3.131   3.069  0.00  0.00     0.018 A 
ATOM     24  C   UNL d   1       4.288   2.264   2.425  0.00  0.00     0.018 A 
ENDBRANCH  14  18
ENDBRANCH  12  14
ENDBRANCH   9  12
ENDBRANCH   2   9
BRANCH   1  25
ATOM     25  O   UNL d   1      -0.481   4.907  -2.822  0.00  0.00    -0.306 OA
BRANCH  25  26
ATOM     26  C   UNL d   1      -1.732   5.195  -3.316  0.00  0.00     0.098 A 
ATOM     27  C   UNL d   1      -1.789   6.156  -4.341  0.00  0.00     0.070 A 
ATOM     28  C   UNL d   1      -3.000   6.475  -4.957  0.00  0.00     0.062 A 
ATOM     29 CL   UNL d   1      -0.363   6.971  -4.885  0.00  0.00    -0.081 Cl
ATOM     30  C   UNL d   1      -4.166   5.823  -4.540  0.00  0.00     0.104 A 
ATOM     31  C   UNL d   1      -4.132   4.898  -3.489  0.00  0.00     0.039 A 
ATOM     32  C   UNL d   1      -2.919   4.608  -2.859  0.00  0.00     0.041 A 
BRANCH  30  33
ATOM     33  N   UNL d   1      -5.438   6.113  -5.213  0.00  0.00    -0.116 N 
ATOM     34  O   UNL d   1      -5.437   6.987  -6.091  0.00  0.00    -0.532 OA
ATOM     35  O   UNL d   1      -6.433   5.464  -4.865  0.00  0.00    -0.532 OA
ENDBRANCH  30  33
ENDBRANCH  25  26
ENDBRANCH   1  25
TORSDOF 7
