REMARK  4 active torsions:
REMARK  status: ('A' for Active; 'I' for Inactive)
REMARK       I    between atoms: N_2  and  C_1 
REMARK       I    between atoms: N_4  and  C_1 
REMARK    1  A    between atoms: C_3  and  N_2 
REMARK    2  A    between atoms: N_8  and  C_3 
REMARK    3  A    between atoms: C_14  and  N_8 
REMARK    4  A    between atoms: C_15  and  C_14 
ROOT
ATOM      1  C   UNL d   1       0.984  -0.157   0.060  0.00  0.00     0.676 C 
ATOM      2  N   UNL d   1       0.614  -0.395  -1.252  0.00  0.00    -0.167 N 
ATOM      3  N   UNL d   1       0.047   0.440   0.876  0.00  0.00    -0.214 N 
ATOM      4  N   UNL d   1       2.171  -0.439   0.464  0.00  0.00    -0.234 N 
ATOM      5  HN  UNL d   1       2.537  -0.271   1.401  1.00  0.00     0.174 HD
ATOM      6  O   UNL d   1      -1.002  -0.792   3.270  0.00  0.00    -0.388 OA
ATOM      7  C   UNL d   1       0.485   0.858   2.234  0.00  0.00     0.167 C 
ATOM      8  C   UNL d   1      -1.330  -0.103   0.937  0.00  0.00     0.167 C 
ATOM      9  C   UNL d   1       0.356  -0.313   3.221  0.00  0.00     0.188 C 
ATOM     10  C   UNL d   1      -1.415  -1.240   1.970  0.00  0.00     0.188 C 
ATOM     11  H   UNL d   1      -0.239   0.071  -1.508  0.00  0.00     0.186 HD
ATOM     12  H   UNL d   1       2.690  -0.862  -0.316  0.00  0.00     0.174 HD
ENDROOT
BRANCH   2  13
ATOM     13  C   UNL d   1       1.074  -1.302  -2.215  0.00  0.00     0.186 C 
ATOM     14  S   UNL d   1       2.110  -2.576  -1.926  0.00  0.00    -0.040 SA
BRANCH  13  15
ATOM     15  N   UNL d   1       0.473  -1.030  -3.438  0.00  0.00    -0.367 N 
ATOM     16  H   UNL d   1       0.346  -0.044  -3.633  0.00  0.00     0.161 HD
BRANCH  15  17
ATOM     17  C   UNL d   1       0.541  -1.898  -4.609  0.00  0.00     0.121 C 
BRANCH  17  18
ATOM     18  C   UNL d   1      -0.371  -1.422  -5.737  0.00  0.00     0.015 C 
ATOM     19  C   UNL d   1      -1.822  -1.265  -5.306  0.00  0.00     0.006 C 
ENDBRANCH  17  18
ENDBRANCH  15  17
ENDBRANCH  13  15
ENDBRANCH   2  13
TORSDOF 4
