REMARK  5 active torsions:
REMARK  status: ('A' for Active; 'I' for Inactive)
REMARK    1  A    between atoms: N_2  and  S_1 
REMARK    2  A    between atoms: C_11  and  S_1 
REMARK    3  A    between atoms: N_3  and  C_17 
REMARK    4  A    between atoms: C_4  and  N_9 
REMARK    5  A    between atoms: C_5  and  C_6 
ROOT
ATOM      1  N   UNL d   1       0.425   0.343  -1.403  0.00  0.00    -0.203 NA
ATOM      2  N   UNL d   1      -1.938   1.959  -1.287  0.00  0.00    -0.364 N 
ATOM      3  C   UNL d   1       0.470   1.822  -1.694  0.00  0.00     0.127 C 
ATOM      4  C   UNL d   1      -0.951  -0.214  -1.672  0.00  0.00     0.127 C 
ATOM      5  C   UNL d   1      -0.651   2.578  -0.938  0.00  0.00     0.140 C 
ATOM      6  C   UNL d   1      -2.044   0.548  -0.893  0.00  0.00     0.140 C 
ENDROOT
BRANCH   1   7
ATOM      7  S   UNL d   1       1.138  -0.139   0.066  0.00  0.00     0.243 S 
ATOM      8  O   UNL d   1       0.621  -1.436   0.433  0.00  0.00    -0.206 OA
ATOM      9  O   UNL d   1       1.106   0.978   0.987  0.00  0.00    -0.206 OA
BRANCH   7  10
ATOM     10  C   UNL d   1       2.833  -0.395  -0.415  0.00  0.00     0.074 A 
ATOM     11  C   UNL d   1       3.851   0.380   0.150  0.00  0.00     0.027 A 
ATOM     12  C   UNL d   1       5.186   0.081  -0.139  0.00  0.00     0.037 A 
ATOM     13  C   UNL d   1       5.488  -0.994  -0.991  0.00  0.00     0.102 A 
ATOM     14  C   UNL d   1       4.464  -1.757  -1.571  0.00  0.00     0.037 A 
ATOM     15  C   UNL d   1       3.132  -1.456  -1.279  0.00  0.00     0.027 A 
BRANCH  13  16
ATOM     16  N   UNL d   1       6.892  -1.338  -1.257  0.00  0.00    -0.116 N 
ATOM     17  O   UNL d   1       7.766  -0.650  -0.712  0.00  0.00    -0.532 OA
ATOM     18  O   UNL d   1       7.117  -2.297  -2.009  0.00  0.00    -0.532 OA
ENDBRANCH  13  16
ENDBRANCH   7  10
ENDBRANCH   1   7
BRANCH   2  19
ATOM     19  C   UNL d   1      -3.076   2.721  -1.441  0.00  0.00     0.125 A 
ATOM     20  N   UNL d   1      -4.190   2.345  -0.762  0.00  0.00    -0.350 N 
ATOM     21  C   UNL d   1      -5.335   3.058  -0.926  0.00  0.00     0.106 A 
ATOM     22  HN  UNL d   1      -4.168   1.539  -0.137  1.00  0.00     0.166 HD
ATOM     23  C   UNL d   1      -5.450   4.158  -1.757  0.00  0.00     0.065 A 
ATOM     24  C   UNL d   1      -4.317   4.531  -2.475  0.00  0.00     0.045 A 
ATOM     25  C   UNL d   1      -3.131   3.806  -2.334  0.00  0.00     0.078 A 
ATOM     26 CL   UNL d   1      -1.848   4.234  -3.418  0.00  0.00    -0.080 Cl
BRANCH  23  27
ATOM     27  C   UNL d   1      -6.748   4.887  -1.894  0.00  0.00     0.418 C 
ATOM     28  F   UNL d   1      -6.681   5.942  -2.754  0.00  0.00    -0.166 F 
ATOM     29  F   UNL d   1      -7.749   4.092  -2.358  0.00  0.00    -0.166 F 
ATOM     30  F   UNL d   1      -7.187   5.398  -0.712  0.00  0.00    -0.166 F 
ENDBRANCH  23  27
ENDBRANCH   2  19
TORSDOF 5
