REMARK  5 active torsions:
REMARK  status: ('A' for Active; 'I' for Inactive)
REMARK    1  A    between atoms: C_9  and  C_1 
REMARK    2  A    between atoms: N_6  and  C_2 
REMARK    3  A    between atoms: C_10  and  C_4 
REMARK       I    between atoms: C_7  and  N_6 
REMARK    4  A    between atoms: C_8  and  C_7 
REMARK    5  A    between atoms: C_13  and  C_14 
ROOT
ATOM      1  C   UNL d   1       0.003   1.143  -0.425  0.00  0.00     0.077 C 
ATOM      2  C   UNL d   1       1.313   0.851  -0.081  0.00  0.00     0.057 C 
ATOM      3  S   UNL d   1      -1.028  -0.204  -0.140  0.00  0.00    -0.084 SA
ATOM      4  C   UNL d   1       0.287  -1.272   0.070  0.00  0.00     0.018 C 
ATOM      5  C   UNL d   1       1.470  -0.567   0.125  0.00  0.00     0.051 C 
ENDROOT
BRANCH   2   6
ATOM      6  N   UNL d   1       2.435   1.673   0.040  0.00  0.00    -0.322 N 
ATOM      7  C   UNL d   1       2.474   3.045   0.198  0.00  0.00     0.256 C 
ATOM      8  O   UNL d   1       1.521   3.813   0.162  0.00  0.00    -0.267 OA
ATOM      9  H   UNL d   1       3.280   1.167   0.281  0.00  0.00     0.169 HD
BRANCH   7  10
ATOM     10  C   UNL d   1       3.839   3.567   0.528  0.00  0.00     0.035 A 
ATOM     11  C   UNL d   1       4.985   2.996  -0.046  0.00  0.00     0.041 A 
ATOM     12  C   UNL d   1       6.251   3.398   0.380  0.00  0.00     0.036 A 
ATOM     13 CL   UNL d   1       7.644   2.637  -0.285  0.00  0.00    -0.084 Cl
ATOM     14  C   UNL d   1       6.395   4.377   1.356  0.00  0.00     0.047 A 
ATOM     15  C   UNL d   1       5.252   4.978   1.892  0.00  0.00     0.036 A 
ATOM     16  C   UNL d   1       3.979   4.586   1.480  0.00  0.00     0.041 A 
ATOM     17 CL   UNL d   1       5.436   6.185   3.104  0.00  0.00    -0.084 Cl
ENDBRANCH   7  10
ENDBRANCH   2   6
BRANCH   1  18
ATOM     18  C   UNL d   1      -0.641   2.288  -1.047  0.00  0.00     0.164 C 
ATOM     19  O   UNL d   1      -1.773   2.682  -0.754  0.00  0.00    -0.292 OA
ATOM     20  C   UNL d   1       0.039   2.852  -2.272  0.00  0.00     0.097 C 
ENDBRANCH   1  18
BRANCH   4  21
ATOM     21  C   UNL d   1       0.057  -2.718   0.131  0.00  0.00    -0.019 A 
ATOM     22  C   UNL d   1       0.881  -3.602  -0.577  0.00  0.00     0.013 A 
ATOM     23  C   UNL d   1       0.618  -4.976  -0.586  0.00  0.00     0.009 A 
ATOM     24  C   UNL d   1      -0.477  -5.521   0.114  0.00  0.00    -0.051 A 
ATOM     25  C   UNL d   1      -1.280  -4.627   0.836  0.00  0.00     0.009 A 
ATOM     26  C   UNL d   1      -1.018  -3.253   0.849  0.00  0.00     0.013 A 
BRANCH  24  27
ATOM     27  C   UNL d   1      -0.771  -7.030   0.065  0.00  0.00    -0.024 C 
ATOM     28  C   UNL d   1      -2.025  -7.437   0.873  0.00  0.00     0.019 C 
ATOM     29  C   UNL d   1      -1.007  -7.472  -1.395  0.00  0.00     0.019 C 
ATOM     30  C   UNL d   1       0.422  -7.817   0.646  0.00  0.00     0.019 C 
ENDBRANCH  24  27
ENDBRANCH   4  21
TORSDOF 5
