REMARK  5 active torsions:
REMARK  status: ('A' for Active; 'I' for Inactive)
REMARK       I    between atoms: N_4  and  C_1 
REMARK       I    between atoms: N_8  and  C_1 
REMARK    1  A    between atoms: C_3  and  C_7 
REMARK    2  A    between atoms: C_12  and  N_4 
REMARK    3  A    between atoms: C_5  and  N_8 
REMARK    4  A    between atoms: O_18  and  C_13 
REMARK    5  A    between atoms: C_19  and  O_18 
ROOT
ATOM      1  C   UNL d   1       0.910  -0.055  -0.084  0.00  0.00     0.324 C 
ATOM      2  N   UNL d   1       0.352   0.761   0.884  0.00  0.00    -0.309 N 
ATOM      3  N   UNL d   1       0.003  -0.997  -0.549  0.00  0.00    -0.319 N 
ATOM      4  O   UNL d   1       2.064   0.003  -0.496  0.00  0.00    -0.247 OA
ATOM      5  H   UNL d   1      -0.512   0.443   1.297  0.00  0.00     0.170 HD
ATOM      6  H   UNL d   1      -0.961  -0.924  -0.262  0.00  0.00     0.170 HD
ENDROOT
BRANCH   2   7
ATOM      7  C   UNL d   1       0.980   1.857   1.513  0.00  0.00     0.036 A 
ATOM      8  C   UNL d   1       2.165   2.431   1.048  0.00  0.00     0.032 A 
ATOM      9  C   UNL d   1       2.764   3.494   1.732  0.00  0.00     0.039 A 
ATOM     10  C   UNL d   1       2.184   4.001   2.891  0.00  0.00     0.068 A 
ATOM     11  C   UNL d   1       0.975   3.467   3.334  0.00  0.00     0.039 A 
ATOM     12  C   UNL d   1       0.375   2.399   2.651  0.00  0.00     0.032 A 
BRANCH  10  13
ATOM     13  O   UNL d   1       2.689   5.033   3.635  0.00  0.00    -0.352 OA
BRANCH  13  14
ATOM     14  C   UNL d   1       4.108   5.200   3.569  0.00  0.00     0.171 C 
ATOM     15  C   UNL d   1       4.502   6.330   4.503  0.00  0.00     0.034 C 
ENDBRANCH  13  14
ENDBRANCH  10  13
ENDBRANCH   2   7
BRANCH   3  16
ATOM     16  C   UNL d   1       0.352  -1.967  -1.460  0.00  0.00     0.093 C 
ATOM     17  C   UNL d   1      -0.522  -2.844  -1.972  0.00  0.00     0.029 C 
BRANCH  17  18
ATOM     18  C   UNL d   1      -0.190  -3.875  -2.911  0.00  0.00    -0.028 A 
ATOM     19  C   UNL d   1      -1.127  -4.419  -3.764  0.00  0.00     0.061 A 
ATOM     20  S   UNL d   1      -0.464  -5.633  -4.775  0.00  0.00    -0.113 SA
ATOM     21  C   UNL d   1       1.082  -5.451  -4.069  0.00  0.00     0.050 A 
ATOM     22  C   UNL d   1       1.094  -4.479  -3.092  0.00  0.00     0.019 A 
ENDBRANCH  17  18
ENDBRANCH   3  16
TORSDOF 5
