REMARK  3 active torsions:
REMARK  status: ('A' for Active; 'I' for Inactive)
REMARK    1  A    between atoms: N_5  and  C_3 
REMARK    2  A    between atoms: N_10  and  C_4 
REMARK    3  A    between atoms: C_11  and  N_10 
ROOT
ATOM      1  N   UNL d   1       1.328   0.050   0.042  0.00  0.00    -0.021 N 
ATOM      2  HN  UNL d   1       2.292   0.038  -0.293  1.00  0.00     0.203 HD
ATOM      3  C   UNL d   1       0.623   1.185   0.151  0.00  0.00     0.703 A 
ATOM      4  C   UNL d   1       0.688  -1.060   0.400  0.00  0.00     0.698 A 
ATOM      5  N   UNL d   1      -0.635   1.264   0.598  0.00  0.00    -0.186 N 
ATOM      6  HN  UNL d   1      -1.134   2.148   0.694  1.00  0.00     0.185 HD
ATOM      7  N   UNL d   1      -0.577  -1.086   0.817  0.00  0.00    -0.187 N 
ATOM      8  HN  UNL d   1      -1.053  -1.957   1.053  1.00  0.00     0.185 HD
ATOM      9  C   UNL d   1      -1.177   0.094   0.904  0.00  0.00     0.215 A 
ENDROOT
BRANCH   4  10
ATOM     10  N   UNL d   1       1.430  -2.241   0.388  0.00  0.00    -0.191 N 
ATOM     11  H   UNL d   1       2.364  -2.054   0.049  0.00  0.00     0.184 HD
BRANCH  10  12
ATOM     12  C   UNL d   1       0.985  -3.554   0.143  0.00  0.00     0.055 A 
ATOM     13  C   UNL d   1       1.669  -4.654   0.701  0.00  0.00    -0.033 A 
ATOM     14  C   UNL d   1       1.239  -5.963   0.407  0.00  0.00     0.028 A 
ATOM     15  C   UNL d   1       2.837  -4.497   1.638  0.00  0.00     0.050 C 
ATOM     16  C   UNL d   1       0.142  -6.178  -0.423  0.00  0.00     0.011 A 
ATOM     17  C   UNL d   1      -0.542  -5.102  -0.974  0.00  0.00     0.021 A 
ATOM     18 BR   UNL d   1      -0.423  -7.942  -0.800  0.00  0.00    -0.051 Br
ATOM     19  C   UNL d   1      -0.120  -3.801  -0.690  0.00  0.00     0.032 A 
ENDBRANCH  10  12
ENDBRANCH   4  10
BRANCH   3  20
ATOM     20  N   UNL d   1       1.255   2.406  -0.238  0.00  0.00    -0.168 N 
ATOM     21  C   UNL d   1       0.736   3.678  -0.071  0.00  0.00     0.114 A 
ATOM     22  C   UNL d   1       1.640   4.596  -0.558  0.00  0.00     0.020 A 
ATOM     23  C   UNL d   1       2.742   3.871  -1.065  0.00  0.00     0.020 A 
ATOM     24  C   UNL d   1       2.487   2.533  -0.853  0.00  0.00     0.114 A 
ENDBRANCH   3  20
TORSDOF 3
