REMARK  5 active torsions:
REMARK  status: ('A' for Active; 'I' for Inactive)
REMARK    1  A    between atoms: C_5  and  C_1 
REMARK    2  A    between atoms: C_9  and  C_4 
REMARK       I    between atoms: N_12  and  C_5 
REMARK    3  A    between atoms: N_10  and  N_12 
REMARK    4  A    between atoms: C_14  and  C_15 
REMARK    5  A    between atoms: C_21  and  C_20 
ROOT
ATOM      1  C   UNL d   1       0.586  -1.077   0.003  0.00  0.00     0.241 A 
ATOM      2  N   UNL d   1       1.295   0.036  -0.071  0.00  0.00    -0.315 N 
ATOM      3  HN  UNL d   1       2.305   0.150  -0.159  1.00  0.00     0.169 HD
ATOM      4  C   UNL d   1       0.311   1.010   0.001  0.00  0.00     0.138 A 
ATOM      5  N   UNL d   1      -0.934   0.516   0.117  0.00  0.00    -0.242 N 
ATOM      6  HN  UNL d   1      -1.810   1.034   0.189  1.00  0.00     0.196 HD
ATOM      7  O   UNL d   1      -0.753  -0.859   0.116  0.00  0.00    -0.212 OA
ENDROOT
BRANCH   1   8
ATOM      8  C   UNL d   1       1.059  -2.442  -0.017  0.00  0.00     0.313 C 
ATOM      9  N   UNL d   1       2.444  -2.563  -0.115  0.00  0.00    -0.263 N 
ATOM     10  H   UNL d   1       3.021  -1.727  -0.165  0.00  0.00     0.190 HD
ATOM     11  O   UNL d   1       0.303  -3.411   0.053  0.00  0.00    -0.262 OA
BRANCH   9  12
ATOM     12  N   UNL d   1       3.004  -3.806  -0.101  0.00  0.00    -0.312 N 
ATOM     13  C   UNL d   1       4.291  -3.882  -0.194  0.00  0.00     0.088 C 
ATOM     14  HN  UNL d   1       2.429  -4.645  -0.020  1.00  0.00     0.185 HD
BRANCH  13  15
ATOM     15  C   UNL d   1       4.989  -5.240  -0.209  0.00  0.00    -0.018 C 
ATOM     16  C   UNL d   1       5.126  -5.691  -1.667  0.00  0.00     0.020 C 
ATOM     17  C   UNL d   1       6.378  -5.088   0.420  0.00  0.00     0.020 C 
ATOM     18  C   UNL d   1       4.184  -6.280   0.584  0.00  0.00     0.020 C 
ENDBRANCH  13  15
ENDBRANCH   9  12
ENDBRANCH   1   8
BRANCH   4  19
ATOM     19  C   UNL d   1       0.591   2.443  -0.044  0.00  0.00     0.010 A 
ATOM     20  C   UNL d   1       1.896   2.925  -0.177  0.00  0.00     0.016 A 
ATOM     21  C   UNL d   1       2.147   4.307  -0.210  0.00  0.00     0.009 A 
ATOM     22  C   UNL d   1       1.108   5.251  -0.106  0.00  0.00    -0.051 A 
ATOM     23  C   UNL d   1      -0.197   4.751   0.015  0.00  0.00     0.009 A 
ATOM     24  C   UNL d   1      -0.451   3.374   0.047  0.00  0.00     0.016 A 
BRANCH  22  25
ATOM     25  C   UNL d   1       1.413   6.761  -0.099  0.00  0.00    -0.024 C 
ATOM     26  C   UNL d   1       0.152   7.645   0.052  0.00  0.00     0.019 C 
ATOM     27  C   UNL d   1       2.346   7.093   1.086  0.00  0.00     0.019 C 
ATOM     28  C   UNL d   1       2.104   7.177  -1.414  0.00  0.00     0.019 C 
ENDBRANCH  22  25
ENDBRANCH   4  19
TORSDOF 5
