REMARK  5 active torsions:
REMARK  status: ('A' for Active; 'I' for Inactive)
REMARK    1  A    between atoms: C_9  and  N_1 
REMARK    2  A    between atoms: C_6  and  C_2 
REMARK    3  A    between atoms: S_18  and  C_5 
REMARK    4  A    between atoms: O_13  and  C_10 
REMARK    5  A    between atoms: C_21  and  O_13 
ROOT
ATOM      1  N   UNL d   1       0.001  -1.210  -0.927  0.00  0.00    -0.275 N 
ATOM      2  C   UNL d   1       1.159  -0.657  -0.359  0.00  0.00     0.143 A 
ATOM      3  N   UNL d   1       0.894   0.587  -0.002  0.00  0.00    -0.282 N 
ATOM      4  HN  UNL d   1       1.553   1.229   0.439  1.00  0.00     0.188 HD
ATOM      5  C   UNL d   1      -0.938  -0.196  -0.848  0.00  0.00     0.165 A 
ATOM      6  N   UNL d   1      -0.403   0.877  -0.318  0.00  0.00    -0.278 N 
ATOM      7  HN  UNL d   1      -0.872   1.770  -0.168  1.00  0.00     0.189 HD
ENDROOT
BRANCH   2   8
ATOM      8  C   UNL d   1       2.481  -1.282  -0.244  0.00  0.00     0.061 C 
ATOM      9  C   UNL d   1       3.264  -1.180   0.909  0.00  0.00     0.162 C 
ATOM     10  N   UNL d   1       4.419  -1.872   1.092  0.00  0.00    -0.346 N 
ATOM     11  C   UNL d   1       4.883  -2.607   0.066  0.00  0.00     0.090 C 
ATOM     12  HN  UNL d   1       4.918  -1.836   1.981  1.00  0.00     0.167 HD
ATOM     13  C   UNL d   1       4.245  -2.684  -1.154  0.00  0.00     0.018 C 
ATOM     14  C   UNL d   1       3.037  -2.007  -1.310  0.00  0.00     0.021 C 
BRANCH   9  15
ATOM     15  O   UNL d   1       2.841  -0.360   1.947  0.00  0.00    -0.293 OA
BRANCH  15  16
ATOM     16  C   UNL d   1       3.813   0.318   2.658  0.00  0.00     0.077 A 
ATOM     17  C   UNL d   1       4.977   0.844   2.082  0.00  0.00     0.037 A 
ATOM     18  C   UNL d   1       5.923   1.496   2.875  0.00  0.00     0.003 A 
ATOM     19  C   UNL d   1       5.694   1.659   4.240  0.00  0.00     0.000 A 
ATOM     20  C   UNL d   1       4.512   1.184   4.809  0.00  0.00     0.003 A 
ATOM     21  C   UNL d   1       3.570   0.520   4.018  0.00  0.00     0.037 A 
ENDBRANCH  15  16
ENDBRANCH   9  15
ENDBRANCH   2   8
BRANCH   1  22
ATOM     22  C   UNL d   1      -0.161  -2.510  -1.492  0.00  0.00     0.045 A 
ATOM     23  C   UNL d   1      -0.802  -2.659  -2.732  0.00  0.00     0.055 A 
ATOM     24  C   UNL d   1      -0.894  -3.921  -3.332  0.00  0.00     0.058 A 
ATOM     25 CL   UNL d   1      -1.675  -4.021  -4.870  0.00  0.00    -0.082 Cl
ATOM     26  C   UNL d   1      -0.347  -5.040  -2.697  0.00  0.00     0.055 A 
ATOM     27  C   UNL d   1       0.279  -4.893  -1.455  0.00  0.00     0.028 A 
ATOM     28 CL   UNL d   1      -0.394  -6.619  -3.393  0.00  0.00    -0.083 Cl
ATOM     29  C   UNL d   1       0.369  -3.635  -0.850  0.00  0.00     0.032 A 
ENDBRANCH   1  22
BRANCH   5  30
ATOM     30  S   UNL d   1      -2.631  -0.332  -1.201  0.00  0.00    -0.105 SA
ATOM     31  H   UNL d   1      -2.781  -1.657  -1.066  0.00  0.00     0.110 HD
ENDBRANCH   5  30
TORSDOF 5
