REMARK  1 active torsions:
REMARK  status: ('A' for Active; 'I' for Inactive)
REMARK    1  A    between atoms: C_5  and  C_1 
ROOT
ATOM      1  C   UNL d   1      -2.288   0.006   0.018  0.00  0.00     0.120 A 
ATOM      2  N   UNL d   1      -1.539   1.095   0.058  0.00  0.00    -0.340 N 
ATOM      3  HN  UNL d   1      -1.869   2.059   0.108  1.00  0.00     0.167 HD
ATOM      4  N   UNL d   1      -1.470  -1.104  -0.041  0.00  0.00    -0.340 N 
ATOM      5  C   UNL d   1      -0.231   0.677   0.018  0.00  0.00     0.060 A 
ATOM      6  C   UNL d   1      -0.161  -0.706  -0.020  0.00  0.00     0.060 A 
ATOM      7  C   UNL d   1       0.954   1.424   0.019  0.00  0.00     0.032 A 
ATOM      8  C   UNL d   1       1.040  -1.417  -0.033  0.00  0.00     0.032 A 
ATOM      9  C   UNL d   1       2.216  -0.657  -0.021  0.00  0.00     0.002 A 
ATOM     10  C   UNL d   1       2.177   0.740  -0.003  0.00  0.00     0.002 A 
ATOM     11  H   UNL d   1      -1.794  -2.060  -0.054  0.00  0.00     0.167 HD
ENDROOT
BRANCH   1  12
ATOM     12  C   UNL d   1      -3.764  -0.055   0.016  0.00  0.00     0.051 A 
ATOM     13  C   UNL d   1      -4.536   0.958  -0.597  0.00  0.00     0.049 A 
ATOM     14 CL   UNL d   1      -3.850   2.314  -1.435  0.00  0.00    -0.083 Cl
ATOM     15  C   UNL d   1      -5.941   0.903  -0.603  0.00  0.00     0.025 A 
ATOM     16  C   UNL d   1      -6.611  -0.159  -0.009  0.00  0.00     0.003 A 
ATOM     17  C   UNL d   1      -5.878  -1.168   0.601  0.00  0.00     0.025 A 
ATOM     18  C   UNL d   1      -4.476  -1.117   0.622  0.00  0.00     0.049 A 
ATOM     19 CL   UNL d   1      -3.705  -2.433   1.453  0.00  0.00    -0.083 Cl
ENDBRANCH   1  12
TORSDOF 1
