REMARK  3 active torsions:
REMARK  status: ('A' for Active; 'I' for Inactive)
REMARK    1  A    between atoms: N_12  and  C_6 
REMARK    2  A    between atoms: C_17  and  N_12 
REMARK    3  A    between atoms: C_13  and  C_17 
ROOT
ATOM      1  C   UNL d   1       1.171   0.610   0.039  0.00  0.00     0.089 A 
ATOM      2  C   UNL d   1       0.627  -0.669   0.004  0.00  0.00     0.043 A 
ATOM      3  S   UNL d   1       0.001   1.845   0.090  0.00  0.00    -0.075 SA
ATOM      4  C   UNL d   1      -0.821  -0.594   0.025  0.00  0.00    -0.029 A 
ATOM      5  C   UNL d   1      -1.266   0.718   0.067  0.00  0.00    -0.008 A 
ATOM      6  C   UNL d   1       1.565  -1.729  -0.065  0.00  0.00     0.095 A 
ATOM      7  N   UNL d   1       2.473   0.939   0.035  0.00  0.00    -0.346 N 
ATOM      8  HN  UNL d   1       2.817   1.898   0.077  1.00  0.00     0.167 HD
ATOM      9  N   UNL d   1       2.884  -1.413  -0.086  0.00  0.00    -0.342 N 
ATOM     10  HN  UNL d   1       3.586  -2.150  -0.145  1.00  0.00     0.167 HD
ATOM     11  C   UNL d   1       3.260  -0.130  -0.029  0.00  0.00     0.182 A 
ATOM     12  C   UNL d   1      -1.791  -1.743   0.018  0.00  0.00     0.041 C 
ATOM     13  C   UNL d   1      -2.697   1.158   0.056  0.00  0.00     0.047 C 
ATOM     14  C   UNL d   1      -3.230  -1.293  -0.298  0.00  0.00     0.005 C 
ATOM     15  C   UNL d   1      -3.614  -0.007   0.447  0.00  0.00     0.005 C 
ENDROOT
BRANCH   6  16
ATOM     16  N   UNL d   1       1.187  -3.087  -0.100  0.00  0.00    -0.275 NA
ATOM     17  H   UNL d   1       0.803  -3.322   0.810  0.00  0.00     0.129 HD
BRANCH  16  18
ATOM     18  C   UNL d   1       2.298  -3.967  -0.450  0.00  0.00     0.120 C 
BRANCH  18  19
ATOM     19  C   UNL d   1       1.911  -5.418  -0.376  0.00  0.00    -0.022 C 
ATOM     20  C   UNL d   1       0.689  -5.956  -0.255  0.00  0.00     0.008 C 
ENDBRANCH  18  19
ENDBRANCH  16  18
ENDBRANCH   6  16
TORSDOF 3
