REMARK  6 active torsions:
REMARK  status: ('A' for Active; 'I' for Inactive)
REMARK    1  A    between atoms: C_13  and  C_1 
REMARK    2  A    between atoms: O_11  and  C_2 
REMARK    3  A    between atoms: C_8  and  C_5 
REMARK    4  A    between atoms: S_9  and  C_8 
REMARK    5  A    between atoms: C_10  and  S_9 
REMARK    6  A    between atoms: O_19  and  C_13 
ROOT
ATOM      1  C   UNL d   1       0.326   1.498   0.029  0.00  0.00     0.009 A 
ATOM      2  C   UNL d   1      -0.680   0.512   0.070  0.00  0.00     0.096 A 
ATOM      3  N   UNL d   1       0.948  -1.262  -0.002  0.00  0.00    -0.367 N 
ATOM      4  HN  UNL d   1       1.181  -2.254  -0.027  1.00  0.00     0.165 HD
ATOM      5  C   UNL d   1       1.672   1.062   0.019  0.00  0.00    -0.022 A 
ATOM      6  C   UNL d   1      -0.339  -0.841   0.038  0.00  0.00     0.039 A 
ATOM      7  C   UNL d   1       1.908  -0.314  -0.007  0.00  0.00     0.096 A 
ATOM      8  C   UNL d   1      -1.378  -1.926   0.034  0.00  0.00     0.071 C 
ENDROOT
BRANCH   5   9
ATOM      9  C   UNL d   1       2.864   1.993   0.008  0.00  0.00     0.120 C 
BRANCH   9  10
ATOM     10  S   UNL d   1       3.331   2.442  -1.698  0.00  0.00    -0.125 SA
BRANCH  10  11
ATOM     11  C   UNL d   1       4.911   3.251  -1.492  0.00  0.00     0.001 A 
ATOM     12  C   UNL d   1       5.846   3.103  -2.526  0.00  0.00     0.020 A 
ATOM     13  C   UNL d   1       7.080   3.761  -2.482  0.00  0.00     0.025 A 
ATOM     14  C   UNL d   1       7.383   4.580  -1.401  0.00  0.00     0.034 A 
ATOM     15  C   UNL d   1       6.468   4.737  -0.362  0.00  0.00     0.025 A 
ATOM     16 CL   UNL d   1       8.885   5.418  -1.357  0.00  0.00    -0.084 Cl
ATOM     17  C   UNL d   1       5.233   4.076  -0.407  0.00  0.00     0.020 A 
ENDBRANCH  10  11
ENDBRANCH   9  10
ENDBRANCH   5   9
BRANCH   1  18
ATOM     18  C   UNL d   1       0.015   2.977  -0.018  0.00  0.00     0.206 C 
BRANCH  18  19
ATOM     19  O   UNL d   1      -1.387   3.234  -0.110  0.00  0.00    -0.396 OA
ATOM     20  H   UNL d   1      -1.528   3.687  -0.964  0.00  0.00     0.209 HD
ENDBRANCH  18  19
ENDBRANCH   1  18
BRANCH   2  21
ATOM     21  O   UNL d   1      -2.007   0.841   0.152  0.00  0.00    -0.358 OA
ATOM     22  H   UNL d   1      -2.061   1.818   0.227  0.00  0.00     0.217 HD
ENDBRANCH   2  21
TORSDOF 6
