REMARK  7 active torsions:
REMARK  status: ('A' for Active; 'I' for Inactive)
REMARK    1  A    between atoms: S_11  and  C_3 
REMARK    2  A    between atoms: C_4  and  C_10 
REMARK    3  A    between atoms: N_5  and  C_12 
REMARK    4  A    between atoms: S_15  and  C_7 
REMARK    5  A    between atoms: O_21  and  C_9 
REMARK    6  A    between atoms: C_20  and  S_11 
REMARK    7  A    between atoms: C_23  and  S_15 
ROOT
ATOM      1  N   UNL d   1      -1.227   0.012  -0.021  0.00  0.00    -0.343 N 
ATOM      2  HN  UNL d   1      -2.246   0.031  -0.061  1.00  0.00     0.167 HD
ATOM      3  C   UNL d   1      -0.506   1.162   0.120  0.00  0.00     0.102 A 
ATOM      4  C   UNL d   1      -0.549  -1.152  -0.106  0.00  0.00     0.075 A 
ATOM      5  C   UNL d   1       0.900   1.190   0.214  0.00  0.00     0.066 A 
ATOM      6  C   UNL d   1       1.556  -0.039   0.067  0.00  0.00     0.035 A 
ATOM      7  C   UNL d   1       0.835  -1.218  -0.075  0.00  0.00     0.039 A 
ENDROOT
BRANCH   5   8
ATOM      8  N   UNL d   1       1.659   2.380   0.376  0.00  0.00    -0.363 N 
ATOM      9  C   UNL d   1       2.637   2.359   1.230  0.00  0.00     0.102 C 
ATOM     10  HN  UNL d   1       1.443   3.221  -0.160  1.00  0.00     0.165 HD
BRANCH   9  11
ATOM     11  C   UNL d   1       3.568   3.496   1.398  0.00  0.00     0.016 A 
ATOM     12  C   UNL d   1       4.747   3.334   2.134  0.00  0.00     0.099 A 
ATOM     13  C   UNL d   1       5.653   4.397   2.238  0.00  0.00     0.069 A 
ATOM     14 CL   UNL d   1       7.125   4.204   3.119  0.00  0.00    -0.081 Cl
ATOM     15  C   UNL d   1       5.388   5.616   1.618  0.00  0.00     0.050 A 
ATOM     16  C   UNL d   1       4.207   5.769   0.893  0.00  0.00     0.036 A 
ATOM     17  C   UNL d   1       3.295   4.720   0.776  0.00  0.00     0.039 A 
ATOM     18 CL   UNL d   1       3.878   7.272   0.123  0.00  0.00    -0.084 Cl
BRANCH  12  19
ATOM     19  O   UNL d   1       5.022   2.130   2.730  0.00  0.00    -0.358 OA
ATOM     20  H   UNL d   1       5.879   2.215   3.195  0.00  0.00     0.217 HD
ENDBRANCH  12  19
ENDBRANCH   9  11
ENDBRANCH   5   8
BRANCH   3  21
ATOM     21  S   UNL d   1      -1.500   2.643   0.272  0.00  0.00    -0.070 SA
BRANCH  21  22
ATOM     22  C   UNL d   1      -1.718   3.120  -1.435  0.00  0.00     0.007 A 
ATOM     23  C   UNL d   1      -2.989   3.088  -2.024  0.00  0.00     0.019 A 
ATOM     24  C   UNL d   1      -3.180   3.562  -3.328  0.00  0.00     0.001 A 
ATOM     25  C   UNL d   1      -2.103   4.072  -4.049  0.00  0.00     0.000 A 
ATOM     26  C   UNL d   1      -0.835   4.104  -3.472  0.00  0.00     0.001 A 
ATOM     27  C   UNL d   1      -0.645   3.636  -2.171  0.00  0.00     0.019 A 
ENDBRANCH  21  22
ENDBRANCH   3  21
BRANCH   4  28
ATOM     28  S   UNL d   1      -1.466  -2.675  -0.188  0.00  0.00    -0.073 SA
BRANCH  28  29
ATOM     29  C   UNL d   1      -2.506  -2.482  -1.622  0.00  0.00     0.007 A 
ATOM     30  C   UNL d   1      -2.119  -1.771  -2.763  0.00  0.00     0.019 A 
ATOM     31  C   UNL d   1      -2.967  -1.692  -3.871  0.00  0.00     0.001 A 
ATOM     32  C   UNL d   1      -4.204  -2.335  -3.853  0.00  0.00     0.000 A 
ATOM     33  C   UNL d   1      -4.593  -3.058  -2.729  0.00  0.00     0.001 A 
ATOM     34  C   UNL d   1      -3.747  -3.134  -1.621  0.00  0.00     0.019 A 
ENDBRANCH  28  29
ENDBRANCH   4  28
TORSDOF 7
