REMARK  5 active torsions:
REMARK  status: ('A' for Active; 'I' for Inactive)
REMARK    1  A    between atoms: N_9  and  C_1 
REMARK    2  A    between atoms: C_10  and  N_6 
REMARK    3  A    between atoms: C_11  and  C_10 
REMARK       I    between atoms: N_17  and  C_11 
REMARK    4  A    between atoms: C_13  and  C_19 
REMARK    5  A    between atoms: N_14  and  N_17 
ROOT
ATOM      1  C   UNL d   1       1.962   0.931   0.213  0.00  0.00     0.276 C 
ENDROOT
BRANCH   1   2
ATOM      2  N   UNL d   1       0.901  -0.053   0.419  0.00  0.00    -0.196 N 
ATOM      3  N   UNL d   1       0.902  -1.325  -0.051  0.00  0.00    -0.113 N 
ATOM      4  C   UNL d   1      -0.421  -1.580  -0.055  0.00  0.00     0.712 A 
ATOM      5  HN  UNL d   1       1.684  -1.920  -0.325  1.00  0.00     0.207 HD
ATOM      6  N   UNL d   1      -1.151  -0.517   0.434  0.00  0.00    -0.115 N 
ATOM      7  N   UNL d   1      -0.307   0.440   0.748  0.00  0.00    -0.211 N 
ATOM      8  HN  UNL d   1      -2.166  -0.481   0.535  1.00  0.00     0.207 HD
ATOM      9  HN  UNL d   1      -0.519   1.353   1.150  1.00  0.00     0.210 HD
BRANCH   4  10
ATOM     10  N   UNL d   1      -1.094  -2.671  -0.544  0.00  0.00    -0.215 N 
ATOM     11  C   UNL d   1      -0.657  -3.999  -0.101  0.00  0.00     0.141 C 
ATOM     12  C   UNL d   1      -1.310  -5.123  -0.914  0.00  0.00     0.020 C 
ATOM     13  C   UNL d   1      -2.813  -4.984  -1.131  0.00  0.00     0.003 C 
ATOM     14  C   UNL d   1      -3.258  -3.567  -1.437  0.00  0.00     0.020 C 
ATOM     15  C   UNL d   1      -2.553  -2.489  -0.631  0.00  0.00     0.141 C 
ENDBRANCH   4  10
ENDBRANCH   1   2
BRANCH   1  16
ATOM     16  C   UNL d   1       3.389   0.482   0.239  0.00  0.00     0.257 C 
ATOM     17  N   UNL d   1       3.669  -0.802  -0.186  0.00  0.00    -0.269 N 
ATOM     18  H   UNL d   1       2.911  -1.473  -0.350  0.00  0.00     0.190 HD
ATOM     19  O   UNL d   1       4.271   1.310   0.522  0.00  0.00    -0.270 OA
BRANCH  17  20
ATOM     20  N   UNL d   1       4.963  -1.137  -0.447  0.00  0.00    -0.308 N 
ATOM     21  C   UNL d   1       5.176  -2.345  -0.861  0.00  0.00     0.120 C 
ATOM     22  HN  UNL d   1       5.724  -0.471  -0.324  1.00  0.00     0.186 HD
BRANCH  21  23
ATOM     23  C   UNL d   1       6.543  -2.803  -1.220  0.00  0.00     0.003 A 
ATOM     24  C   UNL d   1       6.779  -4.086  -1.734  0.00  0.00     0.047 A 
ATOM     25  C   UNL d   1       8.087  -4.499  -2.020  0.00  0.00     0.048 A 
ATOM     26 CL   UNL d   1       5.510  -5.212  -2.060  0.00  0.00    -0.083 Cl
ATOM     27  C   UNL d   1       9.154  -3.628  -1.809  0.00  0.00     0.035 A 
ATOM     28  C   UNL d   1       8.930  -2.341  -1.329  0.00  0.00     0.025 A 
ATOM     29 CL   UNL d   1      10.760  -4.150  -2.141  0.00  0.00    -0.084 Cl
ATOM     30  C   UNL d   1       7.626  -1.929  -1.034  0.00  0.00     0.016 A 
ENDBRANCH  21  23
ENDBRANCH  17  20
ENDBRANCH   1  16
TORSDOF 5
