REMARK  5 active torsions:
REMARK  status: ('A' for Active; 'I' for Inactive)
REMARK    1  A    between atoms: C_9  and  C_3 
REMARK    2  A    between atoms: C_10  and  C_4 
REMARK    3  A    between atoms: O_12  and  C_5 
REMARK    4  A    between atoms: C_13  and  C_10 
REMARK    5  A    between atoms: C_18  and  C_13 
ROOT
ATOM      1  N   UNL d   1      -0.723   1.178  -0.243  0.00  0.00    -0.322 N 
ATOM      2  HN  UNL d   1      -1.201   2.075  -0.325  1.00  0.00     0.169 HD
ATOM      3  C   UNL d   1      -1.397   0.027  -0.151  0.00  0.00     0.117 A 
ATOM      4  C   UNL d   1       1.343  -0.090  -0.135  0.00  0.00     0.015 A 
ATOM      5  C   UNL d   1       0.614   1.091  -0.223  0.00  0.00     0.149 A 
ATOM      6  N   UNL d   1      -0.809  -1.175  -0.066  0.00  0.00    -0.345 N 
ATOM      7  HN  UNL d   1      -1.367  -2.027  -0.011  1.00  0.00     0.167 HD
ATOM      8  C   UNL d   1       0.544  -1.230  -0.056  0.00  0.00     0.017 A 
ATOM      9  C   UNL d   1       1.061  -2.631   0.068  0.00  0.00     0.069 C 
ENDROOT
BRANCH   3  10
ATOM     10  C   UNL d   1      -2.874   0.084  -0.080  0.00  0.00     0.009 A 
ATOM     11  C   UNL d   1      -3.567   1.310  -0.120  0.00  0.00     0.022 A 
ATOM     12  C   UNL d   1      -4.965   1.376  -0.035  0.00  0.00    -0.061 A 
ATOM     13  C   UNL d   1      -5.675   2.698  -0.060  0.00  0.00     0.048 C 
ATOM     14  C   UNL d   1      -5.697   0.192   0.100  0.00  0.00     0.007 A 
ATOM     15  C   UNL d   1      -5.040  -1.035   0.140  0.00  0.00     0.002 A 
ATOM     16  C   UNL d   1      -3.647  -1.086   0.052  0.00  0.00     0.015 A 
ENDBRANCH   3  10
BRANCH   5  17
ATOM     17  O   UNL d   1       1.196   2.323  -0.294  0.00  0.00    -0.346 OA
ATOM     18  H   UNL d   1       2.038   2.308   0.176  0.00  0.00     0.219 HD
ENDBRANCH   5  17
BRANCH   4  19
ATOM     19  C   UNL d   1       2.848  -0.120  -0.055  0.00  0.00     0.045 C 
BRANCH  19  20
ATOM     20  C   UNL d   1       3.626  -0.803  -1.188  0.00  0.00     0.009 C 
BRANCH  20  21
ATOM     21  C   UNL d   1       3.354  -0.310  -2.619  0.00  0.00    -0.023 C 
ATOM     22  C   UNL d   1       3.678   1.171  -2.809  0.00  0.00     0.009 C 
ATOM     23  C   UNL d   1       4.191  -1.145  -3.596  0.00  0.00     0.009 C 
ENDBRANCH  20  21
ENDBRANCH  19  20
ENDBRANCH   4  19
TORSDOF 5
