REMARK  6 active torsions:
REMARK  status: ('A' for Active; 'I' for Inactive)
REMARK    1  A    between atoms: C_9  and  N_1 
REMARK    2  A    between atoms: O_14  and  C_2 
REMARK    3  A    between atoms: C_3  and  C_4 
REMARK    4  A    between atoms: N_5  and  C_8 
REMARK    5  A    between atoms: O_16  and  C_7 
REMARK    6  A    between atoms: C_15  and  C_9 
ROOT
ATOM      1  N   UNL d   1       1.462   0.059   0.319  0.00  0.00     0.092 N 
ATOM      2  C   UNL d   1      -1.445   0.420  -0.115  0.00  0.00     0.084 C 
ATOM      3  C   UNL d   1      -0.532   1.539   0.377  0.00  0.00     0.055 C 
ATOM      4  C   UNL d   1      -0.851  -0.918   0.337  0.00  0.00     0.055 C 
ATOM      5  C   UNL d   1       0.898   1.349  -0.116  0.00  0.00     0.275 C 
ATOM      6  C   UNL d   1       0.606  -1.063  -0.114  0.00  0.00     0.275 C 
ENDROOT
BRANCH   2   7
ATOM      7  N   UNL d   1      -1.566   0.371  -1.582  0.00  0.00    -0.393 N 
ATOM      8  C   UNL d   1      -1.947   1.432  -2.202  0.00  0.00     0.097 C 
ATOM      9  HN  UNL d   1      -1.353  -0.484  -2.095  1.00  0.00     0.159 HD
BRANCH   8  10
ATOM     10  C   UNL d   1      -2.137   1.430  -3.665  0.00  0.00     0.015 A 
ATOM     11  C   UNL d   1      -3.054   2.261  -4.338  0.00  0.00     0.113 A 
ATOM     12  C   UNL d   1      -3.137   2.149  -5.743  0.00  0.00     0.102 A 
ATOM     13  C   UNL d   1      -2.314   1.244  -6.436  0.00  0.00     0.040 A 
ATOM     14  C   UNL d   1      -1.390   0.457  -5.764  0.00  0.00     0.004 A 
ATOM     15  C   UNL d   1      -1.310   0.538  -4.383  0.00  0.00     0.016 A 
BRANCH  11  16
ATOM     16  O   UNL d   1      -3.817   3.229  -3.742  0.00  0.00    -0.352 OA
ATOM     17  C   UNL d   1      -4.500   2.926  -2.531  0.00  0.00     0.210 C 
ENDBRANCH  11  16
BRANCH  12  18
ATOM     18  O   UNL d   1      -4.003   2.791  -6.593  0.00  0.00    -0.353 OA
ATOM     19  C   UNL d   1      -4.491   4.069  -6.217  0.00  0.00     0.210 C 
ENDBRANCH  12  18
ENDBRANCH   8  10
ENDBRANCH   2   7
BRANCH   1  20
ATOM     20  C   UNL d   1       2.818  -0.133  -0.242  0.00  0.00     0.311 C 
BRANCH  20  21
ATOM     21  C   UNL d   1       3.815   0.932   0.168  0.00  0.00    -0.030 A 
ATOM     22  C   UNL d   1       4.119   1.145   1.520  0.00  0.00     0.009 A 
ATOM     23  C   UNL d   1       5.025   2.139   1.893  0.00  0.00     0.001 A 
ATOM     24  C   UNL d   1       5.637   2.928   0.921  0.00  0.00     0.000 A 
ATOM     25  C   UNL d   1       5.346   2.723  -0.426  0.00  0.00     0.001 A 
ATOM     26  C   UNL d   1       4.441   1.730  -0.803  0.00  0.00     0.009 A 
ENDBRANCH  20  21
ENDBRANCH   1  20
TORSDOF 6
