REMARK  13 active torsions:
REMARK  status: ('A' for Active; 'I' for Inactive)
REMARK    1  A    between atoms: C_1  and  O_4 
REMARK    2  A    between atoms: C_2  and  O_5 
REMARK    3  A    between atoms: C_6  and  O_4 
REMARK    4  A    between atoms: C_7  and  O_5 
REMARK    5  A    between atoms: C_21  and  C_6 
REMARK    6  A    between atoms: C_20  and  C_7 
REMARK    7  A    between atoms: O_14  and  N_8 
REMARK    8  A    between atoms: C_10  and  C_19 
REMARK    9  A    between atoms: C_12  and  O_14 
REMARK   10  A    between atoms: C_25  and  C_12 
REMARK   11  A    between atoms: C_13  and  O_16 
REMARK   12  A    between atoms: C_24  and  C_13 
REMARK   13  A    between atoms: O_16  and  C_19 
ROOT
ATOM      1  C   UNL d   1      -1.627  -0.031  -0.207  0.00  0.00     0.214 C 
ATOM      2  C   UNL d   1      -1.192  -0.246  -1.685  0.00  0.00     0.198 C 
ATOM      3  C   UNL d   1      -0.865   1.216   0.294  0.00  0.00     0.066 C 
ATOM      4  N   UNL d   1      -1.479   2.131   0.988  0.00  0.00    -0.261 N 
ATOM      5  HN  UNL d   1      -2.473   2.092   1.214  1.00  0.00     0.194 HD
ATOM      6  C   UNL d   1       0.334  -0.566  -1.635  0.00  0.00     0.178 C 
ATOM      7  O   UNL d   1       1.010   0.666  -1.284  0.00  0.00    -0.375 OA
ATOM      8  C   UNL d   1       0.642   1.184  -0.006  0.00  0.00     0.225 C 
ENDROOT
BRANCH   1   9
ATOM      9  O   UNL d   1      -3.021  -0.142   0.067  0.00  0.00    -0.303 OA
BRANCH   9  10
ATOM     10  C   UNL d   1      -3.894   0.669  -0.555  0.00  0.00     0.294 C 
ATOM     11  O   UNL d   1      -3.622   1.516  -1.385  0.00  0.00    -0.259 OA
BRANCH  10  12
ATOM     12  C   UNL d   1      -5.284   0.337  -0.105  0.00  0.00     0.039 A 
ATOM     13  C   UNL d   1      -6.334   1.165  -0.523  0.00  0.00     0.017 A 
ATOM     14  C   UNL d   1      -7.653   0.867  -0.168  0.00  0.00     0.001 A 
ATOM     15  C   UNL d   1      -7.934  -0.260   0.604  0.00  0.00     0.000 A 
ATOM     16  C   UNL d   1      -6.896  -1.087   1.031  0.00  0.00     0.001 A 
ATOM     17  C   UNL d   1      -5.575  -0.790   0.680  0.00  0.00     0.017 A 
ENDBRANCH  10  12
ENDBRANCH   9  10
ENDBRANCH   1   9
BRANCH   4  18
ATOM     18  O   UNL d   1      -0.625   3.186   1.395  0.00  0.00    -0.195 OA
BRANCH  18  19
ATOM     19  C   UNL d   1      -1.362   4.192   1.974  0.00  0.00     0.315 C 
ATOM     20  O   UNL d   1      -2.574   4.224   2.145  0.00  0.00    -0.257 OA
BRANCH  19  21
ATOM     21  C   UNL d   1      -0.489   5.341   2.347  0.00  0.00     0.041 A 
ATOM     22  C   UNL d   1       0.866   5.190   2.671  0.00  0.00     0.017 A 
ATOM     23  C   UNL d   1       1.629   6.303   3.039  0.00  0.00     0.001 A 
ATOM     24  C   UNL d   1       1.050   7.573   3.087  0.00  0.00     0.000 A 
ATOM     25  C   UNL d   1      -0.299   7.731   2.777  0.00  0.00     0.001 A 
ATOM     26  C   UNL d   1      -1.067   6.622   2.416  0.00  0.00     0.017 A 
ENDBRANCH  19  21
ENDBRANCH  18  19
ENDBRANCH   4  18
BRANCH   2  27
ATOM     27  O   UNL d   1      -2.013  -1.139  -2.472  0.00  0.00    -0.306 OA
BRANCH  27  28
ATOM     28  C   UNL d   1      -2.181  -2.413  -2.071  0.00  0.00     0.293 C 
ATOM     29  O   UNL d   1      -1.656  -2.901  -1.080  0.00  0.00    -0.259 OA
BRANCH  28  30
ATOM     30  C   UNL d   1      -3.045  -3.179  -3.017  0.00  0.00     0.039 A 
ATOM     31  C   UNL d   1      -3.028  -4.578  -2.924  0.00  0.00     0.017 A 
ATOM     32  C   UNL d   1      -3.828  -5.359  -3.763  0.00  0.00     0.001 A 
ATOM     33  C   UNL d   1      -4.658  -4.750  -4.699  0.00  0.00     0.000 A 
ATOM     34  C   UNL d   1      -4.684  -3.358  -4.804  0.00  0.00     0.001 A 
ATOM     35  C   UNL d   1      -3.878  -2.571  -3.969  0.00  0.00     0.017 A 
ENDBRANCH  28  30
ENDBRANCH  27  28
ENDBRANCH   2  27
BRANCH   6  36
ATOM     36  C   UNL d   1       0.916  -1.119  -2.949  0.00  0.00     0.213 C 
BRANCH  36  37
ATOM     37  O   UNL d   1       2.338  -1.422  -2.875  0.00  0.00    -0.315 OA
BRANCH  37  38
ATOM     38  C   UNL d   1       2.686  -2.566  -2.228  0.00  0.00     0.293 C 
ATOM     39  O   UNL d   1       1.920  -3.275  -1.593  0.00  0.00    -0.259 OA
BRANCH  38  40
ATOM     40  C   UNL d   1       4.137  -2.891  -2.389  0.00  0.00     0.039 A 
ATOM     41  C   UNL d   1       4.683  -3.921  -1.605  0.00  0.00     0.017 A 
ATOM     42  C   UNL d   1       6.029  -4.277  -1.727  0.00  0.00     0.001 A 
ATOM     43  C   UNL d   1       6.845  -3.614  -2.643  0.00  0.00     0.000 A 
ATOM     44  C   UNL d   1       6.310  -2.601  -3.439  0.00  0.00     0.001 A 
ATOM     45  C   UNL d   1       4.962  -2.238  -3.316  0.00  0.00     0.017 A 
ENDBRANCH  38  40
ENDBRANCH  37  38
ENDBRANCH  36  37
ENDBRANCH   6  36
TORSDOF 13
