REMARK  6 active torsions:
REMARK  status: ('A' for Active; 'I' for Inactive)
REMARK    1  A    between atoms: C_4  and  C_1 
REMARK    2  A    between atoms: N_2  and  C_3 
REMARK       I    between atoms: N_7  and  C_4 
REMARK    3  A    between atoms: C_5  and  N_8 
REMARK    4  A    between atoms: N_6  and  C_5 
REMARK    5  A    between atoms: C_9  and  N_6 
REMARK    6  A    between atoms: N_8  and  N_7 
ROOT
ATOM      1  C   UNL d   1       3.016  -0.165  -0.052  0.00  0.00     0.251 C 
ATOM      2  N   UNL d   1       2.914   0.819   0.926  0.00  0.00    -0.168 NA
ATOM      3  O   UNL d   1       3.878  -1.034   0.016  0.00  0.00    -0.272 OA
ATOM      4  H   UNL d   1       3.511   0.591   1.718  0.00  0.00     0.156 HD
ENDROOT
BRANCH   2   5
ATOM      5  N   UNL d   1       3.077   2.186   0.550  0.00  0.00    -0.290 N 
ATOM      6  H   UNL d   1       3.991   2.432   0.176  0.00  0.00     0.183 HD
BRANCH   5   7
ATOM      7  C   UNL d   1       2.043   3.021   0.237  0.00  0.00     0.187 C 
ATOM      8  S   UNL d   1       2.355   4.366  -0.709  0.00  0.00    -0.040 SA
BRANCH   7   9
ATOM      9  N   UNL d   1       0.765   2.728   0.575  0.00  0.00    -0.332 N 
ATOM     10  H   UNL d   1       0.077   3.066  -0.088  0.00  0.00     0.168 HD
BRANCH   9  11
ATOM     11  C   UNL d   1       0.275   1.969   1.652  0.00  0.00     0.040 A 
ATOM     12  C   UNL d   1       0.806   2.011   2.952  0.00  0.00    -0.035 A 
ATOM     13  C   UNL d   1       1.872   2.976   3.395  0.00  0.00     0.050 C 
ATOM     14  C   UNL d   1       0.274   1.144   3.924  0.00  0.00     0.009 A 
ATOM     15  C   UNL d   1      -0.798   0.304   3.627  0.00  0.00     0.001 A 
ATOM     16  C   UNL d   1      -1.372   0.334   2.361  0.00  0.00     0.002 A 
ATOM     17  C   UNL d   1      -0.849   1.177   1.383  0.00  0.00     0.030 A 
ENDBRANCH   9  11
ENDBRANCH   7   9
ENDBRANCH   5   7
ENDBRANCH   2   5
BRANCH   1  18
ATOM     18  C   UNL d   1       2.031  -0.132  -1.165  0.00  0.00     0.055 A 
ATOM     19  C   UNL d   1       0.850  -0.898  -1.185  0.00  0.00     0.053 A 
ATOM     20  C   UNL d   1      -0.162  -0.557  -2.104  0.00  0.00     0.031 A 
ATOM     21  C   UNL d   1       0.025   0.477  -3.024  0.00  0.00     0.002 A 
ATOM     22  C   UNL d   1       1.233   1.164  -3.060  0.00  0.00     0.001 A 
ATOM     23  C   UNL d   1       2.235   0.852  -2.143  0.00  0.00     0.019 A 
BRANCH  19  24
ATOM     24  N   UNL d   1       0.643  -2.066  -0.391  0.00  0.00    -0.332 N 
ATOM     25  C   UNL d   1      -0.583  -2.557   0.026  0.00  0.00     0.096 A 
ATOM     26  C   UNL d   1      -0.408  -3.791   0.615  0.00  0.00     0.019 A 
ATOM     27  C   UNL d   1       0.966  -4.088   0.549  0.00  0.00     0.019 A 
ATOM     28  C   UNL d   1       1.585  -3.019  -0.066  0.00  0.00     0.096 A 
ENDBRANCH  19  24
ENDBRANCH   1  18
TORSDOF 6
