REMARK  4 active torsions:
REMARK  status: ('A' for Active; 'I' for Inactive)
REMARK    1  A    between atoms: C_10  and  C_3 
REMARK    2  A    between atoms: C_11  and  C_4 
REMARK    3  A    between atoms: C_9  and  C_8 
REMARK    4  A    between atoms: O_17  and  C_14 
ROOT
ATOM      1  N   UNL d   1      -1.113  -0.601   0.227  0.00  0.00    -0.299 N 
ATOM      2  HN  UNL d   1      -2.031  -1.024   0.364  1.00  0.00     0.187 HD
ATOM      3  C   UNL d   1       1.254  -0.847  -0.102  0.00  0.00     0.005 A 
ATOM      4  C   UNL d   1      -0.022  -1.402   0.109  0.00  0.00     0.069 A 
ATOM      5  N   UNL d   1      -1.007   0.774   0.168  0.00  0.00    -0.299 N 
ATOM      6  HN  UNL d   1      -1.842   1.351   0.268  1.00  0.00     0.187 HD
ATOM      7  C   UNL d   1       1.321   0.561  -0.159  0.00  0.00     0.046 A 
ATOM      8  C   UNL d   1       0.191   1.358  -0.023  0.00  0.00     0.059 A 
ENDROOT
BRANCH   8   9
ATOM      9  C   UNL d   1       0.226   2.834  -0.038  0.00  0.00    -0.008 A 
ATOM     10  C   UNL d   1       1.252   3.553  -0.687  0.00  0.00     0.016 A 
ATOM     11  C   UNL d   1       1.313   4.952  -0.649  0.00  0.00     0.037 A 
ATOM     12  C   UNL d   1       0.343   5.675   0.038  0.00  0.00     0.068 A 
ATOM     13  C   UNL d   1      -0.708   4.992   0.646  0.00  0.00     0.037 A 
ATOM     14  C   UNL d   1      -0.759   3.591   0.612  0.00  0.00     0.016 A 
BRANCH  12  15
ATOM     15  O   UNL d   1       0.301   7.038   0.141  0.00  0.00    -0.356 OA
ATOM     16  C   UNL d   1       1.559   7.701   0.057  0.00  0.00     0.210 C 
ENDBRANCH  12  15
ENDBRANCH   8   9
BRANCH   3  17
ATOM     17  C   UNL d   1       2.518  -1.617  -0.273  0.00  0.00    -0.024 A 
ATOM     18  C   UNL d   1       2.592  -2.778  -1.061  0.00  0.00     0.012 A 
ATOM     19  C   UNL d   1       3.767  -3.533  -1.144  0.00  0.00     0.001 A 
ATOM     20  C   UNL d   1       4.921  -3.102  -0.499  0.00  0.00     0.000 A 
ATOM     21  C   UNL d   1       4.899  -1.922   0.234  0.00  0.00     0.001 A 
ATOM     22  C   UNL d   1       3.708  -1.199   0.358  0.00  0.00     0.012 A 
ENDBRANCH   3  17
BRANCH   4  23
ATOM     23  C   UNL d   1      -0.345  -2.846   0.202  0.00  0.00    -0.007 A 
ATOM     24  C   UNL d   1       0.429  -3.744   0.958  0.00  0.00     0.014 A 
ATOM     25  C   UNL d   1       0.187  -5.121   0.918  0.00  0.00     0.001 A 
ATOM     26  C   UNL d   1      -0.874  -5.623   0.171  0.00  0.00     0.000 A 
ATOM     27  C   UNL d   1      -1.705  -4.748  -0.520  0.00  0.00     0.001 A 
ATOM     28  C   UNL d   1      -1.442  -3.375  -0.505  0.00  0.00     0.014 A 
ENDBRANCH   4  23
TORSDOF 4
