REMARK  5 active torsions:
REMARK  status: ('A' for Active; 'I' for Inactive)
REMARK    1  A    between atoms: S_5  and  C_1 
REMARK    2  A    between atoms: C_2  and  S_6 
REMARK    3  A    between atoms: C_18  and  S_5 
REMARK    4  A    between atoms: S_6  and  C_17 
REMARK    5  A    between atoms: C_17  and  C_18 
ROOT
ATOM      1  C   UNL d   1       6.336   1.829   0.109  0.00  0.00     0.090 C 
ENDROOT
BRANCH   1   2
ATOM      2  S   UNL d   1       6.907   3.561   0.288  0.00  0.00    -0.129 SA
BRANCH   2   3
ATOM      3  C   UNL d   1       8.683   3.407   0.179  0.00  0.00     0.000 A 
ATOM      4  C   UNL d   1       9.387   4.442  -0.453  0.00  0.00     0.020 A 
ATOM      5  C   UNL d   1      10.784   4.435  -0.501  0.00  0.00     0.025 A 
ATOM      6  C   UNL d   1      11.488   3.390   0.089  0.00  0.00     0.034 A 
ATOM      7  C   UNL d   1      10.804   2.349   0.714  0.00  0.00     0.025 A 
ATOM      8 CL   UNL d   1      13.208   3.394   0.065  0.00  0.00    -0.084 Cl
ATOM      9  C   UNL d   1       9.405   2.359   0.761  0.00  0.00     0.020 A 
ENDBRANCH   2   3
ENDBRANCH   1   2
BRANCH   1  10
ATOM     10  C   UNL d   1       4.808   1.732  -0.000  0.00  0.00     0.090 C 
BRANCH  10  11
ATOM     11  S   UNL d   1       4.186   2.398  -1.591  0.00  0.00    -0.129 SA
BRANCH  11  12
ATOM     12  C   UNL d   1       2.414   2.359  -1.371  0.00  0.00     0.000 A 
ATOM     13  C   UNL d   1       1.665   3.392  -1.954  0.00  0.00     0.020 A 
ATOM     14  C   UNL d   1       0.268   3.382  -1.898  0.00  0.00     0.025 A 
ATOM     15  C   UNL d   1      -0.390   2.334  -1.262  0.00  0.00     0.034 A 
ATOM     16  C   UNL d   1       0.339   1.303  -0.672  0.00  0.00     0.025 A 
ATOM     17 CL   UNL d   1      -2.108   2.298  -1.224  0.00  0.00    -0.084 Cl
ATOM     18  C   UNL d   1       1.739   1.315  -0.730  0.00  0.00     0.020 A 
ENDBRANCH  11  12
ENDBRANCH  10  11
ENDBRANCH   1  10
TORSDOF 5
