REMARK  6 active torsions:
REMARK  status: ('A' for Active; 'I' for Inactive)
REMARK    1  A    between atoms: C_8  and  C_1 
REMARK    2  A    between atoms: C_15  and  N_7 
REMARK    3  A    between atoms: C_10  and  C_13 
REMARK       I    between atoms: N_16  and  C_10 
REMARK    4  A    between atoms: N_11  and  N_16 
REMARK    5  A    between atoms: C_13  and  C_15 
REMARK    6  A    between atoms: C_21  and  C_19 
ROOT
ATOM      1  C   UNL d   1       2.075   1.419   0.025  0.00  0.00     0.176 C 
ENDROOT
BRANCH   1   2
ATOM      2  C   UNL d   1       3.442   0.739  -0.007  0.00  0.00     0.127 C 
BRANCH   2   3
ATOM      3  C   UNL d   1       4.543   1.773   0.040  0.00  0.00     0.237 C 
ATOM      4  N   UNL d   1       5.733   1.335  -0.522  0.00  0.00    -0.270 N 
ATOM      5  H   UNL d   1       5.789   0.454  -1.021  0.00  0.00     0.190 HD
ATOM      6  O   UNL d   1       4.375   2.860   0.588  0.00  0.00    -0.272 OA
BRANCH   4   7
ATOM      7  N   UNL d   1       6.798   2.181  -0.529  0.00  0.00    -0.309 N 
ATOM      8  C   UNL d   1       7.880   1.764  -1.097  0.00  0.00     0.118 C 
ATOM      9  HN  UNL d   1       6.744   3.107  -0.103  1.00  0.00     0.186 HD
BRANCH   8  10
ATOM     10  C   UNL d   1       9.077   2.632  -1.155  0.00  0.00    -0.019 A 
ATOM     11  C   UNL d   1       9.019   3.940  -0.660  0.00  0.00     0.014 A 
ATOM     12  C   UNL d   1      10.149   4.758  -0.713  0.00  0.00     0.024 A 
ATOM     13  C   UNL d   1      11.332   4.265  -1.259  0.00  0.00     0.034 A 
ATOM     14  C   UNL d   1      11.394   2.962  -1.756  0.00  0.00     0.024 A 
ATOM     15 CL   UNL d   1      12.726   5.271  -1.321  0.00  0.00    -0.084 Cl
ATOM     16  C   UNL d   1      10.263   2.140  -1.707  0.00  0.00     0.014 A 
ENDBRANCH   8  10
ENDBRANCH   4   7
ENDBRANCH   2   3
ENDBRANCH   1   2
BRANCH   1  17
ATOM     17  N   UNL d   1       1.796   2.213  -1.154  0.00  0.00    -0.216 N 
ATOM     18  N   UNL d   1       2.370   1.942  -2.339  0.00  0.00    -0.269 N 
ATOM     19  C   UNL d   1       1.669   2.752  -3.145  0.00  0.00     0.146 A 
ATOM     20  HN  UNL d   1       3.130   1.299  -2.563  1.00  0.00     0.190 HD
ATOM     21  N   UNL d   1       0.720   3.479  -2.462  0.00  0.00    -0.266 N 
ATOM     22  N   UNL d   1       0.787   3.098  -1.192  0.00  0.00    -0.003 NA
ATOM     23  HN  UNL d   1       0.088   4.176  -2.855  1.00  0.00     0.186 HD
BRANCH  19  24
ATOM     24  C   UNL d   1       1.915   2.908  -4.570  0.00  0.00     0.034 A 
ATOM     25  C   UNL d   1       2.289   1.839  -5.410  0.00  0.00     0.069 A 
ATOM     26  C   UNL d   1       2.590   2.096  -6.760  0.00  0.00     0.056 A 
ATOM     27 CL   UNL d   1       2.333   0.196  -4.832  0.00  0.00    -0.082 Cl
ATOM     28 CL   UNL d   1       3.094   0.853  -7.856  0.00  0.00    -0.083 Cl
ATOM     29  C   UNL d   1       2.495   3.392  -7.277  0.00  0.00     0.026 A 
ATOM     30  C   UNL d   1       2.091   4.442  -6.460  0.00  0.00     0.003 A 
ATOM     31  C   UNL d   1       1.803   4.202  -5.117  0.00  0.00     0.017 A 
ENDBRANCH  19  24
ENDBRANCH   1  17
TORSDOF 6
