REMARK  1 active torsions:
REMARK  status: ('A' for Active; 'I' for Inactive)
REMARK    1  A    between atoms: C_8  and  C_6 
ROOT
ATOM      1  N   UNL d   1       1.229   1.380   0.004  0.00  0.00    -0.353 N 
ATOM      2  HN  UNL d   1       1.239   2.400   0.014  1.00  0.00     0.166 HD
ATOM      3  C   UNL d   1       0.070   0.692   0.022  0.00  0.00     0.060 A 
ATOM      4  N   UNL d   1       1.189  -1.433  -0.046  0.00  0.00    -0.362 N 
ATOM      5  HN  UNL d   1       1.185  -2.453  -0.074  1.00  0.00     0.165 HD
ATOM      6  C   UNL d   1       2.383   0.667  -0.029  0.00  0.00     0.058 A 
ATOM      7  C   UNL d   1       0.050  -0.719   0.002  0.00  0.00     0.059 A 
ATOM      8  C   UNL d   1      -1.135   1.379   0.085  0.00  0.00     0.039 A 
ATOM      9  C   UNL d   1      -2.372   0.718   0.168  0.00  0.00    -0.054 A 
ATOM     10  C   UNL d   1      -2.389  -0.684   0.167  0.00  0.00    -0.054 A 
ATOM     11  C   UNL d   1      -1.170  -1.376   0.060  0.00  0.00     0.039 A 
ATOM     12  C   UNL d   1       2.342  -0.721  -0.053  0.00  0.00     0.118 A 
ATOM     13  C   UNL d   1      -3.646  -1.499   0.299  0.00  0.00     0.049 C 
ATOM     14  C   UNL d   1      -3.626   1.536   0.300  0.00  0.00     0.049 C 
ENDROOT
BRANCH   6  15
ATOM     15  C   UNL d   1       3.631   1.454  -0.014  0.00  0.00    -0.006 A 
ATOM     16  C   UNL d   1       4.812   0.995  -0.624  0.00  0.00     0.039 A 
ATOM     17  C   UNL d   1       5.983   1.764  -0.618  0.00  0.00     0.056 A 
ATOM     18 CL   UNL d   1       7.373   1.106  -1.407  0.00  0.00    -0.083 Cl
ATOM     19  C   UNL d   1       5.998   3.015   0.004  0.00  0.00     0.055 A 
ATOM     20  C   UNL d   1       4.840   3.488   0.620  0.00  0.00     0.026 A 
ATOM     21 CL   UNL d   1       7.401   4.020   0.038  0.00  0.00    -0.083 Cl
ATOM     22  C   UNL d   1       3.673   2.718   0.607  0.00  0.00     0.015 A 
ENDBRANCH   6  15
TORSDOF 1
