REMARK  1 active torsions:
REMARK  status: ('A' for Active; 'I' for Inactive)
REMARK    1  A    between atoms: S_3  and  C_1 
ROOT
ATOM      1  C   UNL d   1       3.134  -0.044   0.036  0.00  0.00    -0.000 A 
ATOM      2  C   UNL d   1       0.329  -0.004   0.011  0.00  0.00     0.011 A 
ATOM      3 BR   UNL d   1      -1.561   0.018  -0.015  0.00  0.00    -0.051 Br
ATOM      4  C   UNL d   1       2.434   1.172   0.024  0.00  0.00     0.020 A 
ATOM      5  C   UNL d   1       2.406  -1.239   0.022  0.00  0.00     0.020 A 
ATOM      6  C   UNL d   1       1.007  -1.221   0.014  0.00  0.00     0.020 A 
ATOM      7  C   UNL d   1       1.036   1.194   0.015  0.00  0.00     0.020 A 
ENDROOT
BRANCH   1   8
ATOM      8  S   UNL d   1       4.919   0.030  -0.004  0.00  0.00    -0.134 SA
ATOM      9  C   UNL d   1       5.390  -1.447   0.935  0.00  0.00     0.095 C 
ENDBRANCH   1   8
TORSDOF 1
