REMARK  2 active torsions:
REMARK  status: ('A' for Active; 'I' for Inactive)
REMARK    1  A    between atoms: N_2  and  C_1 
REMARK    2  A    between atoms: C_9  and  C_3 
ROOT
ATOM      1  C   UNL d   1       2.286  -0.842  -0.010  0.00  0.00     0.115 C 
ATOM      2  C   UNL d   1       2.289   0.603  -0.403  0.00  0.00     0.218 C 
ATOM      3  C   UNL d   1       1.183  -1.532   0.315  0.00  0.00     0.049 C 
ATOM      4  O   UNL d   1       1.130   1.325   0.105  0.00  0.00    -0.334 OA
ATOM      5  C   UNL d   1      -0.041   0.611   0.159  0.00  0.00     0.080 A 
ATOM      6  C   UNL d   1      -0.071  -0.790   0.234  0.00  0.00    -0.001 A 
ATOM      7  C   UNL d   1      -1.221   1.347   0.098  0.00  0.00     0.037 A 
ATOM      8  C   UNL d   1      -1.303  -1.449   0.202  0.00  0.00     0.014 A 
ATOM      9  C   UNL d   1      -2.486  -0.712   0.096  0.00  0.00     0.001 A 
ATOM     10  C   UNL d   1      -2.445   0.683   0.054  0.00  0.00     0.003 A 
ENDROOT
BRANCH   2  11
ATOM     11  C   UNL d   1       2.373   0.835  -1.912  0.00  0.00    -0.023 A 
ATOM     12  C   UNL d   1       1.387   0.353  -2.791  0.00  0.00     0.011 A 
ATOM     13  C   UNL d   1       1.457   0.605  -4.162  0.00  0.00     0.007 A 
ATOM     14  C   UNL d   1       2.517   1.337  -4.693  0.00  0.00    -0.062 A 
ATOM     15  C   UNL d   1       3.513   1.810  -3.831  0.00  0.00     0.007 A 
ATOM     16  C   UNL d   1       2.561   1.613  -6.165  0.00  0.00     0.048 C 
ATOM     17  C   UNL d   1       3.443   1.562  -2.457  0.00  0.00     0.011 A 
ENDBRANCH   2  11
BRANCH   1  18
ATOM     18  N   UNL d   1       3.576  -1.498   0.060  0.00  0.00    -0.117 N 
ATOM     19  O   UNL d   1       4.582  -0.805  -0.133  0.00  0.00    -0.532 OA
ATOM     20  O   UNL d   1       3.603  -2.708   0.323  0.00  0.00    -0.532 OA
ENDBRANCH   1  18
TORSDOF 2
