REMARK  6 active torsions:
REMARK  status: ('A' for Active; 'I' for Inactive)
REMARK    1  A    between atoms: N_6  and  C_1 
REMARK    2  A    between atoms: N_7  and  C_2 
REMARK    3  A    between atoms: S_8  and  C_3 
REMARK    4  A    between atoms: S_9  and  C_4 
REMARK    5  A    between atoms: C_10  and  S_8 
REMARK    6  A    between atoms: C_11  and  S_9 
ROOT
ATOM      1  C   UNL d   1       1.569   0.672   0.071  0.00  0.00     0.161 C 
ATOM      2  C   UNL d   1       1.558  -0.755  -0.128  0.00  0.00     0.161 C 
ATOM      3  C   UNL d   1       0.295   1.212   0.071  0.00  0.00     0.083 C 
ATOM      4  C   UNL d   1       0.278  -1.283  -0.093  0.00  0.00     0.083 C 
ATOM      5  S   UNL d   1      -0.882  -0.029   0.006  0.00  0.00    -0.070 SA
ENDROOT
BRANCH   3   6
ATOM      6  S   UNL d   1      -0.224   2.898   0.018  0.00  0.00    -0.079 SA
BRANCH   6   7
ATOM      7  C   UNL d   1      -0.427   3.268   1.758  0.00  0.00     0.023 A 
ATOM      8  C   UNL d   1      -1.632   3.110   2.466  0.00  0.00     0.028 A 
ATOM      9 BR   UNL d   1      -3.204   2.363   1.699  0.00  0.00    -0.050 Br
ATOM     10  C   UNL d   1      -1.742   3.556   3.791  0.00  0.00     0.020 A 
ATOM     11  C   UNL d   1      -0.665   4.183   4.415  0.00  0.00     0.001 A 
ATOM     12  C   UNL d   1       0.528   4.358   3.721  0.00  0.00     0.001 A 
ATOM     13  C   UNL d   1       0.646   3.904   2.404  0.00  0.00     0.020 A 
ENDBRANCH   6   7
ENDBRANCH   3   6
BRANCH   1  14
ATOM     14  N   UNL d   1       2.773   1.429   0.277  0.00  0.00    -0.111 N 
ATOM     15  O   UNL d   1       3.596   0.927   1.051  0.00  0.00    -0.532 OA
ATOM     16  O   UNL d   1       2.880   2.518  -0.293  0.00  0.00    -0.532 OA
ENDBRANCH   1  14
BRANCH   2  17
ATOM     17  N   UNL d   1       2.742  -1.529  -0.368  0.00  0.00    -0.111 N 
ATOM     18  O   UNL d   1       3.515  -1.071  -1.215  0.00  0.00    -0.532 OA
ATOM     19  O   UNL d   1       2.880  -2.588   0.251  0.00  0.00    -0.532 OA
ENDBRANCH   2  17
BRANCH   4  20
ATOM     20  S   UNL d   1      -0.251  -2.964  -0.029  0.00  0.00    -0.079 SA
BRANCH  20  21
ATOM     21  C   UNL d   1      -0.496  -3.329  -1.764  0.00  0.00     0.023 A 
ATOM     22  C   UNL d   1      -1.715  -3.159  -2.445  0.00  0.00     0.028 A 
ATOM     23 BR   UNL d   1      -3.260  -2.394  -1.643  0.00  0.00    -0.050 Br
ATOM     24  C   UNL d   1      -1.859  -3.604  -3.767  0.00  0.00     0.020 A 
ATOM     25  C   UNL d   1      -0.804  -4.244  -4.414  0.00  0.00     0.001 A 
ATOM     26  C   UNL d   1       0.403  -4.430  -3.748  0.00  0.00     0.001 A 
ATOM     27  C   UNL d   1       0.556  -3.976  -2.434  0.00  0.00     0.020 A 
ENDBRANCH  20  21
ENDBRANCH   4  20
TORSDOF 6
