REMARK  6 active torsions:
REMARK  status: ('A' for Active; 'I' for Inactive)
REMARK    1  A    between atoms: C_13  and  N_1 
REMARK    2  A    between atoms: S_11  and  C_2 
REMARK    3  A    between atoms: C_7  and  C_10 
REMARK    4  A    between atoms: C_10  and  C_15 
REMARK    5  A    between atoms: C_15  and  S_11 
REMARK    6  A    between atoms: N_17  and  C_16 
ROOT
ATOM      1  N   UNL d   1      -0.040  -1.335   0.069  0.00  0.00    -0.219 N 
ATOM      2  C   UNL d   1       1.171  -0.648   0.160  0.00  0.00     0.177 A 
ATOM      3  N   UNL d   1       0.932   0.645   0.216  0.00  0.00    -0.264 N 
ATOM      4  HN  UNL d   1       1.621   1.391   0.308  1.00  0.00     0.186 HD
ATOM      5  N   UNL d   1      -0.421   0.788   0.129  0.00  0.00    -0.006 NA
ATOM      6  N   UNL d   1      -1.018  -0.386   0.011  0.00  0.00     0.001 NA
ENDROOT
BRANCH   2   7
ATOM      7  S   UNL d   1       2.759  -1.329   0.092  0.00  0.00    -0.083 SA
BRANCH   7   8
ATOM      8  C   UNL d   1       3.806   0.152   0.198  0.00  0.00     0.168 C 
BRANCH   8   9
ATOM      9  C   UNL d   1       5.289  -0.217   0.250  0.00  0.00     0.192 C 
ATOM     10  O   UNL d   1       5.712  -1.345  -0.009  0.00  0.00    -0.289 OA
BRANCH   9  11
ATOM     11  C   UNL d   1       6.178   0.851   0.653  0.00  0.00     0.123 A 
ATOM     12  O   UNL d   1       5.718   2.139   0.679  0.00  0.00    -0.306 OA
ATOM     13  C   UNL d   1       6.726   2.916   1.163  0.00  0.00     0.086 A 
ATOM     14  C   UNL d   1       6.656   4.290   1.375  0.00  0.00     0.038 A 
ATOM     15  C   UNL d   1       7.842   2.138   1.447  0.00  0.00     0.001 A 
ATOM     16  C   UNL d   1       7.782   4.889   1.948  0.00  0.00     0.003 A 
ATOM     17  C   UNL d   1       8.917   4.138   2.268  0.00  0.00     0.001 A 
ATOM     18  C   UNL d   1       8.969   2.760   2.011  0.00  0.00     0.014 A 
ATOM     19  C   UNL d   1       7.496   0.816   1.069  0.00  0.00     0.055 A 
ENDBRANCH   9  11
ENDBRANCH   8   9
ENDBRANCH   7   8
ENDBRANCH   2   7
BRANCH   1  20
ATOM     20  C   UNL d   1      -0.388  -2.718   0.033  0.00  0.00     0.057 A 
ATOM     21  C   UNL d   1       0.517  -3.738   0.314  0.00  0.00     0.033 A 
ATOM     22  C   UNL d   1       0.118  -5.083   0.256  0.00  0.00     0.031 A 
ATOM     23  C   UNL d   1      -1.187  -5.471  -0.078  0.00  0.00     0.029 A 
ATOM     24  C   UNL d   1      -2.093  -4.434  -0.327  0.00  0.00     0.031 A 
ATOM     25  C   UNL d   1      -1.708  -3.082  -0.274  0.00  0.00     0.033 A 
BRANCH  23  26
ATOM     26  N   UNL d   1      -1.544  -6.812  -0.100  0.00  0.00    -0.390 N 
ATOM     27  C   UNL d   1      -0.617  -7.790  -0.666  0.00  0.00     0.149 C 
ATOM     28  C   UNL d   1      -2.941  -7.223  -0.051  0.00  0.00     0.149 C 
ENDBRANCH  23  26
ENDBRANCH   1  20
TORSDOF 6
