REMARK  0 active torsions:
REMARK  status: ('A' for Active; 'I' for Inactive)
ROOT
ATOM      1  C   UNL d   1      -1.232  -0.712  -0.028  0.00  0.00     0.015 A 
ATOM      2  C   UNL d   1       0.049  -1.477  -0.065  0.00  0.00     0.192 A 
ATOM      3  C   UNL d   1      -1.181   0.636   0.015  0.00  0.00     0.020 A 
ATOM      4  N   UNL d   1       0.008   1.334   0.035  0.00  0.00    -0.358 N 
ATOM      5  C   UNL d   1       1.315  -0.709  -0.033  0.00  0.00     0.041 A 
ATOM      6  C   UNL d   1       1.250   0.691   0.019  0.00  0.00     0.046 A 
ATOM      7  O   UNL d   1       0.057  -2.704  -0.122  0.00  0.00    -0.287 OA
ATOM      8  C   UNL d   1      -2.502  -1.515  -0.029  0.00  0.00     0.044 C 
ATOM      9  C   UNL d   1      -2.453   1.458   0.032  0.00  0.00     0.057 C 
ATOM     10  C   UNL d   1       2.544  -1.377  -0.054  0.00  0.00     0.018 A 
ATOM     11  C   UNL d   1       2.444   1.417   0.045  0.00  0.00     0.030 A 
ATOM     12  C   UNL d   1      -3.725  -0.685   0.357  0.00  0.00     0.005 C 
ATOM     13  C   UNL d   1      -3.704   0.662  -0.353  0.00  0.00     0.006 C 
ATOM     14  C   UNL d   1       3.727  -0.640  -0.026  0.00  0.00     0.001 A 
ATOM     15  C   UNL d   1       3.676   0.753   0.023  0.00  0.00     0.002 A 
ATOM     16  H   UNL d   1      -0.021   2.345   0.085  0.00  0.00     0.166 HD
ENDROOT
TORSDOF 0
