REMARK  2 active torsions:
REMARK  status: ('A' for Active; 'I' for Inactive)
REMARK    1  A    between atoms: C_14  and  C_3 
REMARK    2  A    between atoms: C_10  and  C_4 
ROOT
ATOM      1  C   UNL d   1       4.514   2.343  -1.107  0.00  0.00    -0.042 A 
ATOM      2  C   UNL d   1       4.686   3.379  -0.163  0.00  0.00    -0.043 A 
ATOM      3  C   UNL d   1       3.380   1.503  -0.992  0.00  0.00     0.022 A 
ATOM      4  C   UNL d   1       2.447   1.638   0.043  0.00  0.00    -0.008 A 
ATOM      5  C   UNL d   1       5.479   2.131  -2.280  0.00  0.00    -0.020 C 
ATOM      6  C   UNL d   1       5.827   4.400  -0.253  0.00  0.00    -0.020 C 
ATOM      7  C   UNL d   1       3.776   3.461   0.913  0.00  0.00     0.009 A 
ATOM      8  C   UNL d   1       2.676   2.607   1.016  0.00  0.00     0.014 A 
ATOM      9  C   UNL d   1       6.797   2.915  -2.084  0.00  0.00     0.015 C 
ATOM     10  C   UNL d   1       6.559   4.339  -1.613  0.00  0.00     0.015 C 
ATOM     11  C   UNL d   1       4.777   2.581  -3.580  0.00  0.00     0.020 C 
ATOM     12  C   UNL d   1       5.880   0.644  -2.429  0.00  0.00     0.020 C 
ATOM     13  C   UNL d   1       6.826   4.140   0.896  0.00  0.00     0.020 C 
ATOM     14  C   UNL d   1       5.289   5.845  -0.118  0.00  0.00     0.020 C 
ENDROOT
BRANCH   4  15
ATOM     15  C   UNL d   1       1.269   0.780   0.070  0.00  0.00     0.050 A 
ATOM     16  N   UNL d   1       1.276  -0.483  -0.505  0.00  0.00    -0.349 N 
ATOM     17  C   UNL d   1       0.103  -1.069  -0.356  0.00  0.00     0.084 A 
ATOM     18  HN  UNL d   1       2.077  -0.900  -0.979  1.00  0.00     0.166 HD
ATOM     19  S   UNL d   1      -1.090  -0.096   0.422  0.00  0.00    -0.081 SA
ATOM     20  C   UNL d   1       0.054   1.161   0.605  0.00  0.00     0.082 A 
BRANCH  17  21
ATOM     21  C   UNL d   1      -0.216  -2.421  -0.851  0.00  0.00    -0.002 A 
ATOM     22  C   UNL d   1      -1.213  -3.224  -0.273  0.00  0.00     0.016 A 
ATOM     23  C   UNL d   1      -1.488  -4.503  -0.773  0.00  0.00     0.024 A 
ATOM     24  C   UNL d   1      -0.763  -4.992  -1.855  0.00  0.00     0.034 A 
ATOM     25  C   UNL d   1       0.238  -4.221  -2.437  0.00  0.00     0.024 A 
ATOM     26 CL   UNL d   1      -1.107  -6.561  -2.473  0.00  0.00    -0.084 Cl
ATOM     27  C   UNL d   1       0.512  -2.945  -1.932  0.00  0.00     0.016 A 
ENDBRANCH  17  21
ENDBRANCH   4  15
TORSDOF 2
