REMARK  3 active torsions:
REMARK  status: ('A' for Active; 'I' for Inactive)
REMARK    1  A    between atoms: N_2  and  C_1 
REMARK    2  A    between atoms: N_5  and  C_11 
REMARK    3  A    between atoms: C_12  and  N_5 
ROOT
ATOM      1  N   UNL d   1       0.792  -3.564   0.064  0.00  0.00    -0.363 N 
ATOM      2  HN  UNL d   1       1.778  -3.310   0.120  1.00  0.00     0.165 HD
ENDROOT
BRANCH   1   3
ATOM      3  C   UNL d   1      -0.121  -2.651  -0.012  0.00  0.00     0.107 C 
ATOM      4  C   UNL d   1       0.246  -1.257  -0.019  0.00  0.00     0.022 A 
ATOM      5  S   UNL d   1      -0.972  -0.067   0.157  0.00  0.00    -0.065 SA
ATOM      6  C   UNL d   1       1.500  -0.689  -0.145  0.00  0.00     0.023 A 
ATOM      7  C   UNL d   1       0.167   1.194   0.082  0.00  0.00     0.144 A 
ATOM      8  C   UNL d   1       1.456   0.737  -0.095  0.00  0.00     0.045 A 
BRANCH   7   9
ATOM      9  N   UNL d   1      -0.249   2.567   0.194  0.00  0.00    -0.108 N 
ATOM     10  O   UNL d   1       0.637   3.424   0.076  0.00  0.00    -0.531 OA
ATOM     11  O   UNL d   1      -1.448   2.802   0.399  0.00  0.00    -0.531 OA
ENDBRANCH   7   9
ENDBRANCH   1   3
BRANCH   1  12
ATOM     12  C   UNL d   1       0.395  -4.918   0.069  0.00  0.00     0.049 A 
ATOM     13  C   UNL d   1       1.036  -5.859  -0.754  0.00  0.00     0.037 A 
ATOM     14 BR   UNL d   1       2.425  -5.343  -1.947  0.00  0.00    -0.049 Br
ATOM     15  C   UNL d   1       0.677  -7.212  -0.719  0.00  0.00     0.021 A 
ATOM     16  C   UNL d   1      -0.330  -7.644   0.142  0.00  0.00     0.002 A 
ATOM     17  C   UNL d   1      -0.968  -6.729   0.975  0.00  0.00     0.002 A 
ATOM     18  C   UNL d   1      -0.599  -5.380   0.947  0.00  0.00     0.031 A 
ENDBRANCH   1  12
TORSDOF 3
