REMARK  1 active torsions:
REMARK  status: ('A' for Active; 'I' for Inactive)
REMARK    1  A    between atoms: C_6  and  N_1 
ROOT
ATOM      1  N   UNL d   1       0.335  -1.019  -0.019  0.00  0.00    -0.266 N 
ATOM      2  C   UNL d   1      -0.725  -0.126  -0.050  0.00  0.00     0.148 A 
ATOM      3  C   UNL d   1       1.612  -0.469   0.026  0.00  0.00     0.239 A 
ATOM      4  S   UNL d   1      -0.129   1.526  -0.161  0.00  0.00    -0.090 SA
ATOM      5  S   UNL d   1      -2.368  -0.407   0.101  0.00  0.00    -0.052 SA
ATOM      6  C   UNL d   1       1.591   1.033  -0.051  0.00  0.00     0.185 A 
ATOM      7  O   UNL d   1       2.677  -1.080   0.088  0.00  0.00    -0.272 OA
ENDROOT
BRANCH   1   8
ATOM      8  C   UNL d   1       0.180  -2.438  -0.018  0.00  0.00     0.043 A 
ATOM      9  C   UNL d   1       0.877  -3.229   0.910  0.00  0.00     0.030 A 
ATOM     10  C   UNL d   1       0.723  -4.617   0.920  0.00  0.00     0.002 A 
ATOM     11  C   UNL d   1      -0.104  -5.236  -0.015  0.00  0.00     0.000 A 
ATOM     12  C   UNL d   1      -0.778  -4.467  -0.959  0.00  0.00     0.002 A 
ATOM     13  C   UNL d   1      -0.640  -3.076  -0.958  0.00  0.00     0.030 A 
ENDBRANCH   1   8
TORSDOF 1
