REMARK  4 active torsions:
REMARK  status: ('A' for Active; 'I' for Inactive)
REMARK    1  A    between atoms: N_2  and  C_1 
REMARK    2  A    between atoms: C_6  and  C_3 
REMARK    3  A    between atoms: C_7  and  C_5 
REMARK    4  A    between atoms: C_9  and  C_6 
ROOT
ATOM      1  C   UNL d   1       0.788  -3.737  -0.004  0.00  0.00     0.098 C 
ATOM      2  C   UNL d   1      -0.247  -2.869  -0.026  0.00  0.00     0.045 C 
ATOM      3  C   UNL d   1       0.626  -5.149   0.052  0.00  0.00     0.103 C 
ATOM      4  N   UNL d   1       0.469  -6.298   0.102  0.00  0.00    -0.191 NA
ENDROOT
BRANCH   1   5
ATOM      5  C   UNL d   1       2.188  -3.189   0.058  0.00  0.00     0.226 C 
ATOM      6  O   UNL d   1       2.383  -2.070   0.535  0.00  0.00    -0.284 OA
BRANCH   5   7
ATOM      7  C   UNL d   1       3.271  -4.033  -0.417  0.00  0.00     0.126 A 
ATOM      8  O   UNL d   1       3.014  -4.968  -1.385  0.00  0.00    -0.319 OA
ATOM      9  C   UNL d   1       4.166  -5.644  -1.617  0.00  0.00     0.142 A 
ATOM     10  C   UNL d   1       5.179  -5.143  -0.835  0.00  0.00     0.027 A 
ATOM     11  C   UNL d   1       4.611  -4.086  -0.081  0.00  0.00     0.043 A 
ENDBRANCH   5   7
ENDBRANCH   1   5
BRANCH   2  12
ATOM     12  C   UNL d   1      -1.620  -3.277  -0.081  0.00  0.00     0.009 A 
ATOM     13  S   UNL d   1      -2.820  -2.335   0.736  0.00  0.00    -0.066 SA
ATOM     14  C   UNL d   1      -4.060  -3.421   0.327  0.00  0.00     0.144 A 
ATOM     15  C   UNL d   1      -3.617  -4.464  -0.452  0.00  0.00     0.045 A 
ATOM     16  C   UNL d   1      -2.222  -4.351  -0.722  0.00  0.00     0.022 A 
BRANCH  14  17
ATOM     17  N   UNL d   1      -5.412  -3.212   0.776  0.00  0.00    -0.108 N 
ATOM     18  O   UNL d   1      -6.236  -4.080   0.455  0.00  0.00    -0.531 OA
ATOM     19  O   UNL d   1      -5.662  -2.198   1.438  0.00  0.00    -0.531 OA
ENDBRANCH  14  17
ENDBRANCH   2  12
TORSDOF 4
