REMARK  3 active torsions:
REMARK  status: ('A' for Active; 'I' for Inactive)
REMARK    1  A    between atoms: C_5  and  C_1 
REMARK    2  A    between atoms: O_9  and  C_2 
REMARK    3  A    between atoms: O_11  and  C_5 
ROOT
ATOM      1  C   UNL d   1      -0.018  -1.539   0.129  0.00  0.00     0.088 A 
ATOM      2  C   UNL d   1       1.153  -0.811   0.236  0.00  0.00     0.157 A 
ATOM      3  N   UNL d   1       1.252   0.531   0.185  0.00  0.00    -0.340 N 
ATOM      4  HN  UNL d   1       2.151   1.005   0.270  1.00  0.00     0.167 HD
ATOM      5  C   UNL d   1      -1.195  -0.805  -0.036  0.00  0.00     0.024 A 
ATOM      6  C   UNL d   1       0.097   1.220   0.015  0.00  0.00     0.007 A 
ATOM      7  C   UNL d   1      -1.139   0.588  -0.102  0.00  0.00     0.026 A 
ATOM      8  C   UNL d   1       0.209   2.710  -0.109  0.00  0.00     0.068 C 
ENDROOT
BRANCH   1   9
ATOM      9  C   UNL d   1      -0.088  -3.018   0.168  0.00  0.00     0.180 C 
ATOM     10  O   UNL d   1      -1.156  -3.613   0.170  0.00  0.00    -0.646 OA
BRANCH   9  11
ATOM     11  O   UNL d   1       1.096  -3.663   0.177  0.00  0.00    -0.773 OA
ATOM     12  H   UNL d   1       1.878  -3.067   0.203  0.00  0.00     0.167 HD
ENDBRANCH   9  11
ENDBRANCH   1   9
BRANCH   2  13
ATOM     13  O   UNL d   1       2.364  -1.409   0.401  0.00  0.00    -0.345 OA
ATOM     14  H   UNL d   1       2.925  -0.610   0.470  0.00  0.00     0.219 HD
ENDBRANCH   2  13
TORSDOF 3
