REMARK  5 active torsions:
REMARK  status: ('A' for Active; 'I' for Inactive)
REMARK    1  A    between atoms: C_3  and  C_2 
REMARK    2  A    between atoms: S_18  and  C_6 
REMARK    3  A    between atoms: C_11  and  C_9 
REMARK    4  A    between atoms: C_10  and  C_19 
REMARK    5  A    between atoms: C_19  and  S_18 
ROOT
ATOM      1  C   UNL d   1       8.716   5.790  -2.313  0.00  0.00     0.091 C 
ATOM      2  C   UNL d   1       9.998   5.867  -2.734  0.00  0.00     0.041 C 
ATOM      3  C   UNL d   1       8.032   6.982  -1.932  0.00  0.00     0.103 C 
ATOM      4  N   UNL d   1       7.448   7.942  -1.631  0.00  0.00    -0.191 NA
ENDROOT
BRANCH   1   5
ATOM      5  C   UNL d   1       8.125   4.489  -2.140  0.00  0.00     0.145 C 
ATOM      6  N   UNL d   1       6.763   4.258  -1.982  0.00  0.00    -0.315 N 
ATOM      7  C   UNL d   1       6.645   2.953  -1.564  0.00  0.00     0.162 C 
ATOM      8  C   UNL d   1       5.661   5.155  -2.239  0.00  0.00     0.160 C 
ATOM      9  N   UNL d   1       7.813   2.366  -1.644  0.00  0.00    -0.278 N 
ATOM     10  N   UNL d   1       8.733   3.315  -2.029  0.00  0.00    -0.282 N 
ATOM     11  HN  UNL d   1       8.006   1.382  -1.456  1.00  0.00     0.189 HD
ATOM     12  HN  UNL d   1       9.724   3.144  -2.201  1.00  0.00     0.188 HD
BRANCH   7  13
ATOM     13  S   UNL d   1       5.156   2.254  -0.998  0.00  0.00    -0.088 SA
BRANCH  13  14
ATOM     14  C   UNL d   1       5.712   0.650  -0.346  0.00  0.00     0.122 C 
BRANCH  14  15
ATOM     15  C   UNL d   1       4.578  -0.286   0.093  0.00  0.00    -0.035 C 
ATOM     16  C   UNL d   1       3.859  -1.047  -0.873  0.00  0.00    -0.048 C 
ATOM     17  C   UNL d   1       2.954  -2.065  -0.457  0.00  0.00    -0.049 C 
ATOM     18  C   UNL d   1       3.997  -0.748  -2.352  0.00  0.00     0.049 C 
ATOM     19  C   UNL d   1       2.163  -2.856  -1.480  0.00  0.00     0.049 C 
ATOM     20  C   UNL d   1       2.848  -2.400   0.916  0.00  0.00    -0.049 C 
ATOM     21  C   UNL d   1       3.485  -1.585   1.886  0.00  0.00    -0.049 C 
ATOM     22  C   UNL d   1       2.140  -3.680   1.323  0.00  0.00     0.049 C 
ATOM     23  C   UNL d   1       4.295  -0.488   1.475  0.00  0.00    -0.048 C 
ATOM     24  C   UNL d   1       3.321  -1.932   3.353  0.00  0.00     0.049 C 
ATOM     25  C   UNL d   1       4.867   0.432   2.531  0.00  0.00     0.049 C 
ENDBRANCH  14  15
ENDBRANCH  13  14
ENDBRANCH   7  13
ENDBRANCH   1   5
BRANCH   2  26
ATOM     26  C   UNL d   1      10.799   7.119  -2.810  0.00  0.00     0.009 A 
ATOM     27  C   UNL d   1      11.399   7.667  -1.656  0.00  0.00     0.046 A 
ATOM     28 CL   UNL d   1      11.262   6.900  -0.108  0.00  0.00    -0.083 Cl
ATOM     29  C   UNL d   1      12.137   8.857  -1.712  0.00  0.00     0.025 A 
ATOM     30  C   UNL d   1      12.299   9.526  -2.922  0.00  0.00     0.003 A 
ATOM     31  C   UNL d   1      11.721   9.003  -4.077  0.00  0.00     0.025 A 
ATOM     32  C   UNL d   1      10.976   7.812  -4.023  0.00  0.00     0.046 A 
ATOM     33 CL   UNL d   1      10.285   7.243  -5.503  0.00  0.00    -0.083 Cl
ENDBRANCH   2  26
TORSDOF 5
