REMARK  5 active torsions:
REMARK  status: ('A' for Active; 'I' for Inactive)
REMARK    1  A    between atoms: C_2  and  S_1 
REMARK    2  A    between atoms: C_5  and  S_1 
REMARK    3  A    between atoms: C_3  and  C_14 
REMARK    4  A    between atoms: N_15  and  C_7 
REMARK    5  A    between atoms: N_12  and  N_15 
ROOT
ATOM      1  C   UNL d   1       0.355  -0.428   1.833  0.00  0.00     0.156 C 
ATOM      2  C   UNL d   1      -0.467   0.517   2.480  0.00  0.00     0.113 C 
ATOM      3  N   UNL d   1      -1.135   1.233   3.115  0.00  0.00    -0.191 NA
ATOM      4  C   UNL d   1       0.597  -1.631   2.383  0.00  0.00     0.142 C 
ENDROOT
BRANCH   1   5
ATOM      5  S   UNL d   1       0.938  -0.083   0.231  0.00  0.00     0.194 S 
ATOM      6  O   UNL d   1       0.066   0.911  -0.369  0.00  0.00    -0.221 OA
ATOM      7  O   UNL d   1       1.151  -1.335  -0.478  0.00  0.00    -0.221 OA
BRANCH   5   8
ATOM      8  C   UNL d   1       2.576   0.696   0.442  0.00  0.00     0.058 C 
ATOM      9  C   UNL d   1       3.551  -0.252   1.151  0.00  0.00     0.031 C 
ATOM     10  C   UNL d   1       3.156   1.002  -0.957  0.00  0.00     0.031 C 
ATOM     11  C   UNL d   1       2.462   1.994   1.252  0.00  0.00     0.031 C 
ENDBRANCH   5   8
ENDBRANCH   1   5
BRANCH   4  12
ATOM     12  N   UNL d   1       0.143  -2.138   3.581  0.00  0.00    -0.310 N 
ATOM     13  H   UNL d   1      -0.396  -1.518   4.194  0.00  0.00     0.186 HD
BRANCH  12  14
ATOM     14  N   UNL d   1       0.520  -3.357   4.013  0.00  0.00    -0.311 N 
ATOM     15  C   UNL d   1      -0.272  -3.932   4.861  0.00  0.00     0.122 C 
ATOM     16  HN  UNL d   1       1.379  -3.802   3.690  1.00  0.00     0.186 HD
BRANCH  15  17
ATOM     17  C   UNL d   1       0.062  -5.257   5.430  0.00  0.00     0.024 A 
ATOM     18  C   UNL d   1       1.393  -5.628   5.686  0.00  0.00     0.047 A 
ATOM     19 CL   UNL d   1       2.739  -4.541   5.573  0.00  0.00    -0.083 Cl
ATOM     20  C   UNL d   1       1.694  -6.921   6.130  0.00  0.00     0.025 A 
ATOM     21  C   UNL d   1       0.680  -7.849   6.343  0.00  0.00     0.003 A 
ATOM     22  C   UNL d   1      -0.647  -7.478   6.138  0.00  0.00     0.025 A 
ATOM     23  C   UNL d   1      -0.958  -6.186   5.690  0.00  0.00     0.047 A 
ATOM     24 CL   UNL d   1      -2.637  -5.828   5.460  0.00  0.00    -0.083 Cl
ENDBRANCH  15  17
ENDBRANCH  12  14
ENDBRANCH   4  12
TORSDOF 5
