REMARK  1 active torsions:
REMARK  status: ('A' for Active; 'I' for Inactive)
REMARK    1  A    between atoms: N_4  and  C_1 
ROOT
ATOM      1  C   UNL d   1       0.004   1.445   0.041  0.00  0.00     0.085 A 
ATOM      2  C   UNL d   1      -1.219   0.724  -0.021  0.00  0.00     0.084 A 
ATOM      3  C   UNL d   1       1.226   0.723   0.066  0.00  0.00     0.084 A 
ATOM      4  C   UNL d   1      -1.202  -0.685  -0.021  0.00  0.00     0.059 A 
ATOM      5  C   UNL d   1       1.208  -0.686   0.012  0.00  0.00     0.059 A 
ATOM      6  C   UNL d   1       0.002  -1.382  -0.017  0.00  0.00     0.051 A 
ATOM      7 CL   UNL d   1       2.768   1.495   0.318  0.00  0.00    -0.080 Cl
ATOM      8 CL   UNL d   1      -2.758   1.510  -0.259  0.00  0.00    -0.080 Cl
ATOM      9 CL   UNL d   1      -2.646  -1.644  -0.042  0.00  0.00    -0.082 Cl
ATOM     10 CL   UNL d   1       2.650  -1.647  -0.003  0.00  0.00    -0.082 Cl
ENDROOT
BRANCH   1  11
ATOM     11  N   UNL d   1       0.001   2.876   0.087  0.00  0.00    -0.330 N 
ATOM     12  C   UNL d   1      -0.848   3.674   0.833  0.00  0.00     0.097 A 
ATOM     13  C   UNL d   1      -0.544   5.002   0.615  0.00  0.00     0.019 A 
ATOM     14  C   UNL d   1       0.549   5.033  -0.271  0.00  0.00     0.019 A 
ATOM     15  C   UNL d   1       0.849   3.731  -0.593  0.00  0.00     0.097 A 
ENDBRANCH   1  11
TORSDOF 1
