REMARK  0 active torsions:
REMARK  status: ('A' for Active; 'I' for Inactive)
ROOT
ATOM      1  C   UNL d   1       1.298  -0.819  -0.109  0.00  0.00     0.074 A 
ATOM      2  C   UNL d   1       1.191   0.529  -0.127  0.00  0.00     0.031 A 
ATOM      3  S   UNL d   1      -0.055  -1.904  -0.085  0.00  0.00    -0.083 SA
ATOM      4  N   UNL d   1      -0.012   1.218  -0.150  0.00  0.00    -0.357 N 
ATOM      5  C   UNL d   1       2.650  -1.483  -0.104  0.00  0.00     0.169 C 
ATOM      6  C   UNL d   1      -1.435  -0.779  -0.037  0.00  0.00     0.032 A 
ATOM      7  C   UNL d   1      -1.280   0.616  -0.072  0.00  0.00     0.049 A 
ATOM      8  C   UNL d   1       2.428   1.420  -0.096  0.00  0.00     0.067 C 
ATOM      9  C   UNL d   1       3.683   0.733   0.480  0.00  0.00    -0.036 C 
ATOM     10  C   UNL d   1       3.867  -0.602  -0.247  0.00  0.00     0.093 C 
ATOM     11  O   UNL d   1       2.788  -2.704  -0.029  0.00  0.00    -0.292 OA
ATOM     12  C   UNL d   1       3.541   0.518   2.002  0.00  0.00     0.015 C 
ATOM     13  C   UNL d   1       4.925   1.607   0.238  0.00  0.00     0.015 C 
ATOM     14  C   UNL d   1      -2.717  -1.342   0.029  0.00  0.00     0.021 A 
ATOM     15  C   UNL d   1      -2.428   1.423  -0.063  0.00  0.00     0.031 A 
ATOM     16  C   UNL d   1      -3.704   0.854  -0.002  0.00  0.00     0.002 A 
ATOM     17  C   UNL d   1      -3.848  -0.528   0.048  0.00  0.00     0.002 A 
ATOM     18  H   UNL d   1       0.018   2.227  -0.087  0.00  0.00     0.166 HD
ENDROOT
TORSDOF 0
