REMARK  8 active torsions:
REMARK  status: ('A' for Active; 'I' for Inactive)
REMARK    1  A    between atoms: O_5  and  C_1 
REMARK    2  A    between atoms: C_6  and  C_1 
REMARK    3  A    between atoms: C_12  and  C_2 
REMARK    4  A    between atoms: N_13  and  C_2 
REMARK    5  A    between atoms: N_3  and  O_5 
REMARK    6  A    between atoms: C_7  and  C_8 
REMARK    7  A    between atoms: O_14  and  C_12 
REMARK    8  A    between atoms: C_15  and  O_14 
ROOT
ATOM      1  C   UNL d   1      -1.734   2.006  -1.256  0.00  0.00     0.120 C 
ATOM      2  N   UNL d   1      -2.169   1.342  -2.283  0.00  0.00    -0.244 N 
ATOM      3  HN  UNL d   1      -2.018   1.634  -3.249  1.00  0.00     0.196 HD
ENDROOT
BRANCH   1   4
ATOM      4  C   UNL d   1      -0.950   3.301  -1.543  0.00  0.00     0.253 C 
BRANCH   4   5
ATOM      5  O   UNL d   1       0.444   3.038  -1.426  0.00  0.00    -0.344 OA
BRANCH   5   6
ATOM      6  C   UNL d   1       1.299   4.072  -1.701  0.00  0.00     0.069 A 
ATOM      7  C   UNL d   1       2.601   3.897  -1.242  0.00  0.00     0.037 A 
ATOM      8  C   UNL d   1       3.580   4.878  -1.456  0.00  0.00     0.011 A 
ATOM      9  C   UNL d   1       3.291   6.064  -2.154  0.00  0.00    -0.050 A 
ATOM     10  C   UNL d   1       1.977   6.213  -2.626  0.00  0.00     0.011 A 
ATOM     11  C   UNL d   1       0.992   5.234  -2.405  0.00  0.00     0.037 A 
BRANCH   9  12
ATOM     12  C   UNL d   1       4.386   7.124  -2.371  0.00  0.00    -0.024 C 
ATOM     13  C   UNL d   1       3.921   8.345  -3.198  0.00  0.00     0.019 C 
ATOM     14  C   UNL d   1       4.870   7.658  -1.004  0.00  0.00     0.019 C 
ATOM     15  C   UNL d   1       5.590   6.508  -3.120  0.00  0.00     0.019 C 
ENDBRANCH   9  12
ENDBRANCH   5   6
ENDBRANCH   4   5
ENDBRANCH   1   4
BRANCH   1  16
ATOM     16  N   UNL d   1      -1.931   1.639   0.055  0.00  0.00    -0.386 N 
ATOM     17  H   UNL d   1      -2.656   0.950   0.210  0.00  0.00     0.157 HD
ATOM     18  H   UNL d   1      -1.843   2.349   0.772  0.00  0.00     0.157 HD
ENDBRANCH   1  16
BRANCH   2  19
ATOM     19  O   UNL d   1      -2.873   0.173  -1.920  0.00  0.00    -0.197 OA
BRANCH  19  20
ATOM     20  C   UNL d   1      -3.200  -0.536  -3.054  0.00  0.00     0.288 C 
ATOM     21  O   UNL d   1      -2.899  -0.225  -4.205  0.00  0.00    -0.262 OA
BRANCH  20  22
ATOM     22  C   UNL d   1      -4.052  -1.777  -2.743  0.00  0.00     0.039 C 
ATOM     23  C   UNL d   1      -4.176  -2.082  -1.244  0.00  0.00     0.025 C 
ATOM     24  C   UNL d   1      -5.452  -1.538  -3.328  0.00  0.00     0.025 C 
ATOM     25  C   UNL d   1      -3.412  -2.991  -3.438  0.00  0.00     0.025 C 
ENDBRANCH  20  22
ENDBRANCH  19  20
ENDBRANCH   2  19
TORSDOF 8
