REMARK  4 active torsions:
REMARK  status: ('A' for Active; 'I' for Inactive)
REMARK    1  A    between atoms: C_3  and  C_1 
REMARK    2  A    between atoms: C_7  and  C_1 
REMARK    3  A    between atoms: C_8  and  C_2 
REMARK    4  A    between atoms: N_4  and  C_3 
ROOT
ATOM      1  C   UNL d   1       0.998   0.010  -0.100  0.00  0.00     0.009 C 
ATOM      2  C   UNL d   1       0.426   0.814  -1.035  0.00  0.00    -0.001 C 
ENDROOT
BRANCH   1   3
ATOM      3  C   UNL d   1       2.518   0.010  -0.100  0.00  0.00    -0.041 C 
BRANCH   3   4
ATOM      4  N   UNL d   1       3.779   0.010  -0.100  0.00  0.00    -0.365 N 
ATOM      5  HN2 UNL d   1       2.759   0.010  -0.100  1.00  0.00     0.165 HD
ATOM      6  HN1 UNL d   1       4.799   0.010  -0.100  1.00  0.00     0.165 HD
ENDBRANCH   3   4
ENDBRANCH   1   3
BRANCH   1   7
ATOM      7  C   UNL d   1       0.255  -0.861   0.922  0.00  0.00    -0.015 C 
ATOM      8  C   UNL d   1      -1.284  -0.759   0.814  0.00  0.00     0.020 C 
ATOM      9  C   UNL d   1       0.636  -2.340   0.719  0.00  0.00     0.020 C 
ATOM     10  C   UNL d   1       0.646  -0.425   2.348  0.00  0.00     0.020 C 
ENDBRANCH   1   7
BRANCH   2  11
ATOM     11  C   UNL d   1       1.130   1.724  -2.066  0.00  0.00    -0.033 C 
ATOM     12  C   UNL d   1       1.959   0.907  -3.082  0.00  0.00     0.018 C 
ATOM     13  C   UNL d   1       0.064   2.501  -2.872  0.00  0.00     0.018 C 
ATOM     14  C   UNL d   1       2.016   2.792  -1.388  0.00  0.00     0.018 C 
ENDBRANCH   2  11
TORSDOF 4
