REMARK  5 active torsions:
REMARK  status: ('A' for Active; 'I' for Inactive)
REMARK    1  A    between atoms: C_5  and  C_1 
REMARK    2  A    between atoms: C_7  and  C_2 
REMARK    3  A    between atoms: O_11  and  C_7 
REMARK       I    between atoms: C_9  and  N_10 
REMARK    4  A    between atoms: C_16  and  C_9 
REMARK    5  A    between atoms: N_10  and  O_11 
ROOT
ATOM      1  C   UNL d   1      -1.246  -0.513   0.119  0.00  0.00     0.088 A 
ATOM      2  C   UNL d   1      -0.046  -1.296  -0.019  0.00  0.00     0.102 A 
ATOM      3  N   UNL d   1      -0.950   0.789  -0.029  0.00  0.00    -0.259 N 
ATOM      4  HN  UNL d   1      -1.613   1.564  -0.041  1.00  0.00     0.195 HD
ATOM      5  O   UNL d   1       0.411   0.880  -0.160  0.00  0.00    -0.241 OA
ATOM      6  C   UNL d   1       0.957  -0.360  -0.151  0.00  0.00     0.091 A 
ATOM      7  C   UNL d   1       2.428  -0.398  -0.244  0.00  0.00     0.080 C 
ENDROOT
BRANCH   2   8
ATOM      8  C   UNL d   1       0.142  -2.731  -0.054  0.00  0.00     0.320 C 
ATOM      9  O   UNL d   1       0.960  -3.287  -0.775  0.00  0.00    -0.257 OA
BRANCH   8  10
ATOM     10  O   UNL d   1      -0.759  -3.394   0.736  0.00  0.00    -0.192 OA
BRANCH  10  11
ATOM     11  N   UNL d   1      -0.969  -4.748   0.341  0.00  0.00    -0.221 N 
ATOM     12  C   UNL d   1      -1.585  -5.469   1.340  0.00  0.00     0.275 C 
ATOM     13  O   UNL d   1      -1.525  -5.144   2.523  0.00  0.00    -0.265 OA
ATOM     14  H   UNL d   1      -1.132  -4.881  -0.648  0.00  0.00     0.198 HD
BRANCH  12  15
ATOM     15  C   UNL d   1      -2.442  -6.632   0.943  0.00  0.00     0.034 A 
ATOM     16  C   UNL d   1      -2.669  -7.030  -0.382  0.00  0.00     0.017 A 
ATOM     17  C   UNL d   1      -3.574  -8.063  -0.659  0.00  0.00     0.001 A 
ATOM     18  C   UNL d   1      -4.249  -8.709   0.378  0.00  0.00     0.000 A 
ATOM     19  C   UNL d   1      -4.013  -8.336   1.697  0.00  0.00     0.001 A 
ATOM     20  C   UNL d   1      -3.114  -7.306   1.976  0.00  0.00     0.017 A 
ENDBRANCH  12  15
ENDBRANCH  10  11
ENDBRANCH   8  10
ENDBRANCH   2   8
BRANCH   1  21
ATOM     21  C   UNL d   1      -2.640  -0.928   0.332  0.00  0.00     0.054 A 
ATOM     22  C   UNL d   1      -3.158  -2.040  -0.351  0.00  0.00     0.130 A 
ATOM     23  F   UNL d   1      -2.413  -2.695  -1.258  0.00  0.00    -0.205 F 
ATOM     24  C   UNL d   1      -4.449  -2.520  -0.125  0.00  0.00     0.043 A 
ATOM     25  C   UNL d   1      -5.289  -1.854   0.758  0.00  0.00     0.005 A 
ATOM     26  C   UNL d   1      -4.827  -0.713   1.408  0.00  0.00     0.025 A 
ATOM     27  C   UNL d   1      -3.513  -0.257   1.212  0.00  0.00     0.049 A 
ATOM     28 CL   UNL d   1      -3.058   1.131   2.146  0.00  0.00    -0.083 Cl
ENDBRANCH   1  21
TORSDOF 5
