REMARK  4 active torsions:
REMARK  status: ('A' for Active; 'I' for Inactive)
REMARK    1  A    between atoms: C_9  and  N_1 
REMARK    2  A    between atoms: C_2  and  C_3 
REMARK    3  A    between atoms: C_4  and  C_12 
REMARK    4  A    between atoms: O_21  and  C_5 
ROOT
ATOM      1  C   UNL d   1      -3.450   2.745   3.743  0.00  0.00     0.038 C 
ATOM      2  C   UNL d   1      -2.335   3.339   3.262  0.00  0.00     0.055 C 
ATOM      3  C   UNL d   1      -1.487   2.646   2.335  0.00  0.00     0.100 C 
ATOM      4  N   UNL d   1      -0.804   2.103   1.569  0.00  0.00    -0.191 NA
ENDROOT
BRANCH   2   5
ATOM      5  C   UNL d   1      -1.983   4.737   3.647  0.00  0.00    -0.015 A 
ATOM      6  C   UNL d   1      -2.251   5.243   4.933  0.00  0.00     0.015 A 
ATOM      7  C   UNL d   1      -1.899   6.554   5.287  0.00  0.00     0.037 A 
ATOM      8  C   UNL d   1      -1.257   7.376   4.355  0.00  0.00     0.102 A 
ATOM      9  C   UNL d   1      -0.968   6.894   3.075  0.00  0.00     0.037 A 
ATOM     10  C   UNL d   1      -1.331   5.586   2.730  0.00  0.00     0.015 A 
BRANCH   8  11
ATOM     11  N   UNL d   1      -0.882   8.747   4.723  0.00  0.00    -0.116 N 
ATOM     12  O   UNL d   1      -0.304   9.435   3.870  0.00  0.00    -0.532 OA
ATOM     13  O   UNL d   1      -1.168   9.134   5.865  0.00  0.00    -0.532 OA
ENDBRANCH   8  11
ENDBRANCH   2   5
BRANCH   1  14
ATOM     14  C   UNL d   1      -3.886   1.379   3.396  0.00  0.00     0.002 A 
ATOM     15  C   UNL d   1      -4.763   1.115   2.330  0.00  0.00     0.097 A 
ATOM     16  C   UNL d   1      -5.128  -0.205   2.028  0.00  0.00     0.069 A 
ATOM     17 CL   UNL d   1      -6.205  -0.565   0.725  0.00  0.00    -0.081 Cl
ATOM     18  C   UNL d   1      -4.627  -1.267   2.780  0.00  0.00     0.050 A 
ATOM     19  C   UNL d   1      -3.766  -1.004   3.841  0.00  0.00     0.036 A 
ATOM     20  C   UNL d   1      -3.395   0.305   4.154  0.00  0.00     0.038 A 
ATOM     21 CL   UNL d   1      -3.154  -2.309   4.782  0.00  0.00    -0.084 Cl
BRANCH  15  22
ATOM     22  O   UNL d   1      -5.286   2.127   1.566  0.00  0.00    -0.358 OA
ATOM     23  H   UNL d   1      -4.931   2.984   1.845  0.00  0.00     0.217 HD
ENDBRANCH  15  22
ENDBRANCH   1  14
TORSDOF 4
