REMARK  6 active torsions:
REMARK  status: ('A' for Active; 'I' for Inactive)
REMARK    1  A    between atoms: C_8  and  C_1 
REMARK    2  A    between atoms: N_6  and  C_2 
REMARK    3  A    between atoms: C_10  and  C_4 
REMARK       I    between atoms: C_7  and  N_6 
REMARK    4  A    between atoms: C_9  and  C_7 
REMARK    5  A    between atoms: O_24  and  C_8 
REMARK    6  A    between atoms: C_13  and  C_14 
ROOT
ATOM      1  C   UNL d   1       0.245   1.380  -0.548  0.00  0.00     0.107 C 
ATOM      2  C   UNL d   1       1.506   0.864  -0.282  0.00  0.00     0.059 C 
ATOM      3  S   UNL d   1      -0.971   0.168  -0.395  0.00  0.00    -0.081 SA
ATOM      4  C   UNL d   1       0.170  -1.095  -0.190  0.00  0.00     0.018 C 
ATOM      5  C   UNL d   1       1.447  -0.564  -0.150  0.00  0.00     0.051 C 
ENDROOT
BRANCH   2   6
ATOM      6  N   UNL d   1       2.739   1.515  -0.174  0.00  0.00    -0.321 N 
ATOM      7  C   UNL d   1       2.942   2.852   0.110  0.00  0.00     0.256 C 
ATOM      8  O   UNL d   1       2.086   3.696   0.337  0.00  0.00    -0.267 OA
ATOM      9  H   UNL d   1       3.545   0.906  -0.198  0.00  0.00     0.169 HD
BRANCH   7  10
ATOM     10  C   UNL d   1       4.366   3.278   0.194  0.00  0.00     0.035 A 
ATOM     11  C   UNL d   1       4.722   4.526  -0.330  0.00  0.00     0.041 A 
ATOM     12  C   UNL d   1       6.036   4.979  -0.205  0.00  0.00     0.036 A 
ATOM     13 CL   UNL d   1       6.475   6.515  -0.848  0.00  0.00    -0.084 Cl
ATOM     14  C   UNL d   1       6.995   4.208   0.444  0.00  0.00     0.047 A 
ATOM     15  C   UNL d   1       6.632   2.969   0.968  0.00  0.00     0.036 A 
ATOM     16  C   UNL d   1       5.324   2.495   0.848  0.00  0.00     0.041 A 
ATOM     17 CL   UNL d   1       7.804   2.017   1.795  0.00  0.00    -0.084 Cl
ENDBRANCH   7  10
ENDBRANCH   2   6
BRANCH   1  18
ATOM     18  C   UNL d   1      -0.179   2.693  -0.992  0.00  0.00     0.302 C 
ATOM     19  O   UNL d   1      -1.219   3.263  -0.677  0.00  0.00    -0.259 OA
BRANCH  18  20
ATOM     20  O   UNL d   1       0.702   3.156  -1.925  0.00  0.00    -0.322 OA
ATOM     21  C   UNL d   1       0.524   4.499  -2.372  0.00  0.00     0.213 C 
ENDBRANCH  18  20
ENDBRANCH   1  18
BRANCH   4  22
ATOM     22  C   UNL d   1      -0.234  -2.514  -0.057  0.00  0.00    -0.019 A 
ATOM     23  C   UNL d   1      -1.379  -3.044  -0.663  0.00  0.00     0.013 A 
ATOM     24  C   UNL d   1      -1.697  -4.411  -0.549  0.00  0.00     0.009 A 
ATOM     25  C   UNL d   1      -0.888  -5.305   0.176  0.00  0.00    -0.051 A 
ATOM     26  C   UNL d   1       0.257  -4.767   0.778  0.00  0.00     0.009 A 
ATOM     27  C   UNL d   1       0.573  -3.403   0.667  0.00  0.00     0.013 A 
BRANCH  25  28
ATOM     28  C   UNL d   1      -1.275  -6.791   0.309  0.00  0.00    -0.024 C 
ATOM     29  C   UNL d   1      -0.277  -7.624   1.149  0.00  0.00     0.019 C 
ATOM     30  C   UNL d   1      -2.651  -6.907   0.998  0.00  0.00     0.019 C 
ATOM     31  C   UNL d   1      -1.354  -7.456  -1.083  0.00  0.00     0.019 C 
ENDBRANCH  25  28
ENDBRANCH   4  22
TORSDOF 6
