REMARK  1 active torsions:
REMARK  status: ('A' for Active; 'I' for Inactive)
REMARK    1  A    between atoms: C_2  and  N_1 
ROOT
ATOM      1  C   UNL d   1       0.033   2.253  -0.092  0.00  0.00     0.052 A 
ATOM      2  C   UNL d   1       0.749   2.892  -1.121  0.00  0.00     0.054 A 
ATOM      3  C   UNL d   1      -0.662   3.037   0.853  0.00  0.00    -0.035 A 
ATOM      4  C   UNL d   1      -0.667   4.438   0.711  0.00  0.00     0.011 A 
ATOM      5  C   UNL d   1       0.726   4.279  -1.243  0.00  0.00     0.036 A 
ATOM      6  C   UNL d   1       0.017   5.056  -0.335  0.00  0.00     0.024 A 
ATOM      7 CL   UNL d   1       1.564   5.038  -2.542  0.00  0.00    -0.084 Cl
ATOM      8  C   UNL d   1      -1.353   2.474   2.067  0.00  0.00     0.050 C 
ENDROOT
BRANCH   1   9
ATOM      9  N   UNL d   1       0.030   0.837  -0.043  0.00  0.00    -0.252 N 
ATOM     10  C   UNL d   1      -1.116   0.083  -0.011  0.00  0.00     0.231 C 
ATOM     11  C   UNL d   1      -0.738  -1.371  -0.045  0.00  0.00     0.113 C 
ATOM     12  O   UNL d   1      -2.279   0.461  -0.025  0.00  0.00    -0.273 OA
ATOM     13  C   UNL d   1       0.775  -1.375  -0.078  0.00  0.00     0.113 C 
ATOM     14  C   UNL d   1       1.159   0.069  -0.186  0.00  0.00     0.231 C 
ATOM     15  O   UNL d   1       2.317   0.440  -0.326  0.00  0.00    -0.273 OA
ENDBRANCH   1   9
TORSDOF 1
