REMARK  5 active torsions:
REMARK  status: ('A' for Active; 'I' for Inactive)
REMARK    1  A    between atoms: C_7  and  C_1 
REMARK    2  A    between atoms: N_2  and  C_9 
REMARK    3  A    between atoms: C_10  and  C_3 
REMARK    4  A    between atoms: S_6  and  C_4 
REMARK    5  A    between atoms: C_8  and  S_6 
REMARK       I    between atoms: N_17  and  C_7 
REMARK       I    between atoms: N_18  and  C_10 
ROOT
ATOM      1  C   UNL d   1       1.298  -0.007  -0.342  0.00  0.00     0.051 A 
ATOM      2  C   UNL d   1       0.524  -1.188  -0.330  0.00  0.00     0.021 A 
ATOM      3  C   UNL d   1       0.671   1.254  -0.211  0.00  0.00     0.054 A 
ATOM      4  C   UNL d   1      -0.716   1.347  -0.066  0.00  0.00     0.103 A 
ATOM      5  C   UNL d   1      -0.876  -1.058  -0.218  0.00  0.00     0.022 A 
ATOM      6  C   UNL d   1      -1.496   0.192  -0.090  0.00  0.00     0.037 A 
ENDROOT
BRANCH   2   7
ATOM      7  S   UNL d   1       1.161  -2.852  -0.162  0.00  0.00    -0.088 SA
BRANCH   7   8
ATOM      8  C   UNL d   1       1.329  -3.527  -1.813  0.00  0.00     0.021 A 
ATOM      9  C   UNL d   1       0.330  -4.205  -2.544  0.00  0.00     0.049 A 
ATOM     10  C   UNL d   1       0.671  -4.888  -3.732  0.00  0.00     0.018 A 
ATOM     11  C   UNL d   1       1.985  -4.928  -4.187  0.00  0.00     0.001 A 
ATOM     12  C   UNL d   1       2.971  -4.250  -3.483  0.00  0.00     0.001 A 
ATOM     13  C   UNL d   1       2.644  -3.554  -2.316  0.00  0.00     0.020 A 
BRANCH   9  14
ATOM     14  C   UNL d   1      -1.108  -4.313  -2.166  0.00  0.00     0.252 C 
ATOM     15  O   UNL d   1      -1.966  -4.232  -3.036  0.00  0.00    -0.268 OA
ATOM     16  N   UNL d   1      -1.381  -4.570  -0.841  0.00  0.00    -0.361 N 
ATOM     17  C   UNL d   1      -2.723  -4.828  -0.374  0.00  0.00     0.149 C 
ATOM     18  H   UNL d   1      -0.612  -4.698  -0.198  0.00  0.00     0.162 HD
ENDBRANCH   9  14
ENDBRANCH   7   8
ENDBRANCH   2   7
BRANCH   1  19
ATOM     19  C   UNL d   1       2.778   0.072  -0.490  0.00  0.00     0.252 C 
ATOM     20  O   UNL d   1       3.254   0.991  -1.148  0.00  0.00    -0.268 OA
ATOM     21  N   UNL d   1       3.548  -0.852   0.173  0.00  0.00    -0.361 N 
ATOM     22  C   UNL d   1       4.989  -0.821   0.100  0.00  0.00     0.149 C 
ATOM     23  H   UNL d   1       3.099  -1.609   0.676  0.00  0.00     0.162 HD
ENDBRANCH   1  19
BRANCH   4  24
ATOM     24  N   UNL d   1      -1.347   2.656   0.147  0.00  0.00    -0.116 N 
ATOM     25  O   UNL d   1      -0.610   3.645   0.224  0.00  0.00    -0.532 OA
ATOM     26  O   UNL d   1      -2.581   2.686   0.263  0.00  0.00    -0.532 OA
ENDBRANCH   4  24
TORSDOF 5
