REMARK  1 active torsions:
REMARK  status: ('A' for Active; 'I' for Inactive)
REMARK    1  A    between atoms: N_5  and  C_1 
REMARK       I    between atoms: C_8  and  N_5 
ROOT
ATOM      1  C   UNL d   1      -1.777  -1.324  -0.022  0.00  0.00     0.112 A 
ATOM      2  C   UNL d   1      -2.058   0.145   0.061  0.00  0.00     0.315 A 
ATOM      3  O   UNL d   1      -0.982   1.019   0.037  0.00  0.00    -0.273 OA
ATOM      4  C   UNL d   1      -0.513  -1.764  -0.041  0.00  0.00     0.050 A 
ATOM      5  C   UNL d   1       0.338   0.537   0.009  0.00  0.00     0.089 A 
ATOM      6  C   UNL d   1       0.600  -0.828  -0.006  0.00  0.00     0.000 A 
ATOM      7  O   UNL d   1      -3.220   0.545   0.131  0.00  0.00    -0.257 OA
ATOM      8  C   UNL d   1       1.365   1.478   0.007  0.00  0.00     0.038 A 
ATOM      9  C   UNL d   1       1.927  -1.262  -0.003  0.00  0.00     0.014 A 
ATOM     10  C   UNL d   1       2.688   1.039   0.004  0.00  0.00     0.003 A 
ATOM     11  C   UNL d   1       2.969  -0.329   0.005  0.00  0.00     0.001 A 
ENDROOT
BRANCH   1  12
ATOM     12  N   UNL d   1      -2.908  -2.126  -0.070  0.00  0.00    -0.322 N 
ATOM     13  C   UNL d   1      -2.986  -3.495  -0.218  0.00  0.00     0.218 C 
ATOM     14  O   UNL d   1      -2.035  -4.260  -0.342  0.00  0.00    -0.274 OA
ATOM     15  C   UNL d   1      -4.400  -4.015  -0.250  0.00  0.00     0.117 C 
ATOM     16  H   UNL d   1      -3.780  -1.600  -0.021  0.00  0.00     0.169 HD
ENDBRANCH   1  12
TORSDOF 1
