REMARK  2 active torsions:
REMARK  status: ('A' for Active; 'I' for Inactive)
REMARK    1  A    between atoms: C_7  and  C_3 
REMARK    2  A    between atoms: N_13  and  C_4 
ROOT
ATOM      1  N   UNL d   1       0.101  -1.298   0.620  0.00  0.00    -0.336 N 
ATOM      2  HN  UNL d   1       0.517  -2.106   1.082  1.00  0.00     0.168 HD
ATOM      3  C   UNL d   1      -1.140  -1.292  -0.001  0.00  0.00     0.051 A 
ATOM      4  C   UNL d   1       0.660  -0.118   0.529  0.00  0.00     0.142 A 
ATOM      5  S   UNL d   1      -0.252   1.069  -0.309  0.00  0.00    -0.064 SA
ATOM      6  C   UNL d   1      -1.502  -0.077  -0.551  0.00  0.00     0.083 A 
ENDROOT
BRANCH   3   7
ATOM      7  C   UNL d   1      -1.985  -2.482  -0.023  0.00  0.00    -0.008 A 
ATOM      8  C   UNL d   1      -1.887  -3.422   1.016  0.00  0.00     0.022 A 
ATOM      9  C   UNL d   1      -2.698  -4.572   1.046  0.00  0.00    -0.039 A 
ATOM     10  C   UNL d   1      -2.570  -5.539   2.189  0.00  0.00     0.050 C 
ATOM     11  C   UNL d   1      -3.608  -4.778   0.000  0.00  0.00     0.040 A 
ATOM     12  C   UNL d   1      -3.704  -3.859  -1.046  0.00  0.00     0.025 A 
ATOM     13 CL   UNL d   1      -4.641  -6.162  -0.044  0.00  0.00    -0.084 Cl
ATOM     14  C   UNL d   1      -2.898  -2.718  -1.058  0.00  0.00     0.015 A 
ENDBRANCH   3   7
BRANCH   4  15
ATOM     15  N   UNL d   1       1.870   0.167   1.036  0.00  0.00    -0.380 N 
ATOM     16  H   UNL d   1       2.454  -0.631   1.257  0.00  0.00     0.158 HD
ATOM     17  H   UNL d   1       2.369   0.964   0.663  0.00  0.00     0.158 HD
ENDBRANCH   4  15
TORSDOF 2
