REMARK  5 active torsions:
REMARK  status: ('A' for Active; 'I' for Inactive)
REMARK    1  A    between atoms: C_2  and  O_14 
REMARK    2  A    between atoms: C_3  and  C_2 
REMARK    3  A    between atoms: O_14  and  N_4 
REMARK    4  A    between atoms: C_17  and  C_8 
REMARK    5  A    between atoms: C_15  and  C_16 
ROOT
ATOM      1  N   UNL d   1       4.648  -0.665  -0.043  0.00  0.00    -0.268 N 
ATOM      2  HN  UNL d   1       4.707   0.318  -0.308  1.00  0.00     0.194 HD
ATOM      3  C   UNL d   1       3.554  -1.349   0.025  0.00  0.00     0.126 C 
ENDROOT
BRANCH   1   4
ATOM      4  O   UNL d   1       5.747  -1.472   0.302  0.00  0.00    -0.196 OA
BRANCH   4   5
ATOM      5  C   UNL d   1       6.896  -0.778   0.053  0.00  0.00     0.304 C 
ATOM      6  O   UNL d   1       7.115  -0.025  -0.887  0.00  0.00    -0.258 OA
BRANCH   5   7
ATOM      7  C   UNL d   1       7.895  -0.964   1.132  0.00  0.00     0.085 C 
ATOM      8  C   UNL d   1       7.661  -1.626   2.277  0.00  0.00     0.017 C 
BRANCH   8   9
ATOM      9  C   UNL d   1       8.589  -1.657   3.416  0.00  0.00    -0.036 A 
ATOM     10  C   UNL d   1       9.382  -0.553   3.762  0.00  0.00     0.011 A 
ATOM     11  C   UNL d   1      10.182  -0.578   4.907  0.00  0.00     0.001 A 
ATOM     12  C   UNL d   1      10.191  -1.706   5.726  0.00  0.00     0.000 A 
ATOM     13  C   UNL d   1       9.401  -2.806   5.399  0.00  0.00     0.001 A 
ATOM     14  C   UNL d   1       8.603  -2.782   4.253  0.00  0.00     0.011 A 
ENDBRANCH   8   9
ENDBRANCH   5   7
ENDBRANCH   4   5
ENDBRANCH   1   4
BRANCH   3  15
ATOM     15  C   UNL d   1       2.242  -0.687  -0.114  0.00  0.00    -0.016 A 
ATOM     16  C   UNL d   1       1.080  -1.465  -0.122  0.00  0.00     0.052 A 
ATOM     17  C   UNL d   1      -0.125  -0.793  -0.146  0.00  0.00     0.105 A 
ATOM     18  C   UNL d   1      -0.197   0.582  -0.164  0.00  0.00     0.105 A 
ATOM     19  O   UNL d   1      -1.356  -1.373  -0.134  0.00  0.00    -0.323 OA
ATOM     20  O   UNL d   1      -1.478   1.036  -0.159  0.00  0.00    -0.323 OA
ATOM     21  C   UNL d   1       0.932   1.370  -0.172  0.00  0.00     0.040 A 
ATOM     22  C   UNL d   1      -2.208  -0.207  -0.120  0.00  0.00     0.352 A 
ATOM     23  C   UNL d   1       2.169   0.723  -0.149  0.00  0.00     0.016 A 
ENDBRANCH   3  15
TORSDOF 5
