REMARK  8 active torsions:
REMARK  status: ('A' for Active; 'I' for Inactive)
REMARK    1  A    between atoms: C_2  and  S_1 
REMARK    2  A    between atoms: N_3  and  S_1 
REMARK    3  A    between atoms: C_4  and  N_3 
REMARK    4  A    between atoms: C_4  and  C_11 
REMARK    5  A    between atoms: C_4  and  C_5 
REMARK    6  A    between atoms: O_14  and  C_5 
REMARK    7  A    between atoms: O_17  and  C_9 
REMARK    8  A    between atoms: C_20  and  O_14 
ROOT
ATOM      1  S   UNL d   1       3.391   1.905   2.539  0.00  0.00     0.262 S 
ATOM      2  O   UNL d   1       4.605   1.475   3.188  0.00  0.00    -0.200 OA
ATOM      3  O   UNL d   1       3.330   1.914   1.091  0.00  0.00    -0.200 OA
ENDROOT
BRANCH   1   4
ATOM      4  C   UNL d   1       2.931   3.504   3.158  0.00  0.00     0.114 A 
ATOM      5  C   UNL d   1       2.317   4.341   2.189  0.00  0.00     0.052 A 
ATOM      6  C   UNL d   1       1.809   5.592   2.523  0.00  0.00     0.035 A 
ATOM      7 CL   UNL d   1       0.947   6.515   1.359  0.00  0.00    -0.084 Cl
ATOM      8  C   UNL d   1       1.960   6.072   3.810  0.00  0.00     0.026 A 
ATOM      9  C   UNL d   1       2.602   5.275   4.758  0.00  0.00     0.040 A 
ATOM     10  C   UNL d   1       3.082   3.975   4.471  0.00  0.00     0.091 A 
BRANCH  10  11
ATOM     11  O   UNL d   1       3.582   3.453   5.622  0.00  0.00    -0.354 OA
ATOM     12  C   UNL d   1       3.980   2.115   5.818  0.00  0.00     0.210 C 
ENDBRANCH  10  11
ENDBRANCH   1   4
BRANCH   1  13
ATOM     13  N   UNL d   1       2.175   0.890   3.074  0.00  0.00    -0.301 N 
ATOM     14  H   UNL d   1       2.476   0.126   3.674  0.00  0.00     0.173 HD
BRANCH  13  15
ATOM     15  C   UNL d   1       0.762   0.954   2.649  0.00  0.00     0.196 C 
BRANCH  15  16
ATOM     16  C   UNL d   1      -0.015   2.042   3.439  0.00  0.00     0.010 C 
ATOM     17  C   UNL d   1      -1.514   2.068   3.116  0.00  0.00     0.012 C 
ATOM     18  C   UNL d   1       0.158   1.929   4.957  0.00  0.00     0.012 C 
ENDBRANCH  15  16
BRANCH  15  19
ATOM     19  C   UNL d   1       0.539   1.115   1.144  0.00  0.00     0.282 C 
ATOM     20  O   UNL d   1       0.382   2.193   0.580  0.00  0.00    -0.263 OA
BRANCH  19  21
ATOM     21  O   UNL d   1       0.409  -0.107   0.550  0.00  0.00    -0.320 OA
BRANCH  21  22
ATOM     22  C   UNL d   1      -0.162  -0.088  -0.769  0.00  0.00     0.174 C 
ATOM     23  C   UNL d   1      -1.672  -0.202  -0.639  0.00  0.00     0.034 C 
ENDBRANCH  21  22
ENDBRANCH  19  21
ENDBRANCH  15  19
ENDBRANCH  13  15
ENDBRANCH   1  13
TORSDOF 8
