REMARK  5 active torsions:
REMARK  status: ('A' for Active; 'I' for Inactive)
REMARK    1  A    between atoms: C_3  and  N_1 
REMARK    2  A    between atoms: C_6  and  C_2 
REMARK    3  A    between atoms: C_5  and  C_4 
REMARK    4  A    between atoms: O_12  and  C_5 
REMARK    5  A    between atoms: O_13  and  C_6 
ROOT
ATOM      1  C   UNL d   1      -0.728  -2.472   0.013  0.00  0.00     0.055 A 
ATOM      2  C   UNL d   1      -1.538  -2.966  -1.029  0.00  0.00     0.066 A 
ATOM      3  C   UNL d   1      -1.881  -4.333  -1.062  0.00  0.00     0.020 A 
ATOM      4  C   UNL d   1      -0.260  -3.379   0.983  0.00  0.00     0.031 A 
ATOM      5  C   UNL d   1      -1.419  -5.210  -0.084  0.00  0.00     0.001 A 
ATOM      6  C   UNL d   1      -0.611  -4.731   0.938  0.00  0.00     0.002 A 
ENDROOT
BRANCH   1   7
ATOM      7  N   UNL d   1      -0.278  -1.113   0.075  0.00  0.00    -0.316 N 
ATOM      8  C   UNL d   1       0.019  -0.350   1.211  0.00  0.00     0.115 A 
ATOM      9  C   UNL d   1       0.618   0.829   0.775  0.00  0.00     0.038 A 
ATOM     10  C   UNL d   1       0.654   0.822  -0.628  0.00  0.00     0.020 A 
ATOM     11  C   UNL d   1       0.108  -0.371  -1.032  0.00  0.00     0.098 A 
BRANCH   8  12
ATOM     12  C   UNL d   1      -0.299  -0.684   2.583  0.00  0.00     0.310 C 
ATOM     13  O   UNL d   1      -1.199  -1.420   2.965  0.00  0.00    -0.258 OA
BRANCH  12  14
ATOM     14  O   UNL d   1       0.595  -0.073   3.415  0.00  0.00    -0.321 OA
ATOM     15  C   UNL d   1       0.440  -0.405   4.794  0.00  0.00     0.213 C 
ENDBRANCH  12  14
ENDBRANCH   8  12
ENDBRANCH   1   7
BRANCH   2  16
ATOM     16  C   UNL d   1      -2.185  -2.110  -2.052  0.00  0.00     0.295 C 
ATOM     17  O   UNL d   1      -2.774  -1.069  -1.820  0.00  0.00    -0.259 OA
BRANCH  16  18
ATOM     18  O   UNL d   1      -2.003  -2.687  -3.268  0.00  0.00    -0.322 OA
ATOM     19  C   UNL d   1      -2.626  -1.992  -4.349  0.00  0.00     0.213 C 
ENDBRANCH  16  18
ENDBRANCH   2  16
TORSDOF 5
