REMARK  5 active torsions:
REMARK  status: ('A' for Active; 'I' for Inactive)
REMARK    1  A    between atoms: C_9  and  C_1 
REMARK    2  A    between atoms: C_10  and  C_1 
REMARK    3  A    between atoms: N_11  and  C_6 
REMARK    4  A    between atoms: C_12  and  C_8 
REMARK    5  A    between atoms: O_17  and  C_10 
ROOT
ATOM      1  C   UNL d   1       1.364  -0.232   0.316  0.00  0.00     0.298 C 
ATOM      2  N   UNL d   1       0.759   1.090   0.203  0.00  0.00    -0.314 N 
ATOM      3  HN  UNL d   1       1.315   1.920   0.409  1.00  0.00     0.166 HD
ATOM      4  N   UNL d   1       0.404  -1.326   0.195  0.00  0.00    -0.328 N 
ATOM      5  HN  UNL d   1       0.682  -2.287   0.390  1.00  0.00     0.165 HD
ATOM      6  C   UNL d   1      -0.461   1.218  -0.152  0.00  0.00     0.226 C 
ATOM      7  O   UNL d   1      -1.292   0.174  -0.380  0.00  0.00    -0.262 OA
ATOM      8  C   UNL d   1      -0.791  -1.053  -0.159  0.00  0.00     0.160 C 
ENDROOT
BRANCH   1   9
ATOM      9  C   UNL d   1       2.531  -0.415  -0.700  0.00  0.00     0.442 C 
ATOM     10  F   UNL d   1       2.957   0.765  -1.222  0.00  0.00    -0.166 F 
ATOM     11  F   UNL d   1       3.621  -1.025  -0.174  0.00  0.00    -0.166 F 
ATOM     12  F   UNL d   1       2.149  -1.173  -1.767  0.00  0.00    -0.166 F 
ENDBRANCH   1   9
BRANCH   1  13
ATOM     13  C   UNL d   1       2.003  -0.341   1.713  0.00  0.00     0.318 C 
ATOM     14  O   UNL d   1       1.744  -1.212   2.540  0.00  0.00    -0.260 OA
BRANCH  13  15
ATOM     15  O   UNL d   1       2.887   0.676   1.952  0.00  0.00    -0.323 OA
ATOM     16  C   UNL d   1       3.501   0.603   3.239  0.00  0.00     0.213 C 
ENDBRANCH  13  15
ENDBRANCH   1  13
BRANCH   6  17
ATOM     17  N   UNL d   1      -1.042   2.453  -0.363  0.00  0.00    -0.347 N 
ATOM     18  C   UNL d   1      -2.483   2.683  -0.338  0.00  0.00     0.126 C 
ATOM     19  C   UNL d   1      -2.878   3.680  -1.429  0.00  0.00     0.020 C 
ATOM     20  C   UNL d   1      -2.054   4.964  -1.359  0.00  0.00     0.003 C 
ATOM     21  C   UNL d   1      -0.563   4.649  -1.331  0.00  0.00     0.020 C 
ATOM     22  C   UNL d   1      -0.231   3.670  -0.209  0.00  0.00     0.126 C 
ENDBRANCH   6  17
BRANCH   8  23
ATOM     23  C   UNL d   1      -1.789  -2.125  -0.372  0.00  0.00     0.015 A 
ATOM     24  C   UNL d   1      -2.945  -1.934  -1.137  0.00  0.00     0.016 A 
ATOM     25  C   UNL d   1      -3.796  -3.014  -1.395  0.00  0.00     0.001 A 
ATOM     26  C   UNL d   1      -3.502  -4.281  -0.886  0.00  0.00     0.000 A 
ATOM     27  C   UNL d   1      -2.364  -4.473  -0.107  0.00  0.00     0.001 A 
ATOM     28  C   UNL d   1      -1.511  -3.400   0.149  0.00  0.00     0.016 A 
ENDBRANCH   8  23
TORSDOF 5
