REMARK  4 active torsions:
REMARK  status: ('A' for Active; 'I' for Inactive)
REMARK       I    between atoms: N_2  and  C_1 
REMARK    1  A    between atoms: C_3  and  C_1 
REMARK       I    between atoms: C_4  and  N_2 
REMARK    2  A    between atoms: O_8  and  C_4 
REMARK    3  A    between atoms: C_11  and  O_8 
REMARK    4  A    between atoms: C_18  and  C_11 
ROOT
ATOM      1  C   UNL d   1       3.008   0.797   4.035  0.00  0.00    -0.079 C 
ATOM      2  C   UNL d   1       2.944  -0.075   4.855  0.00  0.00     0.015 C 
ATOM      3  C   UNL d   1       3.018   1.861   3.001  0.00  0.00     0.130 C 
ATOM      4  C   UNL d   1       2.540   3.200   3.587  0.00  0.00     0.061 C 
ENDROOT
BRANCH   3   5
ATOM      5  O   UNL d   1       2.218   1.418   1.863  0.00  0.00    -0.280 OA
BRANCH   5   6
ATOM      6  C   UNL d   1       0.885   1.288   2.014  0.00  0.00     0.369 C 
ATOM      7  N   UNL d   1       0.208   0.740   0.955  0.00  0.00    -0.269 N 
ATOM      8  C   UNL d   1       0.595  -0.301   0.117  0.00  0.00     0.264 C 
ATOM      9  H   UNL d   1      -0.773   0.756   1.198  0.00  0.00     0.174 HD
ATOM     10  O   UNL d   1       1.731  -0.508  -0.280  0.00  0.00    -0.267 OA
ATOM     11  O   UNL d   1       0.231   1.603   3.006  0.00  0.00    -0.238 OA
BRANCH   8  12
ATOM     12  C   UNL d   1      -0.555  -1.138  -0.352  0.00  0.00     0.092 A 
ATOM     13  C   UNL d   1      -1.777  -0.505  -0.626  0.00  0.00     0.133 A 
ATOM     14  F   UNL d   1      -1.870   0.833  -0.599  0.00  0.00    -0.205 F 
ATOM     15  C   UNL d   1      -2.943  -1.224  -0.873  0.00  0.00     0.043 A 
ATOM     16  C   UNL d   1      -2.902  -2.611  -0.877  0.00  0.00     0.005 A 
ATOM     17  C   UNL d   1      -1.684  -3.264  -0.674  0.00  0.00     0.025 A 
ATOM     18  C   UNL d   1      -0.508  -2.535  -0.418  0.00  0.00     0.052 A 
ATOM     19 CL   UNL d   1       0.923  -3.454  -0.125  0.00  0.00    -0.083 Cl
ENDBRANCH   8  12
ENDBRANCH   5   6
ENDBRANCH   3   5
BRANCH   3  20
ATOM     20  C   UNL d   1       4.452   2.027   2.425  0.00  0.00     0.047 C 
ATOM     21  C   UNL d   1       5.487   2.621   3.376  0.00  0.00     0.009 C 
ENDBRANCH   3  20
TORSDOF 4
