REMARK  5 active torsions:
REMARK  status: ('A' for Active; 'I' for Inactive)
REMARK    1  A    between atoms: C_8  and  N_1 
REMARK    2  A    between atoms: N_6  and  C_10 
REMARK    3  A    between atoms: C_9  and  C_7 
REMARK    4  A    between atoms: S_14  and  C_11 
REMARK    5  A    between atoms: C_22  and  S_14 
ROOT
ATOM      1  C   UNL d   1      -4.217   0.116  -0.061  0.00  0.00    -0.015 A 
ATOM      2  C   UNL d   1      -6.439  -0.440  -0.916  0.00  0.00     0.103 A 
ATOM      3  C   UNL d   1      -4.434  -0.706   1.076  0.00  0.00     0.011 A 
ATOM      4  C   UNL d   1      -5.197   0.174  -1.081  0.00  0.00     0.048 A 
ATOM      5  C   UNL d   1      -6.691  -1.196   0.220  0.00  0.00     0.037 A 
ATOM      6  C   UNL d   1      -5.683  -1.317   1.185  0.00  0.00     0.022 A 
ENDROOT
BRANCH   1   7
ATOM      7  C   UNL d   1      -3.054   1.009  -0.286  0.00  0.00     0.037 C 
ATOM      8  C   UNL d   1      -3.184   2.334  -0.481  0.00  0.00     0.077 C 
ATOM      9  C   UNL d   1      -4.420   3.148  -0.284  0.00  0.00     0.271 C 
ATOM     10  S   UNL d   1      -1.952   3.334  -1.169  0.00  0.00    -0.054 SA
ATOM     11  N   UNL d   1      -4.300   4.380  -0.913  0.00  0.00    -0.260 N 
ATOM     12  O   UNL d   1      -5.383   2.769   0.364  0.00  0.00    -0.266 OA
ATOM     13  C   UNL d   1      -3.065   4.687  -1.448  0.00  0.00     0.153 C 
ATOM     14  S   UNL d   1      -2.567   6.100  -2.190  0.00  0.00    -0.052 SA
BRANCH  11  15
ATOM     15  C   UNL d   1      -5.404   5.273  -0.870  0.00  0.00     0.066 A 
ATOM     16  C   UNL d   1      -6.229   5.497  -1.986  0.00  0.00     0.061 A 
ATOM     17 CL   UNL d   1      -5.932   4.738  -3.506  0.00  0.00    -0.082 Cl
ATOM     18  C   UNL d   1      -7.374   6.294  -1.861  0.00  0.00     0.026 A 
ATOM     19  C   UNL d   1      -7.702   6.869  -0.632  0.00  0.00     0.002 A 
ATOM     20  C   UNL d   1      -6.890   6.647   0.478  0.00  0.00     0.002 A 
ATOM     21  C   UNL d   1      -5.750   5.850   0.362  0.00  0.00     0.032 A 
ENDBRANCH  11  15
ENDBRANCH   1   7
BRANCH   3  22
ATOM     22  S   UNL d   1      -3.247  -0.846   2.407  0.00  0.00    -0.124 SA
BRANCH  22  23
ATOM     23  C   UNL d   1      -3.527  -2.433   3.394  0.00  0.00     0.052 C 
ATOM     24  C   UNL d   1      -3.087  -3.728   2.716  0.00  0.00     0.015 C 
ATOM     25  C   UNL d   1      -4.196  -4.456   1.980  0.00  0.00     0.001 C 
ATOM     26  C   UNL d   1      -5.447  -4.699   2.815  0.00  0.00     0.000 C 
ATOM     27  C   UNL d   1      -5.864  -3.600   3.789  0.00  0.00     0.001 C 
ATOM     28  C   UNL d   1      -4.794  -2.600   4.250  0.00  0.00     0.015 C 
ENDBRANCH  22  23
ENDBRANCH   3  22
BRANCH   2  29
ATOM     29  N   UNL d   1      -7.503  -0.213  -1.894  0.00  0.00    -0.116 N 
ATOM     30  O   UNL d   1      -7.252   0.522  -2.860  0.00  0.00    -0.532 OA
ATOM     31  O   UNL d   1      -8.594  -0.768  -1.697  0.00  0.00    -0.532 OA
ENDBRANCH   2  29
TORSDOF 5
