REMARK  0 active torsions:
REMARK  status: ('A' for Active; 'I' for Inactive)
ROOT
ATOM      1  C   UNL d   1       2.162   1.869  -0.366  0.00  0.00     0.258 C 
ATOM      2  C   UNL d   1       0.709   2.332  -0.353  0.00  0.00     0.271 C 
ATOM      3  N   UNL d   1      -0.276   1.358  -0.156  0.00  0.00    -0.313 N 
ATOM      4  C   UNL d   1       2.417   0.519   0.254  0.00  0.00     0.210 C 
ATOM      5  C   UNL d   1       1.335  -0.467   0.128  0.00  0.00     0.041 A 
ATOM      6  C   UNL d   1       0.022  -0.027  -0.048  0.00  0.00     0.057 A 
ATOM      7  O   UNL d   1       0.391   3.505  -0.578  0.00  0.00    -0.269 OA
ATOM      8 CL   UNL d   1       2.671   1.749  -2.085  0.00  0.00    -0.082 Cl
ATOM      9 CL   UNL d   1       3.162   3.101   0.463  0.00  0.00    -0.082 Cl
ATOM     10  O   UNL d   1       3.472   0.168   0.784  0.00  0.00    -0.288 OA
ATOM     11  C   UNL d   1      -1.009  -0.985  -0.105  0.00  0.00    -0.030 A 
ATOM     12  C   UNL d   1      -1.674   1.780  -0.277  0.00  0.00     0.133 C 
ATOM     13  C   UNL d   1       1.640  -1.831   0.196  0.00  0.00     0.017 A 
ATOM     14  C   UNL d   1      -2.652   0.809   0.360  0.00  0.00     0.025 C 
ATOM     15  C   UNL d   1       0.625  -2.775   0.072  0.00  0.00     0.002 A 
ATOM     16  C   UNL d   1      -2.450  -0.572  -0.239  0.00  0.00     0.042 C 
ATOM     17  C   UNL d   1      -0.694  -2.353  -0.076  0.00  0.00     0.009 A 
ENDROOT
TORSDOF 0
