REMARK  3 active torsions:
REMARK  status: ('A' for Active; 'I' for Inactive)
REMARK    1  A    between atoms: N_9  and  C_1 
REMARK    2  A    between atoms: N_3  and  N_9 
REMARK    3  A    between atoms: C_15  and  C_14 
ROOT
ATOM      1  N   UNL d   1      -1.207   0.773   1.330  0.00  0.00    -0.309 N 
ATOM      2  HN  UNL d   1      -1.687  -0.100   1.551  1.00  0.00     0.186 HD
ATOM      3  C   UNL d   1      -1.847   1.879   1.124  0.00  0.00     0.118 C 
ENDROOT
BRANCH   3   4
ATOM      4  C   UNL d   1      -3.323   1.920   1.181  0.00  0.00    -0.017 A 
ATOM      5  C   UNL d   1      -3.980   3.127   0.923  0.00  0.00     0.052 A 
ATOM      6  C   UNL d   1      -5.359   3.112   0.955  0.00  0.00     0.105 A 
ATOM      7  O   UNL d   1      -6.170   4.178   0.716  0.00  0.00    -0.323 OA
ATOM      8  C   UNL d   1      -6.072   1.967   1.235  0.00  0.00     0.105 A 
ATOM      9  C   UNL d   1      -7.471   3.564   0.837  0.00  0.00     0.352 A 
ATOM     10  O   UNL d   1      -7.415   2.171   1.206  0.00  0.00    -0.323 OA
ATOM     11  C   UNL d   1      -5.448   0.769   1.504  0.00  0.00     0.040 A 
ATOM     12  C   UNL d   1      -4.052   0.747   1.474  0.00  0.00     0.016 A 
ENDBRANCH   3   4
BRANCH   1  13
ATOM     13  N   UNL d   1       0.152   0.851   1.233  0.00  0.00    -0.277 N 
ATOM     14  H   UNL d   1       0.609   1.726   0.994  0.00  0.00     0.189 HD
BRANCH  13  15
ATOM     15  C   UNL d   1       0.928  -0.260   1.424  0.00  0.00     0.184 C 
ATOM     16  S   UNL d   1       2.581  -0.228   1.289  0.00  0.00    -0.040 SA
ATOM     17  N   UNL d   1       0.253  -1.392   1.732  0.00  0.00    -0.375 N 
ATOM     18  H   UNL d   1       0.723  -2.273   1.882  0.00  0.00     0.158 HD
ATOM     19  H   UNL d   1      -0.756  -1.323   1.774  0.00  0.00     0.158 HD
ENDBRANCH  13  15
ENDBRANCH   1  13
TORSDOF 3
