REMARK  5 active torsions:
REMARK  status: ('A' for Active; 'I' for Inactive)
REMARK    1  A    between atoms: CB_6  and  CG_1 
REMARK    2  A    between atoms: CA_8  and  C_5 
REMARK    3  A    between atoms: OXT_11  and  C_5 
REMARK    4  A    between atoms: CA_8  and  CB_6 
REMARK    5  A    between atoms: N_10  and  CA_8 
ROOT
ATOM      1  CG  TRP d   1      -1.458  -1.143  -0.020  0.00  0.00    -0.028 A 
ATOM      2  NE1 TRP d   1      -1.563   1.088  -0.018  0.00  0.00    -0.365 N 
ATOM      3  CD1 TRP d   1      -2.312  -0.055  -0.018  0.00  0.00     0.096 A 
ATOM      4  CD2 TRP d   1      -0.124  -0.620   0.012  0.00  0.00    -0.002 A 
ATOM      5  CE2 TRP d   1      -0.224   0.774  -0.001  0.00  0.00     0.042 A 
ATOM      6  CE3 TRP d   1       1.167  -1.193   0.039  0.00  0.00     0.014 A 
ATOM      7  CZ2 TRP d   1       0.891   1.619  -0.011  0.00  0.00     0.030 A 
ATOM      8  CZ3 TRP d   1       2.292  -0.357   0.049  0.00  0.00     0.001 A 
ATOM      9  CH2 TRP d   1       2.154   1.026   0.017  0.00  0.00     0.002 A 
ATOM     10  HE1 TRP d   1      -1.933   2.029  -0.046  0.00  0.00     0.165 HD
ENDROOT
BRANCH   1  11
ATOM     11  CB  TRP d   1      -1.897  -2.575  -0.094  0.00  0.00     0.087 C 
BRANCH  11  12
ATOM     12  CA  TRP d   1      -1.524  -3.459   1.102  0.00  0.00     0.318 C 
BRANCH  12  13
ATOM     13  C   TRP d   1      -2.215  -3.007   2.403  0.00  0.00     0.174 C 
ATOM     14  O   TRP d   1      -3.125  -3.630   2.939  0.00  0.00    -0.648 OA
BRANCH  13  15
ATOM     15  OXT TRP d   1      -1.690  -1.895   2.963  0.00  0.00    -0.775 OA
ATOM     16  HXT TRP d   1      -0.978  -1.475   2.439  0.00  0.00     0.167 HD
ENDBRANCH  13  15
ENDBRANCH  12  13
BRANCH  12  17
ATOM     17  N   TRP d   1      -1.926  -4.864   0.796  0.00  0.00     0.093 N 
ATOM     18  H1  TRP d   1      -2.888  -4.856   0.446  0.00  0.00     0.314 HD
ATOM     19  H2  TRP d   1      -2.015  -5.362   1.689  0.00  0.00     0.314 HD
ENDBRANCH  12  17
ENDBRANCH  11  12
ENDBRANCH   1  11
TORSDOF 5
