REMARK  9 active torsions:
REMARK  status: ('A' for Active; 'I' for Inactive)
REMARK    1  A    between atoms: C_9  and  N_1 
REMARK    2  A    between atoms: S_4  and  N_10 
REMARK    3  A    between atoms: C_19  and  S_4 
REMARK    4  A    between atoms: C_15  and  C_6 
REMARK    5  A    between atoms: C_11  and  C_9 
REMARK    6  A    between atoms: N_10  and  N_16 
REMARK       I    between atoms: N_16  and  C_11 
REMARK    7  A    between atoms: C_12  and  C_17 
REMARK    8  A    between atoms: C_13  and  C_18 
REMARK    9  A    between atoms: C_14  and  C_20 
ROOT
ATOM      1  N   UNL d   1       0.091  -1.098  -0.221  0.00  0.00    -0.203 N 
ATOM      2  N   UNL d   1      -0.272  -0.366  -1.300  0.00  0.00    -0.268 N 
ATOM      3  HN  UNL d   1      -0.755  -0.653  -2.151  1.00  0.00     0.190 HD
ATOM      4  N   UNL d   1       0.787  -0.429   0.715  0.00  0.00    -0.002 NA
ATOM      5  C   UNL d   1       0.184   0.848  -0.934  0.00  0.00     0.144 A 
ATOM      6  N   UNL d   1       0.852   0.814   0.269  0.00  0.00    -0.266 N 
ATOM      7  HN  UNL d   1       1.311   1.600   0.730  1.00  0.00     0.186 HD
ENDROOT
BRANCH   1   8
ATOM      8  C   UNL d   1      -0.209  -2.507  -0.036  0.00  0.00     0.214 C 
ATOM      9  C   UNL d   1       1.038  -3.365   0.181  0.00  0.00     0.046 C 
BRANCH   8  10
ATOM     10  C   UNL d   1      -1.099  -3.066  -1.130  0.00  0.00     0.262 C 
ATOM     11  N   UNL d   1      -0.457  -3.363  -2.326  0.00  0.00    -0.259 N 
ATOM     12  H   UNL d   1       0.524  -3.126  -2.447  0.00  0.00     0.190 HD
ATOM     13  O   UNL d   1      -2.291  -3.252  -0.903  0.00  0.00    -0.269 OA
BRANCH  11  14
ATOM     14  N   UNL d   1      -1.079  -4.029  -3.462  0.00  0.00    -0.220 N 
ATOM     15  H   UNL d   1      -0.532  -4.206  -4.309  0.00  0.00     0.200 HD
BRANCH  14  16
ATOM     16  S   UNL d   1      -2.728  -4.345  -3.711  0.00  0.00     0.276 S 
ATOM     17  O   UNL d   1      -2.804  -4.836  -5.077  0.00  0.00    -0.199 OA
ATOM     18  O   UNL d   1      -3.257  -5.130  -2.622  0.00  0.00    -0.199 OA
BRANCH  16  19
ATOM     19  C   UNL d   1      -3.427  -2.717  -3.730  0.00  0.00     0.081 A 
ATOM     20  C   UNL d   1      -3.038  -1.852  -4.757  0.00  0.00     0.041 A 
ATOM     21  C   UNL d   1      -3.522  -0.540  -4.795  0.00  0.00     0.049 A 
ATOM     22  C   UNL d   1      -4.390  -0.108  -3.780  0.00  0.00     0.016 A 
ATOM     23  C   UNL d   1      -4.792  -0.985  -2.767  0.00  0.00     0.002 A 
ATOM     24  C   UNL d   1      -4.326  -2.299  -2.751  0.00  0.00     0.025 A 
BRANCH  21  25
ATOM     25  C   UNL d   1      -3.030   0.388  -5.875  0.00  0.00     0.417 C 
ATOM     26  F   UNL d   1      -2.811  -0.246  -7.061  0.00  0.00    -0.166 F 
ATOM     27  F   UNL d   1      -3.875   1.415  -6.151  0.00  0.00    -0.166 F 
ATOM     28  F   UNL d   1      -1.835   0.946  -5.534  0.00  0.00    -0.166 F 
ENDBRANCH  21  25
ENDBRANCH  16  19
ENDBRANCH  14  16
ENDBRANCH  11  14
ENDBRANCH   8  10
ENDBRANCH   1   8
BRANCH   5  29
ATOM     29  C   UNL d   1       0.006   2.094  -1.677  0.00  0.00     0.012 A 
ATOM     30  C   UNL d   1      -0.979   2.226  -2.669  0.00  0.00     0.031 A 
ATOM     31  C   UNL d   1      -1.175   3.451  -3.337  0.00  0.00     0.049 A 
ATOM     32  C   UNL d   1      -0.340   4.535  -3.032  0.00  0.00     0.032 A 
ATOM     33  C   UNL d   1       0.639   4.434  -2.037  0.00  0.00     0.049 A 
ATOM     34  C   UNL d   1       0.802   3.210  -1.367  0.00  0.00     0.031 A 
BRANCH  31  35
ATOM     35  C   UNL d   1      -2.271   3.639  -4.360  0.00  0.00     0.417 C 
ATOM     36  F   UNL d   1      -3.335   2.821  -4.143  0.00  0.00    -0.166 F 
ATOM     37  F   UNL d   1      -2.777   4.905  -4.359  0.00  0.00    -0.166 F 
ATOM     38  F   UNL d   1      -1.852   3.412  -5.632  0.00  0.00    -0.166 F 
ENDBRANCH  31  35
BRANCH  33  39
ATOM     39  C   UNL d   1       1.479   5.644  -1.702  0.00  0.00     0.417 C 
ATOM     40  F   UNL d   1       2.272   5.472  -0.611  0.00  0.00    -0.166 F 
ATOM     41  F   UNL d   1       2.306   5.994  -2.723  0.00  0.00    -0.166 F 
ATOM     42  F   UNL d   1       0.715   6.741  -1.444  0.00  0.00    -0.166 F 
ENDBRANCH  33  39
ENDBRANCH   5  29
TORSDOF 9
