REMARK  6 active torsions:
REMARK  status: ('A' for Active; 'I' for Inactive)
REMARK    1  A    between atoms: N_2  and  C_1 
REMARK    2  A    between atoms: N_7  and  C_1 
REMARK    3  A    between atoms: C_8  and  N_2 
REMARK    4  A    between atoms: N_3  and  N_7 
REMARK    5  A    between atoms: C_5  and  C_11 
REMARK    6  A    between atoms: O_14  and  C_10 
ROOT
ATOM      1  N   UNL d   1       2.526   0.233  -0.045  0.00  0.00    -0.276 N 
ATOM      2  H   UNL d   1       3.022   0.371   0.833  0.00  0.00     0.189 HD
ENDROOT
BRANCH   1   3
ATOM      3  N   UNL d   1       3.223  -0.084  -1.178  0.00  0.00    -0.309 N 
ATOM      4  C   UNL d   1       4.514  -0.086  -1.020  0.00  0.00     0.121 C 
ATOM      5  HN  UNL d   1       2.771  -0.299  -2.067  1.00  0.00     0.186 HD
BRANCH   4   6
ATOM      6  C   UNL d   1       5.430  -0.508  -2.098  0.00  0.00     0.014 A 
ATOM      7  C   UNL d   1       4.968  -0.917  -3.354  0.00  0.00     0.077 A 
ATOM      8  C   UNL d   1       5.867  -1.348  -4.326  0.00  0.00     0.037 A 
ATOM      9  C   UNL d   1       7.233  -1.381  -4.044  0.00  0.00     0.003 A 
ATOM     10  C   UNL d   1       7.701  -0.974  -2.794  0.00  0.00     0.001 A 
ATOM     11  C   UNL d   1       6.801  -0.534  -1.820  0.00  0.00     0.015 A 
BRANCH   7  12
ATOM     12  O   UNL d   1       3.643  -0.934  -3.692  0.00  0.00    -0.360 OA
ATOM     13  H   UNL d   1       3.137  -0.697  -2.885  0.00  0.00     0.217 HD
ENDBRANCH   7  12
ENDBRANCH   4   6
ENDBRANCH   1   3
BRANCH   1  14
ATOM     14  C   UNL d   1       1.167   0.012   0.060  0.00  0.00     0.191 C 
ATOM     15  S   UNL d   1       0.487   0.097   1.585  0.00  0.00    -0.039 SA
BRANCH  14  16
ATOM     16  N   UNL d   1       0.541  -0.211  -1.144  0.00  0.00    -0.332 N 
ATOM     17  H   UNL d   1       1.023   0.235  -1.916  0.00  0.00     0.168 HD
BRANCH  16  18
ATOM     18  C   UNL d   1      -0.711  -0.797  -1.412  0.00  0.00     0.035 A 
ATOM     19  C   UNL d   1      -1.255  -1.806  -0.614  0.00  0.00     0.053 A 
ATOM     20  C   UNL d   1      -2.471  -2.394  -0.963  0.00  0.00     0.036 A 
ATOM     21 CL   UNL d   1      -3.111  -3.668   0.002  0.00  0.00    -0.084 Cl
ATOM     22  C   UNL d   1      -3.160  -1.979  -2.100  0.00  0.00     0.024 A 
ATOM     23  C   UNL d   1      -2.616  -0.982  -2.908  0.00  0.00     0.004 A 
ATOM     24  C   UNL d   1      -1.385  -0.408  -2.575  0.00  0.00     0.029 A 
ENDBRANCH  16  18
ENDBRANCH  14  16
ENDBRANCH   1  14
TORSDOF 6
