REMARK  0 active torsions:
REMARK  status: ('A' for Active; 'I' for Inactive)
ROOT
ATOM      1  C   UNL d   1      -2.466  -0.500   0.003  0.00  0.00     0.090 A 
ATOM      2  N   UNL d   1      -1.377  -1.361  -0.009  0.00  0.00    -0.349 N 
ATOM      3  C   UNL d   1      -1.937   0.960   0.032  0.00  0.00     0.035 A 
ATOM      4  C   UNL d   1      -0.436   0.716   0.008  0.00  0.00    -0.017 A 
ATOM      5  C   UNL d   1      -0.183  -0.656  -0.008  0.00  0.00     0.040 A 
ATOM      6  S   UNL d   1      -4.044  -1.016  -0.007  0.00  0.00    -0.064 SA
ATOM      7  C   UNL d   1      -2.382   1.749  -1.202  0.00  0.00     0.027 C 
ATOM      8  C   UNL d   1      -2.340   1.672   1.326  0.00  0.00     0.027 C 
ATOM      9  C   UNL d   1       0.616   1.618   0.005  0.00  0.00     0.011 A 
ATOM     10  C   UNL d   1       1.092  -1.179  -0.021  0.00  0.00     0.030 A 
ATOM     11  C   UNL d   1       1.919   1.111  -0.010  0.00  0.00     0.001 A 
ATOM     12  C   UNL d   1       2.156  -0.275  -0.021  0.00  0.00     0.002 A 
ATOM     13  H   UNL d   1      -1.455  -2.368  -0.025  0.00  0.00     0.166 HD
ENDROOT
TORSDOF 0
