REMARK  4 active torsions:
REMARK  status: ('A' for Active; 'I' for Inactive)
REMARK       I    between atoms: N_2  and  C_1 
REMARK    1  A    between atoms: C_8  and  C_1 
REMARK    2  A    between atoms: C_9  and  N_2 
REMARK    3  A    between atoms: C_3  and  S_6 
REMARK    4  A    between atoms: S_6  and  C_8 
ROOT
ATOM      1  C   UNL d   1       1.101  -0.150   0.182  0.00  0.00     0.231 C 
ATOM      2  N   UNL d   1       0.442   0.925   0.748  0.00  0.00    -0.327 N 
ATOM      3  O   UNL d   1       0.548  -1.137  -0.308  0.00  0.00    -0.272 OA
ATOM      4  H   UNL d   1       1.020   1.713   1.019  0.00  0.00     0.169 HD
ENDROOT
BRANCH   1   5
ATOM      5  C   UNL d   1       2.609  -0.038   0.071  0.00  0.00     0.184 C 
BRANCH   5   6
ATOM      6  S   UNL d   1       3.409   0.779   1.484  0.00  0.00    -0.103 SA
BRANCH   6   7
ATOM      7  C   UNL d   1       5.105   0.333   1.127  0.00  0.00     0.069 A 
ATOM      8  N   UNL d   1       5.363  -0.247  -0.067  0.00  0.00    -0.361 N 
ATOM      9  C   UNL d   1       6.635  -0.620  -0.323  0.00  0.00     0.089 A 
ATOM     10  HN  UNL d   1       4.621  -0.398  -0.750  1.00  0.00     0.165 HD
ATOM     11  C   UNL d   1       7.683  -0.425   0.558  0.00  0.00     0.017 A 
ATOM     12  C   UNL d   1       7.407   0.189   1.774  0.00  0.00     0.004 A 
ATOM     13  C   UNL d   1       6.099   0.575   2.067  0.00  0.00     0.037 A 
ENDBRANCH   6   7
ENDBRANCH   5   6
ENDBRANCH   1   5
BRANCH   2  14
ATOM     14  C   UNL d   1      -0.944   1.023   1.007  0.00  0.00     0.034 A 
ATOM     15  C   UNL d   1      -1.837  -0.043   0.838  0.00  0.00     0.031 A 
ATOM     16  C   UNL d   1      -3.194   0.098   1.148  0.00  0.00     0.021 A 
ATOM     17  C   UNL d   1      -3.670   1.312   1.626  0.00  0.00     0.011 A 
ATOM     18  C   UNL d   1      -2.802   2.388   1.789  0.00  0.00     0.021 A 
ATOM     19 BR   UNL d   1      -5.498   1.491   2.066  0.00  0.00    -0.051 Br
ATOM     20  C   UNL d   1      -1.442   2.241   1.485  0.00  0.00     0.031 A 
ENDBRANCH   2  14
TORSDOF 4
