REMARK  1 active torsions:
REMARK  status: ('A' for Active; 'I' for Inactive)
REMARK    1  A    between atoms: C_5  and  C_1 
ROOT
ATOM      1  C   UNL d   1      -1.374   0.663  -0.029  0.00  0.00    -0.012 C 
ATOM      2  C   UNL d   1       0.687   0.275   1.096  0.00  0.00     0.015 C 
ATOM      3  C   UNL d   1      -0.787   0.609   1.399  0.00  0.00     0.034 C 
ATOM      4  C   UNL d   1      -0.250   1.426  -0.805  0.00  0.00     0.016 C 
ATOM      5  C   UNL d   1       0.996   1.385   0.085  0.00  0.00     0.021 C 
ATOM      6  I   UNL d   1       1.903   0.428   2.825  0.00  0.00    -0.079 I 
ATOM      7  C   UNL d   1      -1.499  -0.810  -0.531  0.00  0.00     0.014 C 
ATOM      8  C   UNL d   1       0.854  -1.106   0.403  0.00  0.00     0.020 C 
ATOM      9  C   UNL d   1      -0.481  -1.772   0.089  0.00  0.00     0.002 C 
ENDROOT
BRANCH   1  10
ATOM     10  C   UNL d   1      -2.705   1.375  -0.233  0.00  0.00    -0.049 A 
ATOM     11  C   UNL d   1      -3.451   1.920   0.822  0.00  0.00     0.008 A 
ATOM     12  C   UNL d   1      -4.657   2.585   0.576  0.00  0.00     0.001 A 
ATOM     13  C   UNL d   1      -5.144   2.708  -0.727  0.00  0.00     0.000 A 
ATOM     14  C   UNL d   1      -4.425   2.166  -1.784  0.00  0.00     0.001 A 
ATOM     15  C   UNL d   1      -3.219   1.509  -1.539  0.00  0.00     0.008 A 
ENDBRANCH   1  10
TORSDOF 1
