REMARK  0 active torsions:
REMARK  status: ('A' for Active; 'I' for Inactive)
ROOT
ATOM      1  N   UNL d   1      -0.166  -0.672   0.003  0.00  0.00    -0.240 N 
ATOM      2  C   UNL d   1      -0.103   0.715   0.000  0.00  0.00     0.143 A 
ATOM      3  C   UNL d   1       1.011  -1.418   0.001  0.00  0.00     0.071 A 
ATOM      4  C   UNL d   1       2.162  -0.710  -0.003  0.00  0.00     0.153 A 
ATOM      5  N   UNL d   1       1.102   1.349  -0.003  0.00  0.00    -0.283 N 
ATOM      6  HN  UNL d   1       1.141   2.368  -0.004  1.00  0.00     0.188 HD
ATOM      7  N   UNL d   1      -1.453  -1.107   0.006  0.00  0.00    -0.297 N 
ATOM      8  HN  UNL d   1      -1.780  -2.072   0.010  1.00  0.00     0.187 HD
ATOM      9  N   UNL d   1       2.169   0.677  -0.004  0.00  0.00    -0.287 N 
ATOM     10  HN  UNL d   1       3.063   1.168  -0.007  1.00  0.00     0.188 HD
ATOM     11  C   UNL d   1      -1.401   1.167   0.000  0.00  0.00     0.077 A 
ATOM     12  C   UNL d   1      -2.197   0.004   0.004  0.00  0.00     0.026 A 
ATOM     13  C   UNL d   1       3.432  -1.368  -0.007  0.00  0.00     0.121 C 
ATOM     14  N   UNL d   1       4.450  -1.926  -0.011  0.00  0.00    -0.190 NA
ATOM     15  C   UNL d   1       0.928  -2.915   0.004  0.00  0.00     0.074 C 
ATOM     16  C   UNL d   1      -3.678  -0.081   0.004  0.00  0.00     0.070 C 
ENDROOT
TORSDOF 0
