REMARK  3 active torsions:
REMARK  status: ('A' for Active; 'I' for Inactive)
REMARK    1  A    between atoms: C_3  and  C_1 
REMARK    2  A    between atoms: N_4  and  C_2 
REMARK       I    between atoms: C_5  and  N_6 
REMARK    3  A    between atoms: C_14  and  C_5 
ROOT
ATOM      1  N   UNL d   1      -1.271   2.468   0.434  0.00  0.00    -0.266 NA
ATOM      2  C   UNL d   1      -3.728   5.920   0.797  0.00  0.00     0.253 C 
ATOM      3  N   UNL d   1      -2.880   4.828   0.634  0.00  0.00    -0.346 N 
ATOM      4  C   UNL d   1      -1.292   3.427  -0.687  0.00  0.00     0.117 C 
ATOM      5  C   UNL d   1      -2.591   2.386   1.099  0.00  0.00     0.117 C 
ATOM      6  C   UNL d   1      -2.956   3.772   1.661  0.00  0.00     0.141 C 
ATOM      7  C   UNL d   1      -1.607   4.827  -0.117  0.00  0.00     0.141 C 
ATOM      8  O   UNL d   1      -4.531   5.995   1.731  0.00  0.00    -0.267 OA
ENDROOT
BRANCH   1   9
ATOM      9  C   UNL d   1      -0.713   1.224   0.146  0.00  0.00     0.097 A 
ATOM     10  C   UNL d   1      -0.057   0.495   1.139  0.00  0.00     0.086 A 
ATOM     11  C   UNL d   1       0.499  -0.753   0.797  0.00  0.00     0.021 A 
ATOM     12  C   UNL d   1       0.408  -1.225  -0.503  0.00  0.00     0.018 A 
ATOM     13  C   UNL d   1      -0.241  -0.432  -1.424  0.00  0.00     0.089 A 
ATOM     14  N   UNL d   1      -0.791   0.766  -1.127  0.00  0.00    -0.356 N 
ATOM     15  HN  UNL d   1      -1.257   1.316  -1.848  1.00  0.00     0.166 HD
BRANCH  10  16
ATOM     16  C   UNL d   1       0.111   0.978   2.551  0.00  0.00     0.420 C 
ATOM     17  F   UNL d   1      -0.241   2.265   2.820  0.00  0.00    -0.166 F 
ATOM     18  F   UNL d   1      -0.612   0.218   3.428  0.00  0.00    -0.166 F 
ATOM     19  F   UNL d   1       1.406   0.871   2.976  0.00  0.00    -0.166 F 
ENDBRANCH  10  16
ENDBRANCH   1   9
BRANCH   2  20
ATOM     20  C   UNL d   1      -3.721   7.050  -0.169  0.00  0.00     0.032 A 
ATOM     21  C   UNL d   1      -3.619   6.853  -1.550  0.00  0.00     0.017 A 
ATOM     22  C   UNL d   1      -3.647   7.950  -2.416  0.00  0.00     0.001 A 
ATOM     23  C   UNL d   1      -3.832   9.237  -1.911  0.00  0.00     0.000 A 
ATOM     24  C   UNL d   1      -3.993   9.432  -0.540  0.00  0.00     0.001 A 
ATOM     25  C   UNL d   1      -3.937   8.342   0.329  0.00  0.00     0.017 A 
ENDBRANCH   2  20
TORSDOF 3
