REMARK  4 active torsions:
REMARK  status: ('A' for Active; 'I' for Inactive)
REMARK    1  A    between atoms: C_18  and  N_7 
REMARK    2  A    between atoms: O_12  and  C_8 
REMARK    3  A    between atoms: S_9  and  O_12 
REMARK    4  A    between atoms: C_13  and  S_9 
ROOT
ATOM      1  C   UNL d   1       0.033   0.729  -0.061  0.00  0.00     0.140 A 
ATOM      2  C   UNL d   1      -0.020  -0.632  -0.078  0.00  0.00     0.112 A 
ATOM      3  N   UNL d   1       1.294   1.341   0.120  0.00  0.00    -0.288 N 
ATOM      4  N   UNL d   1       2.430  -0.718  -0.078  0.00  0.00    -0.270 N 
ATOM      5  C   UNL d   1       2.506   0.648   0.014  0.00  0.00     0.332 C 
ATOM      6  C   UNL d   1       1.254  -1.417  -0.000  0.00  0.00     0.268 C 
ATOM      7  N   UNL d   1      -1.198   1.452  -0.174  0.00  0.00    -0.263 N 
ATOM      8  C   UNL d   1      -1.294  -1.351  -0.152  0.00  0.00     0.114 A 
ATOM      9  C   UNL d   1      -2.439   0.790  -0.317  0.00  0.00     0.256 A 
ATOM     10  C   UNL d   1      -2.436  -0.676  -0.283  0.00  0.00     0.114 A 
ATOM     11  O   UNL d   1       3.593   1.230   0.035  0.00  0.00    -0.246 OA
ATOM     12  O   UNL d   1       1.250  -2.644   0.116  0.00  0.00    -0.267 OA
ATOM     13  O   UNL d   1      -3.536   1.326  -0.470  0.00  0.00    -0.268 OA
ATOM     14  C   UNL d   1       1.486   2.740   0.479  0.00  0.00     0.163 C 
ATOM     15  C   UNL d   1       3.659  -1.495  -0.067  0.00  0.00     0.164 C 
ENDROOT
BRANCH   8  16
ATOM     16  O   UNL d   1      -1.240  -2.721   0.049  0.00  0.00    -0.228 OA
BRANCH  16  17
ATOM     17  S   UNL d   1      -2.260  -3.814  -0.607  0.00  0.00     0.303 S 
ATOM     18  O   UNL d   1      -3.611  -3.502  -0.169  0.00  0.00    -0.193 OA
ATOM     19  O   UNL d   1      -1.946  -3.954  -2.016  0.00  0.00    -0.193 OA
BRANCH  17  20
ATOM     20  C   UNL d   1      -1.842  -5.358   0.177  0.00  0.00     0.086 A 
ATOM     21  C   UNL d   1      -2.841  -6.322   0.346  0.00  0.00     0.026 A 
ATOM     22  C   UNL d   1      -2.563  -7.489   1.060  0.00  0.00     0.008 A 
ATOM     23  C   UNL d   1      -1.293  -7.695   1.616  0.00  0.00    -0.062 A 
ATOM     24  C   UNL d   1      -0.294  -6.732   1.417  0.00  0.00     0.008 A 
ATOM     25  C   UNL d   1      -1.024  -8.927   2.431  0.00  0.00     0.048 C 
ATOM     26  C   UNL d   1      -0.565  -5.563   0.701  0.00  0.00     0.026 A 
ENDBRANCH  17  20
ENDBRANCH  16  17
ENDBRANCH   8  16
BRANCH   7  27
ATOM     27  C   UNL d   1      -1.338   2.879  -0.281  0.00  0.00     0.044 A 
ATOM     28  C   UNL d   1      -2.140   3.566   0.648  0.00  0.00     0.030 A 
ATOM     29  C   UNL d   1      -2.333   4.943   0.546  0.00  0.00     0.002 A 
ATOM     30  C   UNL d   1      -1.730   5.649  -0.492  0.00  0.00     0.000 A 
ATOM     31  C   UNL d   1      -0.949   4.977  -1.432  0.00  0.00     0.002 A 
ATOM     32  C   UNL d   1      -0.764   3.595  -1.339  0.00  0.00     0.030 A 
ENDBRANCH   7  27
TORSDOF 4
