REMARK  8 active torsions:
REMARK  status: ('A' for Active; 'I' for Inactive)
REMARK    1  A    between atoms: C_5  and  C_1 
REMARK    2  A    between atoms: C_6  and  C_1 
REMARK    3  A    between atoms: N_3  and  C_2 
REMARK    4  A    between atoms: C_4  and  N_3 
REMARK    5  A    between atoms: O_12  and  C_5 
REMARK    6  A    between atoms: O_11  and  C_6 
REMARK    7  A    between atoms: C_19  and  O_11 
REMARK    8  A    between atoms: C_18  and  O_12 
ROOT
ATOM      1  C   UNL d   1       1.124  -0.028  -0.029  0.00  0.00     0.129 C 
ATOM      2  C   UNL d   1       0.459  -1.065   0.519  0.00  0.00     0.112 C 
ENDROOT
BRANCH   1   3
ATOM      3  C   UNL d   1       0.382   1.087  -0.676  0.00  0.00     0.300 C 
ATOM      4  O   UNL d   1       0.840   1.850  -1.511  0.00  0.00    -0.259 OA
BRANCH   3   5
ATOM      5  O   UNL d   1      -0.833   1.238  -0.079  0.00  0.00    -0.318 OA
BRANCH   5   6
ATOM      6  C   UNL d   1      -1.440   2.532  -0.224  0.00  0.00     0.174 C 
ATOM      7  C   UNL d   1      -1.019   3.380   0.964  0.00  0.00     0.034 C 
ENDBRANCH   5   6
ENDBRANCH   3   5
ENDBRANCH   1   3
BRANCH   1   8
ATOM      8  C   UNL d   1       2.596   0.026   0.130  0.00  0.00     0.300 C 
ATOM      9  O   UNL d   1       3.210  -0.599   0.991  0.00  0.00    -0.259 OA
BRANCH   8  10
ATOM     10  O   UNL d   1       3.151   0.899  -0.737  0.00  0.00    -0.318 OA
BRANCH  10  11
ATOM     11  C   UNL d   1       4.462   1.372  -0.403  0.00  0.00     0.174 C 
ATOM     12  C   UNL d   1       4.303   2.578   0.507  0.00  0.00     0.034 C 
ENDBRANCH  10  11
ENDBRANCH   8  10
ENDBRANCH   1   8
BRANCH   2  13
ATOM     13  N   UNL d   1       0.969  -2.101   1.270  0.00  0.00    -0.361 N 
ATOM     14  H   UNL d   1       1.942  -1.983   1.579  0.00  0.00     0.165 HD
BRANCH  13  15
ATOM     15  C   UNL d   1       0.287  -3.177   1.874  0.00  0.00     0.093 A 
ATOM     16  C   UNL d   1      -0.928  -3.689   1.391  0.00  0.00     0.144 A 
ATOM     17  F   UNL d   1      -1.473  -3.208   0.263  0.00  0.00    -0.204 F 
ATOM     18  C   UNL d   1      -1.595  -4.738   2.028  0.00  0.00     0.045 A 
ATOM     19  C   UNL d   1      -1.067  -5.297   3.188  0.00  0.00     0.005 A 
ATOM     20  C   UNL d   1       0.130  -4.806   3.704  0.00  0.00     0.026 A 
ATOM     21  C   UNL d   1       0.797  -3.762   3.053  0.00  0.00     0.063 A 
ATOM     22 CL   UNL d   1       2.274  -3.189   3.756  0.00  0.00    -0.082 Cl
ENDBRANCH  13  15
ENDBRANCH   2  13
TORSDOF 8
