REMARK  3 active torsions:
REMARK  status: ('A' for Active; 'I' for Inactive)
REMARK    1  A    between atoms: C_10  and  C_3 
REMARK    2  A    between atoms: N_7  and  C_9 
REMARK    3  A    between atoms: C_18  and  C_8 
ROOT
ATOM      1  N   UNL d   1       1.571  -0.068  -0.003  0.00  0.00    -0.331 N 
ATOM      2  HN  UNL d   1       2.515  -0.453  -0.035  1.00  0.00     0.168 HD
ATOM      3  C   UNL d   1       1.205   1.173   0.030  0.00  0.00     0.162 A 
ATOM      4  C   UNL d   1       0.374  -0.740   0.018  0.00  0.00     0.111 A 
ATOM      5  O   UNL d   1      -0.120   1.438   0.067  0.00  0.00    -0.256 OA
ATOM      6  C   UNL d   1      -0.758   0.233   0.063  0.00  0.00     0.316 A 
ATOM      7  C   UNL d   1       0.284  -2.075  -0.003  0.00  0.00     0.047 C 
ATOM      8  O   UNL d   1      -1.958   0.051   0.097  0.00  0.00    -0.257 OA
ENDROOT
BRANCH   3   9
ATOM      9  C   UNL d   1       2.091   2.349   0.040  0.00  0.00     0.015 A 
ATOM     10  C   UNL d   1       3.474   2.155  -0.083  0.00  0.00     0.018 A 
ATOM     11  C   UNL d   1       4.348   3.246  -0.037  0.00  0.00     0.037 A 
ATOM     12  C   UNL d   1       3.832   4.537   0.136  0.00  0.00     0.102 A 
ATOM     13  C   UNL d   1       2.449   4.742   0.245  0.00  0.00     0.037 A 
ATOM     14  C   UNL d   1       1.581   3.646   0.195  0.00  0.00     0.018 A 
BRANCH  12  15
ATOM     15  N   UNL d   1       4.747   5.684   0.217  0.00  0.00    -0.116 N 
ATOM     16  O   UNL d   1       5.962   5.458   0.124  0.00  0.00    -0.532 OA
ATOM     17  O   UNL d   1       4.249   6.806   0.378  0.00  0.00    -0.532 OA
ENDBRANCH  12  15
ENDBRANCH   3   9
BRANCH   7  18
ATOM     18  C   UNL d   1      -0.955  -2.850  -0.008  0.00  0.00    -0.034 A 
ATOM     19  C   UNL d   1      -1.542  -3.214  -1.226  0.00  0.00     0.013 A 
ATOM     20  C   UNL d   1      -2.712  -3.976  -1.243  0.00  0.00     0.024 A 
ATOM     21  C   UNL d   1      -3.296  -4.374  -0.042  0.00  0.00     0.034 A 
ATOM     22  C   UNL d   1      -2.721  -4.014   1.176  0.00  0.00     0.024 A 
ATOM     23 CL   UNL d   1      -4.732  -5.322  -0.063  0.00  0.00    -0.084 Cl
ATOM     24  C   UNL d   1      -1.550  -3.251   1.194  0.00  0.00     0.013 A 
ENDBRANCH   7  18
TORSDOF 3
