REMARK  3 active torsions:
REMARK  status: ('A' for Active; 'I' for Inactive)
REMARK    1  A    between atoms: N_2  and  C_5 
REMARK    2  A    between atoms: N_6  and  N_2 
REMARK    3  A    between atoms: C_4  and  N_6 
ROOT
ATOM      1  C   UNL d   1      -0.033   0.775   0.078  0.00  0.00     0.023 A 
ATOM      2  C   UNL d   1      -1.321   1.512   0.082  0.00  0.00     0.041 C 
ATOM      3  C   UNL d   1      -0.056  -0.621  -0.009  0.00  0.00     0.081 A 
ATOM      4  C   UNL d   1       1.187   1.459   0.129  0.00  0.00     0.040 A 
ATOM      5  O   UNL d   1      -1.203  -1.367  -0.072  0.00  0.00    -0.350 OA
ATOM      6  C   UNL d   1       1.142  -1.333  -0.066  0.00  0.00     0.039 A 
ATOM      7  C   UNL d   1       2.378   0.739   0.077  0.00  0.00     0.035 A 
ATOM      8  C   UNL d   1      -2.510   0.678  -0.327  0.00  0.00     0.086 C 
ATOM      9  C   UNL d   1      -2.368  -0.663   0.370  0.00  0.00     0.181 C 
ATOM     10  C   UNL d   1       2.362  -0.654  -0.020  0.00  0.00     0.026 A 
ATOM     11 CL   UNL d   1       3.882   1.571   0.117  0.00  0.00    -0.084 Cl
ENDROOT
BRANCH   2  12
ATOM     12  N   UNL d   1      -1.322   2.772   0.408  0.00  0.00    -0.302 N 
ATOM     13  HN  UNL d   1      -0.447   3.236   0.652  1.00  0.00     0.186 HD
BRANCH  12  14
ATOM     14  N   UNL d   1      -2.490   3.471   0.423  0.00  0.00    -0.276 N 
ATOM     15  H   UNL d   1      -3.373   3.050   0.165  0.00  0.00     0.189 HD
BRANCH  14  16
ATOM     16  C   UNL d   1      -2.513   4.787   0.800  0.00  0.00     0.184 C 
ATOM     17  S   UNL d   1      -3.915   5.672   0.848  0.00  0.00    -0.040 SA
ATOM     18  N   UNL d   1      -1.316   5.322   1.134  0.00  0.00    -0.375 N 
ATOM     19  H   UNL d   1      -0.504   4.723   1.056  0.00  0.00     0.158 HD
ATOM     20  H   UNL d   1      -1.224   6.291   1.402  0.00  0.00     0.158 HD
ENDBRANCH  14  16
ENDBRANCH  12  14
ENDBRANCH   2  12
TORSDOF 3
