REMARK  2 active torsions:
REMARK  status: ('A' for Active; 'I' for Inactive)
REMARK    1  A    between atoms: C_8  and  C_2 
REMARK    2  A    between atoms: S_14  and  C_3 
ROOT
ATOM      1  C   UNL d   1      -0.664   1.332  -0.083  0.00  0.00     0.101 A 
ATOM      2  C   UNL d   1      -1.362   0.129  -0.002  0.00  0.00     0.038 A 
ATOM      3  C   UNL d   1       0.721   1.254  -0.051  0.00  0.00     0.093 A 
ATOM      4  N   UNL d   1       1.377   0.080   0.017  0.00  0.00    -0.340 N 
ATOM      5  HN  UNL d   1       2.396   0.042   0.038  1.00  0.00     0.167 HD
ATOM      6  N   UNL d   1      -0.701  -1.054   0.059  0.00  0.00    -0.348 N 
ATOM      7  HN  UNL d   1      -1.211  -1.937   0.107  1.00  0.00     0.167 HD
ATOM      8  C   UNL d   1       0.640  -1.035   0.055  0.00  0.00     0.078 A 
ATOM      9  C   UNL d   1      -1.363   2.571  -0.225  0.00  0.00     0.104 C 
ATOM     10  N   UNL d   1      -1.956   3.558  -0.352  0.00  0.00    -0.191 NA
ATOM     11  C   UNL d   1       1.364  -2.344   0.046  0.00  0.00     0.089 C 
ENDROOT
BRANCH   2  12
ATOM     12  C   UNL d   1      -2.882   0.054  -0.026  0.00  0.00     0.037 A 
ATOM     13  C   UNL d   1      -3.704   0.619   1.111  0.00  0.00     0.011 A 
ATOM     14  C   UNL d   1      -3.615  -0.865   0.930  0.00  0.00     0.011 A 
ENDBRANCH   2  12
BRANCH   3  15
ATOM     15  S   UNL d   1       1.768   2.712  -0.113  0.00  0.00    -0.115 SA
ATOM     16  C   UNL d   1       3.420   1.963   0.034  0.00  0.00     0.097 C 
ENDBRANCH   3  15
TORSDOF 2
