REMARK  8 active torsions:
REMARK  status: ('A' for Active; 'I' for Inactive)
REMARK    1  A    between atoms: N_8  and  C_23 
REMARK    2  A    between atoms: C_22  and  N_8 
REMARK    3  A    between atoms: O_9  and  C_14 
REMARK    4  A    between atoms: C_10  and  O_9 
REMARK    5  A    between atoms: C_23  and  C_11 
REMARK    6  A    between atoms: C_12  and  C_22 
REMARK    7  A    between atoms: C_14  and  C_12 
REMARK    8  A    between atoms: O_21  and  C_12 
ROOT
ATOM      1  C   UNL d   1       5.870  -1.226  -0.060  0.00  0.00     0.303 C 
ENDROOT
BRANCH   1   2
ATOM      2  C   UNL d   1       7.064  -0.246   0.001  0.00  0.00     0.170 C 
BRANCH   2   3
ATOM      3  C   UNL d   1       7.002   0.679   1.232  0.00  0.00     0.209 C 
BRANCH   3   4
ATOM      4  O   UNL d   1       8.111   1.585   1.213  0.00  0.00    -0.349 OA
BRANCH   4   5
ATOM      5  C   UNL d   1       8.215   2.421   2.292  0.00  0.00     0.069 A 
ATOM      6  C   UNL d   1       9.513   2.850   2.584  0.00  0.00     0.038 A 
ATOM      7  C   UNL d   1       9.751   3.707   3.660  0.00  0.00     0.022 A 
ATOM      8  C   UNL d   1       8.685   4.150   4.437  0.00  0.00     0.011 A 
ATOM      9  C   UNL d   1       7.383   3.752   4.138  0.00  0.00     0.022 A 
ATOM     10 BR   UNL d   1       9.001   5.302   5.901  0.00  0.00    -0.051 Br
ATOM     11  C   UNL d   1       7.148   2.887   3.063  0.00  0.00     0.038 A 
ENDBRANCH   4   5
ENDBRANCH   3   4
ENDBRANCH   2   3
BRANCH   2  12
ATOM     12  O   UNL d   1       8.276  -1.017  -0.000  0.00  0.00    -0.392 OA
ATOM     13  H   UNL d   1       8.373  -1.438   0.870  0.00  0.00     0.210 HD
ENDBRANCH   2  12
ENDBRANCH   1   2
BRANCH   1  14
ATOM     14  N   UNL d   1       4.574  -0.553  -0.127  0.00  0.00     0.090 N 
ATOM     15  H   UNL d   1       4.407   0.003   0.710  0.00  0.00     0.316 HD
BRANCH  14  16
ATOM     16  C   UNL d   1       3.467  -1.501  -0.255  0.00  0.00     0.308 C 
BRANCH  16  17
ATOM     17  C   UNL d   1       2.154  -0.751  -0.285  0.00  0.00    -0.028 A 
ATOM     18  C   UNL d   1       1.199  -0.934   0.728  0.00  0.00     0.048 A 
ATOM     19  C   UNL d   1       0.034  -0.196   0.662  0.00  0.00     0.105 A 
ATOM     20  C   UNL d   1      -0.207   0.697  -0.355  0.00  0.00     0.105 A 
ATOM     21  O   UNL d   1      -0.985  -0.244   1.562  0.00  0.00    -0.323 OA
ATOM     22  O   UNL d   1      -1.407   1.323  -0.224  0.00  0.00    -0.323 OA
ATOM     23  C   UNL d   1       0.702   0.903  -1.368  0.00  0.00     0.040 A 
ATOM     24  C   UNL d   1      -1.891   0.727   0.996  0.00  0.00     0.352 A 
ATOM     25  C   UNL d   1       1.892   0.170  -1.330  0.00  0.00     0.012 A 
ENDBRANCH  16  17
ENDBRANCH  14  16
ENDBRANCH   1  14
TORSDOF 8
