REMARK  7 active torsions:
REMARK  status: ('A' for Active; 'I' for Inactive)
REMARK    1  A    between atoms: C_5  and  C_1 
REMARK    2  A    between atoms: C_7  and  C_1 
REMARK    3  A    between atoms: C_3  and  C_2 
REMARK    4  A    between atoms: O_15  and  C_5 
REMARK    5  A    between atoms: O_14  and  C_6 
REMARK    6  A    between atoms: N_8  and  C_7 
REMARK    7  A    between atoms: C_16  and  O_15 
ROOT
ATOM      1  C   UNL d   1       1.015  -0.051  -0.085  0.00  0.00     0.102 C 
ATOM      2  C   UNL d   1       0.314  -0.590  -1.101  0.00  0.00     0.046 C 
ENDROOT
BRANCH   1   3
ATOM      3  C   UNL d   1       0.291   0.650   0.995  0.00  0.00     0.302 C 
ATOM      4  O   UNL d   1      -0.916   0.822   1.013  0.00  0.00    -0.259 OA
BRANCH   3   5
ATOM      5  O   UNL d   1       1.183   1.152   1.884  0.00  0.00    -0.317 OA
BRANCH   5   6
ATOM      6  C   UNL d   1       0.695   2.189   2.744  0.00  0.00     0.174 C 
ATOM      7  C   UNL d   1       0.879   3.517   2.030  0.00  0.00     0.034 C 
ENDBRANCH   5   6
ENDBRANCH   3   5
ENDBRANCH   1   3
BRANCH   1   8
ATOM      8  C   UNL d   1       2.535  -0.051  -0.085  0.00  0.00    -0.031 C 
BRANCH   8   9
ATOM      9  N   UNL d   1       3.796  -0.051  -0.085  0.00  0.00    -0.365 N 
ATOM     10  HN2 UNL d   1       2.776  -0.051  -0.085  1.00  0.00     0.165 HD
ATOM     11  HN1 UNL d   1       4.816  -0.051  -0.085  1.00  0.00     0.165 HD
ENDBRANCH   8   9
ENDBRANCH   1   8
BRANCH   2  12
ATOM     12  C   UNL d   1       0.955  -1.175  -2.228  0.00  0.00     0.009 A 
ATOM     13  S   UNL d   1       1.206  -2.868  -2.304  0.00  0.00    -0.066 SA
ATOM     14  C   UNL d   1       1.995  -2.784  -3.827  0.00  0.00     0.109 A 
ATOM     15  C   UNL d   1       2.046  -1.478  -4.274  0.00  0.00     0.046 A 
ATOM     16  C   UNL d   1       1.445  -0.557  -3.364  0.00  0.00     0.022 A 
BRANCH  14  17
ATOM     17  O   UNL d   1       2.435  -3.929  -4.364  0.00  0.00    -0.349 OA
ATOM     18  C   UNL d   1       3.022  -3.842  -5.656  0.00  0.00     0.211 C 
ENDBRANCH  14  17
ENDBRANCH   2  12
TORSDOF 7
