REMARK  1 active torsions:
REMARK  status: ('A' for Active; 'I' for Inactive)
REMARK    1  A    between atoms: C_14  and  C_5 
ROOT
ATOM      1  N   UNL d   1       6.823   4.915   0.159  0.00  0.00    -0.191 NA
ATOM      2  C   UNL d   1       5.908   4.206   0.108  0.00  0.00     0.099 C 
ATOM      3  C   UNL d   1       2.506   1.654  -0.013  0.00  0.00    -0.009 A 
ATOM      4  C   UNL d   1       2.472   2.924  -0.608  0.00  0.00     0.015 A 
ATOM      5  C   UNL d   1       3.696   1.227   0.595  0.00  0.00     0.015 A 
ATOM      6  C   UNL d   1       4.768   3.336   0.052  0.00  0.00     0.044 A 
ATOM      7  C   UNL d   1       4.819   2.064   0.630  0.00  0.00     0.023 A 
ATOM      8  C   UNL d   1       3.593   3.760  -0.575  0.00  0.00     0.023 A 
ENDROOT
BRANCH   3   9
ATOM      9  C   UNL d   1       1.335   0.782  -0.019  0.00  0.00     0.050 A 
ATOM     10  N   UNL d   1       1.454  -0.600   0.007  0.00  0.00    -0.347 N 
ATOM     11  C   UNL d   1       0.256  -1.154  -0.016  0.00  0.00     0.111 A 
ATOM     12  HN  UNL d   1       2.335  -1.112   0.040  1.00  0.00     0.167 HD
ATOM     13  C   UNL d   1       0.056  -2.574   0.008  0.00  0.00     0.134 A 
ATOM     14  S   UNL d   1      -1.065  -0.059  -0.058  0.00  0.00    -0.079 SA
ATOM     15  O   UNL d   1      -1.181  -3.166  -0.039  0.00  0.00    -0.236 OA
ATOM     16  C   UNL d   1       0.999  -3.579   0.088  0.00  0.00     0.061 A 
ATOM     17  N   UNL d   1      -1.053  -4.543   0.009  0.00  0.00    -0.272 N 
ATOM     18  C   UNL d   1       0.257  -4.771   0.084  0.00  0.00     0.117 A 
ATOM     19  HN  UNL d   1      -1.802  -5.235  -0.010  1.00  0.00     0.194 HD
ATOM     20  C   UNL d   1       0.035   1.251  -0.023  0.00  0.00     0.082 A 
ENDBRANCH   3   9
TORSDOF 1
