REMARK  2 active torsions:
REMARK  status: ('A' for Active; 'I' for Inactive)
REMARK    1  A    between atoms: C_8  and  C_3 
REMARK    2  A    between atoms: N_16  and  C_4 
ROOT
ATOM      1  N   UNL d   1       1.466   1.031   0.046  0.00  0.00    -0.330 N 
ATOM      2  HN  UNL d   1       1.896   1.956   0.071  1.00  0.00     0.168 HD
ATOM      3  C   UNL d   1       2.224  -0.086  -0.025  0.00  0.00     0.135 A 
ATOM      4  C   UNL d   1       0.131   0.888   0.081  0.00  0.00     0.101 A 
ATOM      5  C   UNL d   1      -0.476  -0.352   0.057  0.00  0.00     0.098 A 
ATOM      6  N   UNL d   1       1.711  -1.335  -0.074  0.00  0.00    -0.349 N 
ATOM      7  HN  UNL d   1       2.309  -2.159  -0.142  1.00  0.00     0.167 HD
ATOM      8  C   UNL d   1      -1.887  -0.533   0.104  0.00  0.00     0.104 C 
ATOM      9  N   UNL d   1      -3.034  -0.702   0.113  0.00  0.00    -0.191 NA
ATOM     10  C   UNL d   1       0.367  -1.435  -0.028  0.00  0.00     0.115 A 
ENDROOT
BRANCH   4  11
ATOM     11  N   UNL d   1      -0.586   2.074   0.228  0.00  0.00    -0.287 NA
ATOM     12  H   UNL d   1       0.068   2.853   0.158  0.00  0.00     0.125 HD
ATOM     13  H   UNL d   1      -1.373   2.176  -0.403  0.00  0.00     0.125 HD
ENDBRANCH   4  11
BRANCH   3  14
ATOM     14  C   UNL d   1       3.696   0.051  -0.029  0.00  0.00     0.092 A 
ATOM     15  N   UNL d   1       4.236   1.302   0.083  0.00  0.00    -0.360 N 
ATOM     16  C   UNL d   1       5.587   1.379   0.092  0.00  0.00     0.105 A 
ATOM     17  HN  UNL d   1       3.651   2.134   0.156  1.00  0.00     0.165 HD
ATOM     18  C   UNL d   1       6.397   0.264  -0.011  0.00  0.00     0.104 A 
ATOM     19  N   UNL d   1       5.894  -0.982  -0.128  0.00  0.00    -0.372 N 
ATOM     20  C   UNL d   1       4.536  -1.058  -0.132  0.00  0.00     0.121 A 
ATOM     21  HN  UNL d   1       6.489  -1.807  -0.207  1.00  0.00     0.164 HD
ENDBRANCH   3  14
TORSDOF 2
