REMARK  4 active torsions:
REMARK  status: ('A' for Active; 'I' for Inactive)
REMARK       I    between atoms: N_2  and  C_1 
REMARK    1  A    between atoms: C_3  and  C_1 
REMARK    2  A    between atoms: C_7  and  N_2 
REMARK    3  A    between atoms: C_4  and  C_7 
REMARK    4  A    between atoms: O_11  and  C_4 
ROOT
ATOM      1  C   UNL d   1       1.022  -0.026   0.142  0.00  0.00     0.252 C 
ATOM      2  N   UNL d   1       0.332   0.067   1.326  0.00  0.00    -0.347 N 
ATOM      3  O   UNL d   1       2.211  -0.318   0.091  0.00  0.00    -0.268 OA
ATOM      4  H   UNL d   1      -0.681   0.149   1.343  0.00  0.00     0.163 HD
ENDROOT
BRANCH   1   5
ATOM      5  C   UNL d   1       0.244   0.214  -1.104  0.00  0.00     0.032 A 
ATOM      6  C   UNL d   1      -0.872   1.062  -1.129  0.00  0.00     0.018 A 
ATOM      7  C   UNL d   1      -1.562   1.272  -2.327  0.00  0.00     0.025 A 
ATOM      8  C   UNL d   1      -1.137   0.639  -3.495  0.00  0.00     0.034 A 
ATOM      9  C   UNL d   1      -0.023  -0.198  -3.480  0.00  0.00     0.025 A 
ATOM     10 CL   UNL d   1      -1.988   0.904  -4.967  0.00  0.00    -0.084 Cl
ATOM     11  C   UNL d   1       0.672  -0.406  -2.286  0.00  0.00     0.018 A 
ENDBRANCH   1   5
BRANCH   2  12
ATOM     12  C   UNL d   1       0.993  -0.181   2.592  0.00  0.00     0.232 C 
BRANCH  12  13
ATOM     13  C   UNL d   1       0.011  -0.022   3.743  0.00  0.00     0.158 C 
ATOM     14  O   UNL d   1      -1.171   0.263   3.600  0.00  0.00    -0.649 OA
BRANCH  13  15
ATOM     15  O   UNL d   1       0.567  -0.238   4.957  0.00  0.00    -0.775 OA
ATOM     16  H   UNL d   1       1.516  -0.465   4.929  0.00  0.00     0.167 HD
ENDBRANCH  13  15
ENDBRANCH  12  13
ENDBRANCH   2  12
TORSDOF 4
