REMARK  6 active torsions:
REMARK  status: ('A' for Active; 'I' for Inactive)
REMARK    1  A    between atoms: C_2  and  C_1 
REMARK    2  A    between atoms: C_3  and  C_1 
REMARK    3  A    between atoms: N_4  and  C_1 
REMARK    4  A    between atoms: C_6  and  C_1 
REMARK       I    between atoms: C_5  and  N_4 
REMARK    5  A    between atoms: O_14  and  C_5 
REMARK    6  A    between atoms: C_17  and  O_14 
ROOT
ATOM      1  C   UNL d   1       0.833  -0.056   0.086  0.00  0.00     0.258 C 
ENDROOT
BRANCH   1   2
ATOM      2  C   UNL d   1       0.415  -0.787  -1.250  0.00  0.00     0.426 C 
ATOM      3  F   UNL d   1      -0.349  -1.885  -1.111  0.00  0.00    -0.168 F 
ATOM      4  F   UNL d   1      -0.253   0.047  -2.095  0.00  0.00    -0.168 F 
ATOM      5  F   UNL d   1       1.496  -1.185  -1.978  0.00  0.00    -0.168 F 
ENDBRANCH   1   2
BRANCH   1   6
ATOM      6  C   UNL d   1       0.314  -0.884   1.322  0.00  0.00     0.426 C 
ATOM      7  F   UNL d   1      -0.287  -2.054   1.045  0.00  0.00    -0.168 F 
ATOM      8  F   UNL d   1       1.317  -1.189   2.192  0.00  0.00    -0.168 F 
ATOM      9  F   UNL d   1      -0.561  -0.164   2.079  0.00  0.00    -0.168 F 
ENDBRANCH   1   6
BRANCH   1  10
ATOM     10  N   UNL d   1       0.248   1.333   0.133  0.00  0.00    -0.308 N 
ATOM     11  C   UNL d   1      -1.087   1.544  -0.008  0.00  0.00     0.361 C 
ATOM     12  O   UNL d   1      -1.908   0.647  -0.153  0.00  0.00    -0.238 OA
ATOM     13  H   UNL d   1       0.782   2.162   0.330  0.00  0.00     0.166 HD
BRANCH  11  14
ATOM     14  O   UNL d   1      -1.323   2.870  -0.038  0.00  0.00    -0.304 OA
BRANCH  14  15
ATOM     15  C   UNL d   1      -2.607   3.243  -0.556  0.00  0.00     0.176 C 
ATOM     16  C   UNL d   1      -2.512   3.327  -2.070  0.00  0.00     0.034 C 
ENDBRANCH  14  15
ENDBRANCH  11  14
ENDBRANCH   1  10
BRANCH   1  17
ATOM     17  C   UNL d   1       2.399   0.027   0.133  0.00  0.00    -0.012 A 
ATOM     18  C   UNL d   1       3.126   1.231   0.080  0.00  0.00     0.010 A 
ATOM     19  C   UNL d   1       4.524   1.240   0.163  0.00  0.00     0.001 A 
ATOM     20  C   UNL d   1       5.232   0.049   0.276  0.00  0.00     0.000 A 
ATOM     21  C   UNL d   1       4.545  -1.158   0.290  0.00  0.00     0.001 A 
ATOM     22  C   UNL d   1       3.151  -1.170   0.216  0.00  0.00     0.010 A 
ENDBRANCH   1  17
TORSDOF 6
