REMARK  6 active torsions:
REMARK  status: ('A' for Active; 'I' for Inactive)
REMARK    1  A    between atoms: C_3  and  C_1 
REMARK    2  A    between atoms: C_18  and  C_1 
REMARK    3  A    between atoms: C_2  and  C_19 
REMARK    4  A    between atoms: C_4  and  C_2 
REMARK    5  A    between atoms: S_11  and  C_18 
REMARK    6  A    between atoms: C_19  and  S_11 
ROOT
ATOM      1  S   UNL d   1       4.768   1.401  -1.130  0.00  0.00    -0.153 SA
ENDROOT
BRANCH   1   2
ATOM      2  C   UNL d   1       3.203   1.535  -0.197  0.00  0.00     0.158 C 
BRANCH   2   3
ATOM      3  C   UNL d   1       2.123   0.592  -0.721  0.00  0.00     0.168 C 
ATOM      4  O   UNL d   1       2.308  -0.222  -1.625  0.00  0.00    -0.292 OA
BRANCH   3   5
ATOM      5  C   UNL d   1       0.768   0.639  -0.080  0.00  0.00     0.011 A 
ATOM      6  C   UNL d   1      -0.224  -0.229  -0.555  0.00  0.00     0.015 A 
ATOM      7  C   UNL d   1      -1.501  -0.240   0.013  0.00  0.00     0.007 A 
ATOM      8  C   UNL d   1      -1.811   0.624   1.068  0.00  0.00    -0.062 A 
ATOM      9  C   UNL d   1      -0.825   1.495   1.543  0.00  0.00     0.007 A 
ATOM     10  C   UNL d   1      -3.183   0.596   1.677  0.00  0.00     0.048 C 
ATOM     11  C   UNL d   1       0.457   1.507   0.975  0.00  0.00     0.015 A 
ENDBRANCH   3   5
ENDBRANCH   2   3
ENDBRANCH   1   2
BRANCH   1  12
ATOM     12  C   UNL d   1       5.820   2.435  -0.070  0.00  0.00     0.158 C 
BRANCH  12  13
ATOM     13  C   UNL d   1       7.211   2.635  -0.649  0.00  0.00     0.168 C 
ATOM     14  O   UNL d   1       7.566   3.756  -1.024  0.00  0.00    -0.292 OA
BRANCH  13  15
ATOM     15  C   UNL d   1       8.200   1.508  -0.697  0.00  0.00     0.011 A 
ATOM     16  C   UNL d   1       7.905   0.207  -0.276  0.00  0.00     0.015 A 
ATOM     17  C   UNL d   1       8.862  -0.810  -0.395  0.00  0.00     0.007 A 
ATOM     18  C   UNL d   1      10.133  -0.541  -0.914  0.00  0.00    -0.062 A 
ATOM     19  C   UNL d   1      10.441   0.764  -1.306  0.00  0.00     0.007 A 
ATOM     20  C   UNL d   1      11.128  -1.652  -1.079  0.00  0.00     0.048 C 
ATOM     21  C   UNL d   1       9.482   1.778  -1.199  0.00  0.00     0.015 A 
ENDBRANCH  13  15
ENDBRANCH  12  13
ENDBRANCH   1  12
TORSDOF 6
