REMARK  3 active torsions:
REMARK  status: ('A' for Active; 'I' for Inactive)
REMARK    1  A    between atoms: N_2  and  S_1 
REMARK    2  A    between atoms: C_4  and  S_1 
REMARK    3  A    between atoms: C_3  and  C_5 
ROOT
ATOM      1  C   UNL d   1       0.376   0.482   1.596  0.00  0.00     0.075 A 
ATOM      2  C   UNL d   1       0.712   1.349   3.841  0.00  0.00     0.049 A 
ATOM      3  C   UNL d   1       1.236   0.929   2.608  0.00  0.00     0.041 A 
ATOM      4  C   UNL d   1      -1.004   0.422   1.809  0.00  0.00     0.025 A 
ATOM      5  C   UNL d   1      -0.677   1.286   4.046  0.00  0.00     0.016 A 
ATOM      6  C   UNL d   1      -1.528   0.820   3.039  0.00  0.00     0.002 A 
ENDROOT
BRANCH   1   7
ATOM      7  S   UNL d   1       1.018   0.169  -0.034  0.00  0.00     0.243 S 
ATOM      8  O   UNL d   1       0.314   1.066  -0.923  0.00  0.00    -0.206 OA
ATOM      9  O   UNL d   1       2.463   0.171   0.042  0.00  0.00    -0.206 OA
BRANCH   7  10
ATOM     10  N   UNL d   1       0.533  -1.440  -0.403  0.00  0.00    -0.206 NA
ATOM     11  C   UNL d   1       1.210  -2.492   0.412  0.00  0.00     0.107 C 
ATOM     12  C   UNL d   1       0.580  -3.853   0.118  0.00  0.00     0.015 C 
ATOM     13  C   UNL d   1       0.659  -4.194  -1.368  0.00  0.00     0.002 C 
ATOM     14  C   UNL d   1       0.055  -3.074  -2.206  0.00  0.00     0.015 C 
ATOM     15  C   UNL d   1       0.681  -1.725  -1.866  0.00  0.00     0.107 C 
ENDBRANCH   7  10
ENDBRANCH   1   7
BRANCH   2  16
ATOM     16  C   UNL d   1       1.606   1.914   4.920  0.00  0.00     0.417 C 
ATOM     17  F   UNL d   1       2.929   1.895   4.598  0.00  0.00    -0.166 F 
ATOM     18  F   UNL d   1       1.311   3.211   5.211  0.00  0.00    -0.166 F 
ATOM     19  F   UNL d   1       1.497   1.233   6.095  0.00  0.00    -0.166 F 
ENDBRANCH   2  16
TORSDOF 3
