REMARK  3 active torsions:
REMARK  status: ('A' for Active; 'I' for Inactive)
REMARK    1  A    between atoms: C_2  and  C_1 
REMARK    2  A    between atoms: C_10  and  C_4 
REMARK    3  A    between atoms: C_5  and  C_8 
ROOT
ATOM      1  C   UNL d   1      -0.538   2.512  -0.095  0.00  0.00     0.020 A 
ATOM      2  C   UNL d   1      -1.311   3.039   0.962  0.00  0.00     0.032 A 
ATOM      3  C   UNL d   1      -1.737   4.381   0.977  0.00  0.00     0.048 A 
ATOM      4  C   UNL d   1      -0.199   3.375  -1.153  0.00  0.00     0.047 A 
ATOM      5  C   UNL d   1      -1.387   5.210  -0.095  0.00  0.00     0.018 A 
ATOM      6  C   UNL d   1      -0.625   4.711  -1.150  0.00  0.00     0.026 A 
ATOM      7 CL   UNL d   1       0.790   2.898  -2.491  0.00  0.00    -0.083 Cl
ENDROOT
BRANCH   1   8
ATOM      8  C   UNL d   1      -0.124   1.108  -0.032  0.00  0.00     0.088 A 
ATOM      9  O   UNL d   1       0.125   0.618   1.223  0.00  0.00    -0.306 OA
ATOM     10  C   UNL d   1       0.530  -0.682   1.096  0.00  0.00     0.121 A 
ATOM     11  C   UNL d   1       0.525  -1.032  -0.239  0.00  0.00     0.044 A 
ATOM     12  C   UNL d   1       0.091   0.106  -0.958  0.00  0.00     0.041 A 
BRANCH  10  13
ATOM     13  C   UNL d   1       0.888  -1.460   2.265  0.00  0.00     0.179 C 
ATOM     14  O   UNL d   1       1.266  -2.631   2.188  0.00  0.00    -0.291 OA
ATOM     15  C   UNL d   1       0.776  -0.808   3.621  0.00  0.00     0.099 C 
ENDBRANCH  10  13
ENDBRANCH   1   8
BRANCH   3  16
ATOM     16  C   UNL d   1      -2.546   4.939   2.123  0.00  0.00     0.417 C 
ATOM     17  F   UNL d   1      -2.847   4.020   3.080  0.00  0.00    -0.166 F 
ATOM     18  F   UNL d   1      -1.901   5.952   2.766  0.00  0.00    -0.166 F 
ATOM     19  F   UNL d   1      -3.738   5.456   1.713  0.00  0.00    -0.166 F 
ENDBRANCH   3  16
TORSDOF 3
