REMARK  2 active torsions:
REMARK  status: ('A' for Active; 'I' for Inactive)
REMARK    1  A    between atoms: C_2  and  C_1 
REMARK    2  A    between atoms: O_16  and  C_14 
ROOT
ATOM      1  C   UNL d   1       1.219  -1.787  -0.002  0.00  0.00     0.066 A 
ATOM      2  C   UNL d   1      -0.050   0.330   0.006  0.00  0.00     0.093 A 
ATOM      3  C   UNL d   1      -0.070  -1.072  -0.001  0.00  0.00     0.013 A 
ATOM      4  O   UNL d   1       1.157   1.056   0.010  0.00  0.00    -0.275 OA
ATOM      5  C   UNL d   1       2.380   0.416   0.002  0.00  0.00     0.289 A 
ATOM      6  C   UNL d   1       2.345  -1.052   0.001  0.00  0.00     0.099 A 
ATOM      7  C   UNL d   1      -1.214   1.102   0.008  0.00  0.00     0.074 A 
ATOM      8  C   UNL d   1      -1.333  -1.682  -0.008  0.00  0.00     0.018 A 
ATOM      9  O   UNL d   1       3.445   1.017  -0.002  0.00  0.00    -0.260 OA
ATOM     10  C   UNL d   1      -2.442   0.464   0.003  0.00  0.00     0.068 A 
ATOM     11  C   UNL d   1      -2.512  -0.922  -0.006  0.00  0.00     0.037 A 
ENDROOT
BRANCH   1  12
ATOM     12  C   UNL d   1       1.356  -3.282  -0.009  0.00  0.00     0.418 C 
ATOM     13  F   UNL d   1       0.198  -3.981   0.019  0.00  0.00    -0.166 F 
ATOM     14  F   UNL d   1       2.025  -3.701  -1.116  0.00  0.00    -0.166 F 
ATOM     15  F   UNL d   1       2.081  -3.709   1.059  0.00  0.00    -0.166 F 
ENDBRANCH   1  12
BRANCH  10  16
ATOM     16  O   UNL d   1      -3.565   1.234   0.005  0.00  0.00    -0.361 OA
ATOM     17  H   UNL d   1      -4.346   0.656   0.006  0.00  0.00     0.217 HD
ENDBRANCH  10  16
TORSDOF 2
