REMARK  2 active torsions:
REMARK  status: ('A' for Active; 'I' for Inactive)
REMARK    1  A    between atoms: N_2  and  C_1 
REMARK       I    between atoms: C_3  and  N_2 
REMARK       I    between atoms: N_9  and  C_3 
REMARK    2  A    between atoms: C_10  and  N_9 
ROOT
ATOM      1  N   UNL d   1      -0.388  -2.853   0.370  0.00  0.00    -0.293 N 
ATOM      2  C   UNL d   1      -1.516  -3.583   0.708  0.00  0.00     0.326 C 
ATOM      3  N   UNL d   1      -2.615  -3.065   0.040  0.00  0.00    -0.307 N 
ATOM      4  O   UNL d   1      -1.536  -4.545   1.462  0.00  0.00    -0.247 OA
ATOM      5  H   UNL d   1      -0.547  -1.872   0.183  0.00  0.00     0.172 HD
ATOM      6  H   UNL d   1      -2.398  -2.501  -0.773  0.00  0.00     0.170 HD
ENDROOT
BRANCH   1   7
ATOM      7  C   UNL d   1       0.924  -3.215   0.623  0.00  0.00     0.126 A 
ATOM      8  N   UNL d   1       1.465  -4.470   0.836  0.00  0.00    -0.281 N 
ATOM      9  N   UNL d   1       2.808  -4.435   1.019  0.00  0.00    -0.308 N 
ATOM     10  C   UNL d   1       0.851  -5.774   0.746  0.00  0.00     0.179 C 
ATOM     11  C   UNL d   1       3.124  -3.150   0.890  0.00  0.00     0.111 A 
ATOM     12  HN  UNL d   1       3.433  -5.217   1.212  1.00  0.00     0.186 HD
ATOM     13  C   UNL d   1       2.001  -2.351   0.633  0.00  0.00     0.068 A 
ENDBRANCH   1   7
BRANCH   3  14
ATOM     14  C   UNL d   1      -3.961  -3.495   0.123  0.00  0.00     0.059 A 
ATOM     15  C   UNL d   1      -4.854  -3.114  -0.903  0.00  0.00     0.082 A 
ATOM     16  C   UNL d   1      -6.189  -3.542  -0.870  0.00  0.00     0.058 A 
ATOM     17 CL   UNL d   1      -4.265  -2.128  -2.212  0.00  0.00    -0.080 Cl
ATOM     18 CL   UNL d   1      -7.324  -3.142  -2.111  0.00  0.00    -0.082 Cl
ATOM     19  C   UNL d   1      -6.645  -4.327   0.191  0.00  0.00     0.026 A 
ATOM     20  C   UNL d   1      -5.773  -4.681   1.220  0.00  0.00     0.004 A 
ATOM     21  C   UNL d   1      -4.439  -4.268   1.186  0.00  0.00     0.031 A 
ENDBRANCH   3  14
TORSDOF 2
