REMARK  4 active torsions:
REMARK  status: ('A' for Active; 'I' for Inactive)
REMARK    1  A    between atoms: N_7  and  N_4 
REMARK    2  A    between atoms: O_20  and  C_12 
REMARK    3  A    between atoms: O_19  and  C_13 
REMARK    4  A    between atoms: C_14  and  C_15 
ROOT
ATOM      1  N   UNL d   1       4.793   0.344   1.440  0.00  0.00    -0.309 N 
ATOM      2  HN  UNL d   1       5.795   0.348   1.249  1.00  0.00     0.186 HD
ATOM      3  C   UNL d   1       4.155   1.330   1.983  0.00  0.00     0.118 C 
ENDROOT
BRANCH   1   4
ATOM      4  N   UNL d   1       3.948  -0.722   1.149  0.00  0.00    -0.280 N 
ATOM      5  C   UNL d   1       4.564  -1.810   0.810  0.00  0.00     0.161 C 
ATOM      6  N   UNL d   1       3.787  -2.930   0.646  0.00  0.00    -0.306 N 
ATOM      7  S   UNL d   1       6.279  -1.992   0.559  0.00  0.00    -0.092 SA
ATOM      8  C   UNL d   1       4.137  -4.255   0.592  0.00  0.00     0.224 C 
ATOM      9  H   UNL d   1       2.798  -2.764   0.766  0.00  0.00     0.171 HD
ATOM     10  C   UNL d   1       5.597  -4.605   0.481  0.00  0.00     0.114 C 
ATOM     11  O   UNL d   1       3.268  -5.125   0.625  0.00  0.00    -0.273 OA
ATOM     12  C   UNL d   1       6.473  -3.641   1.247  0.00  0.00     0.091 C 
ATOM     13  HN  UNL d   1       2.931  -0.652   1.199  1.00  0.00     0.189 HD
ENDBRANCH   1   4
BRANCH   3  14
ATOM     14  C   UNL d   1       4.863   2.530   2.463  0.00  0.00    -0.014 A 
ATOM     15  C   UNL d   1       6.259   2.585   2.445  0.00  0.00     0.049 A 
ATOM     16  C   UNL d   1       6.923   3.711   2.926  0.00  0.00     0.071 A 
ATOM     17  C   UNL d   1       6.182   4.793   3.419  0.00  0.00     0.073 A 
ATOM     18  C   UNL d   1       4.782   4.732   3.452  0.00  0.00     0.071 A 
ATOM     19  C   UNL d   1       4.127   3.596   2.975  0.00  0.00     0.049 A 
BRANCH  16  20
ATOM     20  O   UNL d   1       8.288   3.638   2.870  0.00  0.00    -0.356 OA
ATOM     21  C   UNL d   1       9.020   4.756   3.355  0.00  0.00     0.210 C 
ENDBRANCH  16  20
BRANCH  18  22
ATOM     22  O   UNL d   1       3.955   5.713   3.929  0.00  0.00    -0.356 OA
ATOM     23  C   UNL d   1       4.573   6.883   4.450  0.00  0.00     0.210 C 
ENDBRANCH  18  22
ENDBRANCH   3  14
TORSDOF 4
