REMARK  6 active torsions:
REMARK  status: ('A' for Active; 'I' for Inactive)
REMARK    1  A    between atoms: C_11  and  C_1 
REMARK       I    between atoms: C_3  and  N_10 
REMARK       I    between atoms: N_5  and  C_3 
REMARK    2  A    between atoms: C_7  and  N_5 
REMARK    3  A    between atoms: N_10  and  C_11 
REMARK    4  A    between atoms: C_20  and  C_15 
REMARK    5  A    between atoms: C_21  and  C_20 
REMARK    6  A    between atoms: C_22  and  C_21 
ROOT
ATOM      1  C   UNL d   1      -0.081  -7.292  -0.012  0.00  0.00     0.321 C 
ATOM      2  N   UNL d   1       0.448  -6.038   0.183  0.00  0.00    -0.308 N 
ATOM      3  N   UNL d   1      -1.456  -7.231  -0.041  0.00  0.00    -0.339 N 
ATOM      4  O   UNL d   1       0.551  -8.341  -0.081  0.00  0.00    -0.247 OA
ATOM      5  H   UNL d   1      -0.188  -5.401   0.636  0.00  0.00     0.170 HD
ATOM      6  H   UNL d   1      -1.869  -6.356  -0.331  0.00  0.00     0.164 HD
ENDROOT
BRANCH   3   7
ATOM      7  C   UNL d   1      -2.287  -8.409  -0.134  0.00  0.00     0.164 C 
BRANCH   7   8
ATOM      8  C   UNL d   1      -3.388  -8.270   0.878  0.00  0.00    -0.022 A 
ATOM      9  C   UNL d   1      -3.245  -8.662   2.196  0.00  0.00     0.060 A 
ATOM     10  S   UNL d   1      -4.627  -8.363   3.139  0.00  0.00    -0.101 SA
ATOM     11  C   UNL d   1      -5.486  -7.710   1.800  0.00  0.00     0.015 A 
ATOM     12  C   UNL d   1      -4.712  -7.731   0.632  0.00  0.00    -0.011 A 
ATOM     13  C   UNL d   1      -6.804  -7.209   1.816  0.00  0.00     0.019 A 
ATOM     14  C   UNL d   1      -5.318  -7.237  -0.554  0.00  0.00     0.013 A 
ATOM     15  C   UNL d   1      -6.630  -6.751  -0.546  0.00  0.00     0.001 A 
ATOM     16  C   UNL d   1      -7.364  -6.733   0.631  0.00  0.00     0.001 A 
ENDBRANCH   7   8
ENDBRANCH   3   7
BRANCH   2  17
ATOM     17  C   UNL d   1       1.819  -5.709   0.239  0.00  0.00     0.042 A 
ATOM     18  C   UNL d   1       2.256  -4.724   1.142  0.00  0.00    -0.035 A 
ATOM     19  C   UNL d   1       3.578  -4.256   1.058  0.00  0.00     0.016 A 
ATOM     20  C   UNL d   1       1.399  -4.173   2.249  0.00  0.00     0.050 C 
ATOM     21  C   UNL d   1       4.472  -4.755   0.104  0.00  0.00    -0.058 A 
ATOM     22  C   UNL d   1       4.046  -5.794  -0.732  0.00  0.00     0.009 A 
ATOM     23  C   UNL d   1       2.730  -6.272  -0.660  0.00  0.00     0.031 A 
BRANCH  21  24
ATOM     24  C   UNL d   1       5.853  -4.155  -0.025  0.00  0.00     0.038 C 
BRANCH  24  25
ATOM     25  C   UNL d   1       6.111  -3.457  -1.368  0.00  0.00     0.004 C 
BRANCH  25  26
ATOM     26  C   UNL d   1       5.154  -2.293  -1.645  0.00  0.00    -0.004 C 
ATOM     27  C   UNL d   1       5.448  -1.639  -2.987  0.00  0.00     0.005 C 
ENDBRANCH  25  26
ENDBRANCH  24  25
ENDBRANCH  21  24
ENDBRANCH   2  17
TORSDOF 6
