REMARK  3 active torsions:
REMARK  status: ('A' for Active; 'I' for Inactive)
REMARK    1  A    between atoms: C_2  and  S_1 
REMARK    2  A    between atoms: O_3  and  S_1 
REMARK    3  A    between atoms: C_4  and  O_3 
ROOT
ATOM      1  C   UNL d   1       0.909  -2.571   0.364  0.00  0.00     0.117 A 
ATOM      2  C   UNL d   1       2.201  -2.983   0.011  0.00  0.00     0.078 A 
ATOM      3  N   UNL d   1       3.255  -2.161   0.131  0.00  0.00    -0.357 N 
ATOM      4  HN  UNL d   1       3.117  -1.224   0.509  1.00  0.00     0.166 HD
ATOM      5  C   UNL d   1       2.382  -4.293  -0.481  0.00  0.00    -0.006 A 
ATOM      6  C   UNL d   1       4.492  -2.549  -0.239  0.00  0.00     0.005 A 
ATOM      7  C   UNL d   1       3.674  -4.692  -0.860  0.00  0.00     0.016 A 
ATOM      8  C   UNL d   1       4.742  -3.809  -0.745  0.00  0.00     0.025 A 
ATOM      9  C   UNL d   1      -0.175  -3.457   0.256  0.00  0.00     0.040 A 
ATOM     10  C   UNL d   1       0.016  -4.752  -0.213  0.00  0.00     0.004 A 
ATOM     11  C   UNL d   1       1.291  -5.169  -0.586  0.00  0.00     0.014 A 
ATOM     12  C   UNL d   1       5.579  -1.532  -0.081  0.00  0.00     0.068 C 
ENDROOT
BRANCH   1  13
ATOM     13  O   UNL d   1       0.555  -1.317   0.836  0.00  0.00    -0.227 OA
BRANCH  13  14
ATOM     14  S   UNL d   1       1.605  -0.071   0.956  0.00  0.00     0.306 S 
ATOM     15  O   UNL d   1       2.477  -0.294   2.097  0.00  0.00    -0.193 OA
ATOM     16  O   UNL d   1       2.094   0.322  -0.354  0.00  0.00    -0.193 OA
BRANCH  14  17
ATOM     17  C   UNL d   1       0.628   1.325   1.442  0.00  0.00     0.125 A 
ATOM     18  C   UNL d   1      -0.683   1.448   1.008  0.00  0.00     0.143 A 
ATOM     19  C   UNL d   1      -1.416   2.585   1.334  0.00  0.00     0.086 A 
ATOM     20  F   UNL d   1      -1.261   0.506   0.253  0.00  0.00    -0.204 F 
ATOM     21  C   UNL d   1      -0.820   3.587   2.094  0.00  0.00     0.119 A 
ATOM     22  C   UNL d   1       0.494   3.471   2.539  0.00  0.00     0.044 A 
ATOM     23  F   UNL d   1      -1.518   4.689   2.396  0.00  0.00    -0.206 F 
ATOM     24  C   UNL d   1       1.226   2.332   2.215  0.00  0.00     0.032 A 
ENDBRANCH  14  17
ENDBRANCH  13  14
ENDBRANCH   1  13
TORSDOF 3
