REMARK  4 active torsions:
REMARK  status: ('A' for Active; 'I' for Inactive)
REMARK    1  A    between atoms: N_5  and  C_1 
REMARK    2  A    between atoms: C_10  and  C_4 
REMARK       I    between atoms: C_8  and  N_5 
REMARK    3  A    between atoms: C_14  and  C_8 
REMARK    4  A    between atoms: C_9  and  C_13 
ROOT
ATOM      1  C   UNL d   1      -1.528   0.219  -0.118  0.00  0.00     0.152 A 
ATOM      2  N   UNL d   1      -1.387  -1.076  -0.194  0.00  0.00    -0.335 N 
ATOM      3  HN  UNL d   1      -2.152  -1.739  -0.322  1.00  0.00     0.168 HD
ATOM      4  C   UNL d   1      -0.050  -1.422  -0.077  0.00  0.00     0.057 A 
ATOM      5  S   UNL d   1      -0.099   1.117   0.098  0.00  0.00    -0.057 SA
ATOM      6  C   UNL d   1       0.821  -0.343   0.010  0.00  0.00     0.010 A 
ATOM      7  C   UNL d   1       2.309  -0.281   0.030  0.00  0.00     0.059 C 
ENDROOT
BRANCH   1   8
ATOM      8  N   UNL d   1      -2.677   0.960  -0.154  0.00  0.00    -0.303 N 
ATOM      9  C   UNL d   1      -3.873   0.399  -0.544  0.00  0.00     0.257 C 
ATOM     10  O   UNL d   1      -4.031  -0.706  -1.048  0.00  0.00    -0.267 OA
ATOM     11  H   UNL d   1      -2.597   1.949   0.033  0.00  0.00     0.171 HD
BRANCH   9  12
ATOM     12  C   UNL d   1      -5.079   1.254  -0.370  0.00  0.00     0.032 A 
ATOM     13  C   UNL d   1      -6.125   1.110  -1.291  0.00  0.00     0.018 A 
ATOM     14  C   UNL d   1      -7.332   1.789  -1.105  0.00  0.00     0.017 A 
ATOM     15  C   UNL d   1      -7.515   2.616   0.011  0.00  0.00     0.048 A 
ATOM     16  C   UNL d   1      -6.452   2.778   0.918  0.00  0.00     0.017 A 
ATOM     17  C   UNL d   1      -5.240   2.101   0.731  0.00  0.00     0.018 A 
BRANCH  15  18
ATOM     18  C   UNL d   1      -8.844   3.289   0.269  0.00  0.00     0.417 C 
ATOM     19  F   UNL d   1      -9.779   3.038  -0.689  0.00  0.00    -0.166 F 
ATOM     20  F   UNL d   1      -9.402   2.895   1.447  0.00  0.00    -0.166 F 
ATOM     21  F   UNL d   1      -8.736   4.644   0.341  0.00  0.00    -0.166 F 
ENDBRANCH  15  18
ENDBRANCH   9  12
ENDBRANCH   1   8
BRANCH   4  22
ATOM     22  C   UNL d   1       0.322  -2.835  -0.081  0.00  0.00    -0.007 A 
ATOM     23  C   UNL d   1      -0.406  -3.736  -0.870  0.00  0.00     0.038 A 
ATOM     24  C   UNL d   1      -0.115  -5.104  -0.849  0.00  0.00     0.040 A 
ATOM     25 CL   UNL d   1      -1.066  -6.153  -1.841  0.00  0.00    -0.084 Cl
ATOM     26  C   UNL d   1       0.913  -5.606  -0.035  0.00  0.00    -0.040 A 
ATOM     27  C   UNL d   1       1.631  -4.705   0.762  0.00  0.00     0.009 A 
ATOM     28  C   UNL d   1       1.245  -7.070   0.022  0.00  0.00     0.050 C 
ATOM     29  C   UNL d   1       1.332  -3.339   0.746  0.00  0.00     0.014 A 
ENDBRANCH   4  22
TORSDOF 4
