REMARK  17 active torsions:
REMARK  status: ('A' for Active; 'I' for Inactive)
REMARK    1  A    between atoms: C_3  and  C_1 
REMARK    2  A    between atoms: C_1  and  O_5 
REMARK    3  A    between atoms: C_2  and  C_1 
REMARK    4  A    between atoms: C_2  and  O_6 
REMARK    5  A    between atoms: C_2  and  C_4 
REMARK    6  A    between atoms: C_3  and  O_7 
REMARK    7  A    between atoms: C_15  and  C_3 
REMARK    8  A    between atoms: C_4  and  C_16 
REMARK    9  A    between atoms: C_4  and  O_8 
REMARK   10  A    between atoms: C_9  and  O_5 
REMARK   11  A    between atoms: C_10  and  O_6 
REMARK   12  A    between atoms: C_11  and  O_7 
REMARK   13  A    between atoms: C_12  and  O_8 
REMARK   14  A    between atoms: C_13  and  O_18 
REMARK   15  A    between atoms: C_14  and  O_17 
REMARK   16  A    between atoms: O_18  and  C_15 
REMARK   17  A    between atoms: O_17  and  C_16 
ROOT
ATOM      1  C   UNL d   1      -1.181   1.217  -0.225  0.00  0.00     0.195 C 
ENDROOT
BRANCH   1   2
ATOM      2  C   UNL d   1      -1.637   0.402  -1.476  0.00  0.00     0.188 C 
BRANCH   2   3
ATOM      3  O   UNL d   1      -1.004   0.950  -2.662  0.00  0.00    -0.311 OA
BRANCH   3   4
ATOM      4  C   UNL d   1      -1.756   1.808  -3.404  0.00  0.00     0.255 C 
ATOM      5  O   UNL d   1      -2.878   2.204  -3.129  0.00  0.00    -0.266 OA
ATOM      6  C   UNL d   1      -0.996   2.250  -4.617  0.00  0.00     0.126 C 
ENDBRANCH   3   4
ENDBRANCH   2   3
BRANCH   2   7
ATOM      7  C   UNL d   1      -1.327  -1.095  -1.434  0.00  0.00     0.213 C 
BRANCH   7   8
ATOM      8  O   UNL d   1      -1.811  -1.750  -2.622  0.00  0.00    -0.319 OA
BRANCH   8   9
ATOM      9  C   UNL d   1      -2.829  -2.627  -2.449  0.00  0.00     0.254 C 
ATOM     10  O   UNL d   1      -3.519  -2.731  -1.447  0.00  0.00    -0.266 OA
ATOM     11  C   UNL d   1      -2.986  -3.469  -3.678  0.00  0.00     0.126 C 
ENDBRANCH   8   9
ENDBRANCH   7   8
ENDBRANCH   2   7
ENDBRANCH   1   2
BRANCH   1  12
ATOM     12  O   UNL d   1      -1.815   2.537  -0.318  0.00  0.00    -0.311 OA
BRANCH  12  13
ATOM     13  C   UNL d   1      -3.145   2.611  -0.045  0.00  0.00     0.255 C 
ATOM     14  O   UNL d   1      -3.822   1.682   0.371  0.00  0.00    -0.266 OA
ATOM     15  C   UNL d   1      -3.664   3.995  -0.297  0.00  0.00     0.126 C 
ENDBRANCH  12  13
ENDBRANCH   1  12
BRANCH   1  16
ATOM     16  C   UNL d   1       0.343   1.538  -0.121  0.00  0.00     0.195 C 
BRANCH  16  17
ATOM     17  O   UNL d   1       0.548   2.410   1.026  0.00  0.00    -0.311 OA
BRANCH  17  18
ATOM     18  C   UNL d   1       1.078   3.638   0.761  0.00  0.00     0.255 C 
ATOM     19  O   UNL d   1       1.292   4.093  -0.355  0.00  0.00    -0.266 OA
ATOM     20  C   UNL d   1       1.395   4.383   2.021  0.00  0.00     0.126 C 
ENDBRANCH  17  18
ENDBRANCH  16  17
BRANCH  16  21
ATOM     21  C   UNL d   1       1.299   0.342   0.023  0.00  0.00     0.188 C 
BRANCH  21  22
ATOM     22  C   UNL d   1       1.167  -0.516   1.294  0.00  0.00     0.213 C 
BRANCH  22  23
ATOM     23  O   UNL d   1       2.051  -1.653   1.145  0.00  0.00    -0.319 OA
BRANCH  23  24
ATOM     24  C   UNL d   1       1.522  -2.749   0.541  0.00  0.00     0.254 C 
ATOM     25  O   UNL d   1       0.330  -2.921   0.317  0.00  0.00    -0.266 OA
ATOM     26  C   UNL d   1       2.601  -3.656   0.038  0.00  0.00     0.126 C 
ENDBRANCH  23  24
ENDBRANCH  22  23
ENDBRANCH  21  22
BRANCH  21  27
ATOM     27  O   UNL d   1       2.678   0.711  -0.280  0.00  0.00    -0.311 OA
BRANCH  27  28
ATOM     28  C   UNL d   1       3.519   1.218   0.651  0.00  0.00     0.255 C 
ATOM     29  O   UNL d   1       3.228   1.539   1.792  0.00  0.00    -0.266 OA
ATOM     30  C   UNL d   1       4.889   1.325   0.054  0.00  0.00     0.126 C 
ENDBRANCH  27  28
ENDBRANCH  21  27
ENDBRANCH  16  21
ENDBRANCH   1  16
TORSDOF 17
