REMARK  5 active torsions:
REMARK  status: ('A' for Active; 'I' for Inactive)
REMARK    1  A    between atoms: C_2  and  C_18 
REMARK    2  A    between atoms: C_9  and  C_4 
REMARK    3  A    between atoms: O_15  and  N_7 
REMARK    4  A    between atoms: O_19  and  C_10 
REMARK    5  A    between atoms: C_18  and  O_15 
ROOT
ATOM      1  O   UNL d   1      -2.538  -3.316  -0.326  0.00  0.00    -0.276 OA
ENDROOT
BRANCH   1   2
ATOM      2  N   UNL d   1      -1.229  -2.822  -0.352  0.00  0.00    -0.269 N 
ATOM      3  C   UNL d   1      -1.233  -1.519  -0.458  0.00  0.00     0.052 C 
ATOM      4  C   UNL d   1       0.062  -0.769  -0.390  0.00  0.00    -0.004 A 
ATOM      5  C   UNL d   1      -2.500  -0.690  -0.608  0.00  0.00     0.134 C 
ATOM      6  C   UNL d   1       0.173   0.566  -0.825  0.00  0.00    -0.037 A 
ATOM      7  C   UNL d   1       1.180  -1.421   0.157  0.00  0.00     0.014 A 
ATOM      8  C   UNL d   1       1.410   1.224  -0.672  0.00  0.00     0.009 A 
ATOM      9  C   UNL d   1      -0.964   1.373  -1.396  0.00  0.00     0.113 C 
ATOM     10  C   UNL d   1       2.511   0.570  -0.118  0.00  0.00     0.001 A 
ATOM     11  C   UNL d   1       2.397  -0.752   0.294  0.00  0.00     0.001 A 
ATOM     12  S   UNL d   1      -2.339   0.405  -2.033  0.00  0.00    -0.158 SA
ATOM     13  HN  UNL d   1      -0.389  -3.398  -0.296  1.00  0.00     0.194 HD
ENDBRANCH   1   2
BRANCH   1  14
ATOM     14  C   UNL d   1      -2.589  -4.672  -0.779  0.00  0.00     0.242 C 
BRANCH  14  15
ATOM     15  C   UNL d   1      -4.034  -5.144  -0.805  0.00  0.00     0.002 A 
ATOM     16  C   UNL d   1      -5.076  -4.316  -0.334  0.00  0.00     0.027 A 
ATOM     17  C   UNL d   1      -6.406  -4.742  -0.356  0.00  0.00     0.010 A 
ATOM     18  C   UNL d   1      -6.707  -6.005  -0.866  0.00  0.00     0.018 A 
ATOM     19  C   UNL d   1      -5.688  -6.842  -1.331  0.00  0.00     0.038 A 
ATOM     20  C   UNL d   1      -4.353  -6.420  -1.307  0.00  0.00     0.076 A 
BRANCH  17  21
ATOM     21  C   UNL d   1      -7.525  -3.884   0.126  0.00  0.00     0.155 C 
ATOM     22  O   UNL d   1      -8.665  -4.088  -0.290  0.00  0.00    -0.293 OA
ATOM     23  C   UNL d   1      -7.252  -2.784   1.120  0.00  0.00     0.096 C 
ENDBRANCH  17  21
BRANCH  20  24
ATOM     24  O   UNL d   1      -3.296  -7.169  -1.754  0.00  0.00    -0.355 OA
ATOM     25  C   UNL d   1      -3.595  -8.431  -2.343  0.00  0.00     0.210 C 
ENDBRANCH  20  24
ENDBRANCH  14  15
ENDBRANCH   1  14
TORSDOF 5
