REMARK  6 active torsions:
REMARK  status: ('A' for Active; 'I' for Inactive)
REMARK    1  A    between atoms: C_4  and  N_1 
REMARK    2  A    between atoms: C_2  and  N_8 
REMARK    3  A    between atoms: N_11  and  C_2 
REMARK    4  A    between atoms: C_7  and  C_19 
REMARK    5  A    between atoms: N_8  and  C_20 
REMARK    6  A    between atoms: C_19  and  N_11 
ROOT
ATOM      1  C   UNL d   1       1.269   2.160  -0.979  0.00  0.00     0.030 A 
ATOM      2  C   UNL d   1       1.714   1.658  -2.205  0.00  0.00     0.031 A 
ATOM      3  C   UNL d   1       1.377   3.546  -0.781  0.00  0.00     0.031 A 
ATOM      4  C   UNL d   1       2.456   3.848  -2.933  0.00  0.00     0.034 A 
ATOM      5  C   UNL d   1       2.291   2.485  -3.174  0.00  0.00     0.032 A 
ATOM      6  C   UNL d   1       1.958   4.383  -1.747  0.00  0.00     0.032 A 
ENDROOT
BRANCH   4   7
ATOM      7  N   UNL d   1       3.034   4.719  -3.874  0.00  0.00    -0.333 N 
ATOM      8  H   UNL d   1       2.943   5.708  -3.673  0.00  0.00     0.168 HD
BRANCH   7   9
ATOM      9  C   UNL d   1       3.970   4.444  -4.843  0.00  0.00     0.172 C 
ATOM     10  S   UNL d   1       5.159   3.272  -4.817  0.00  0.00    -0.041 SA
BRANCH   9  11
ATOM     11  N   UNL d   1       3.925   5.279  -5.929  0.00  0.00    -0.361 N 
ATOM     12  H   UNL d   1       4.609   5.045  -6.640  0.00  0.00     0.162 HD
BRANCH  11  13
ATOM     13  C   UNL d   1       2.704   5.912  -6.391  0.00  0.00     0.187 C 
BRANCH  13  14
ATOM     14  C   UNL d   1       2.981   6.711  -7.604  0.00  0.00     0.070 A 
ATOM     15  O   UNL d   1       3.281   8.028  -7.412  0.00  0.00    -0.325 OA
ATOM     16  C   UNL d   1       3.456   8.578  -8.641  0.00  0.00     0.142 A 
ATOM     17  C   UNL d   1       3.275   7.632  -9.622  0.00  0.00     0.027 A 
ATOM     18  C   UNL d   1       2.975   6.421  -8.953  0.00  0.00     0.036 A 
ENDBRANCH  13  14
ENDBRANCH  11  13
ENDBRANCH   9  11
ENDBRANCH   7   9
ENDBRANCH   4   7
BRANCH   1  19
ATOM     19  N   UNL d   1       0.798   1.353   0.043  0.00  0.00    -0.376 N 
ATOM     20  C   UNL d   1       1.266  -0.037   0.183  0.00  0.00     0.154 C 
ATOM     21  C   UNL d   1       0.224  -1.033  -0.361  0.00  0.00     0.136 C 
ATOM     22  C   UNL d   1       0.655  -2.465  -0.076  0.00  0.00     0.041 C 
ATOM     23  O   UNL d   1      -1.056  -0.826   0.266  0.00  0.00    -0.378 OA
ATOM     24  C   UNL d   1      -1.538   0.509   0.006  0.00  0.00     0.136 C 
ATOM     25  C   UNL d   1      -0.565   1.577   0.560  0.00  0.00     0.154 C 
ATOM     26  C   UNL d   1      -2.907   0.625   0.663  0.00  0.00     0.041 C 
ENDBRANCH   1  19
TORSDOF 6
