REMARK  4 active torsions:
REMARK  status: ('A' for Active; 'I' for Inactive)
REMARK       I    between atoms: N_2  and  C_1 
REMARK    1  A    between atoms: C_4  and  C_1 
REMARK    2  A    between atoms: C_16  and  N_2 
REMARK    3  A    between atoms: C_3  and  C_16 
REMARK    4  A    between atoms: C_6  and  C_7 
ROOT
ATOM      1  C   UNL d   1       0.392  -1.151   0.141  0.00  0.00     0.032 A 
ATOM      2  C   UNL d   1      -1.144  -3.525   0.357  0.00  0.00    -0.051 A 
ATOM      3  C   UNL d   1       0.752  -2.141   1.057  0.00  0.00     0.017 A 
ATOM      4  C   UNL d   1      -0.752  -1.324  -0.640  0.00  0.00     0.017 A 
ATOM      5  C   UNL d   1      -1.506  -2.501  -0.536  0.00  0.00     0.009 A 
ATOM      6  C   UNL d   1      -0.008  -3.311   1.161  0.00  0.00     0.009 A 
ENDROOT
BRANCH   1   7
ATOM      7  C   UNL d   1       1.198   0.090  -0.010  0.00  0.00     0.251 C 
ATOM      8  N   UNL d   1       2.546  -0.052   0.226  0.00  0.00    -0.351 N 
ATOM      9  H   UNL d   1       2.948  -0.981   0.200  0.00  0.00     0.163 HD
ATOM     10  O   UNL d   1       0.676   1.144  -0.350  0.00  0.00    -0.268 OA
BRANCH   8  11
ATOM     11  C   UNL d   1       3.460   1.047   0.030  0.00  0.00     0.187 C 
BRANCH  11  12
ATOM     12  C   UNL d   1       4.819   0.589   0.410  0.00  0.00     0.070 A 
ATOM     13  O   UNL d   1       5.333  -0.453  -0.311  0.00  0.00    -0.325 OA
ATOM     14  C   UNL d   1       6.560  -0.724   0.201  0.00  0.00     0.142 A 
ATOM     15  C   UNL d   1       6.843   0.122   1.247  0.00  0.00     0.027 A 
ATOM     16  C   UNL d   1       5.717   0.970   1.385  0.00  0.00     0.036 A 
ENDBRANCH  11  12
ENDBRANCH   8  11
ENDBRANCH   1   7
BRANCH   2  17
ATOM     17  C   UNL d   1      -1.922  -4.849   0.470  0.00  0.00    -0.024 C 
ATOM     18  C   UNL d   1      -3.132  -4.945  -0.484  0.00  0.00     0.019 C 
ATOM     19  C   UNL d   1      -0.979  -6.026   0.131  0.00  0.00     0.019 C 
ATOM     20  C   UNL d   1      -2.457  -5.030   1.907  0.00  0.00     0.019 C 
ENDBRANCH   2  17
TORSDOF 4
