REMARK  5 active torsions:
REMARK  status: ('A' for Active; 'I' for Inactive)
REMARK    1  A    between atoms: C_10  and  C_1 
REMARK    2  A    between atoms: O_11  and  C_2 
REMARK    3  A    between atoms: C_13  and  C_5 
REMARK    4  A    between atoms: O_12  and  N_8 
REMARK    5  A    between atoms: O_14  and  C_13 
ROOT
ATOM      1  C   UNL d   1       0.398   1.517   0.058  0.00  0.00     0.026 A 
ATOM      2  C   UNL d   1      -0.691   0.625   0.019  0.00  0.00     0.100 A 
ATOM      3  N   UNL d   1       0.817  -1.245  -0.028  0.00  0.00    -0.367 N 
ATOM      4  HN  UNL d   1       0.984  -2.251  -0.055  1.00  0.00     0.165 HD
ATOM      5  C   UNL d   1       1.711   1.019   0.027  0.00  0.00    -0.005 A 
ATOM      6  C   UNL d   1      -0.441  -0.745  -0.014  0.00  0.00     0.039 A 
ATOM      7  C   UNL d   1       1.843  -0.368  -0.005  0.00  0.00     0.098 A 
ATOM      8  C   UNL d   1      -1.543  -1.763  -0.016  0.00  0.00     0.071 C 
ENDROOT
BRANCH   1   9
ATOM      9  C   UNL d   1       0.133   2.972   0.158  0.00  0.00     0.128 C 
ATOM     10  N   UNL d   1      -1.004   3.472  -0.223  0.00  0.00    -0.280 N 
ATOM     11  HN  UNL d   1      -1.786   2.941  -0.606  1.00  0.00     0.193 HD
BRANCH  10  12
ATOM     12  O   UNL d   1      -0.984   4.856  -0.023  0.00  0.00    -0.290 OA
ATOM     13  H   UNL d   1      -1.823   5.147  -0.425  0.00  0.00     0.244 HD
ENDBRANCH  10  12
ENDBRANCH   1   9
BRANCH   2  14
ATOM     14  O   UNL d   1      -1.993   1.051   0.036  0.00  0.00    -0.358 OA
ATOM     15  H   UNL d   1      -1.990   2.029  -0.060  0.00  0.00     0.217 HD
ENDBRANCH   2  14
BRANCH   5  16
ATOM     16  C   UNL d   1       2.974   1.830   0.092  0.00  0.00     0.205 C 
BRANCH  16  17
ATOM     17  O   UNL d   1       2.884   3.069  -0.589  0.00  0.00    -0.396 OA
ATOM     18  H   UNL d   1       2.836   2.880  -1.544  0.00  0.00     0.209 HD
ENDBRANCH  16  17
ENDBRANCH   5  16
TORSDOF 5
