REMARK  2 active torsions:
REMARK  status: ('A' for Active; 'I' for Inactive)
REMARK    1  A    between atoms: C_3  and  C_2 
REMARK       I    between atoms: N_5  and  C_3 
REMARK    2  A    between atoms: C_12  and  N_5 
ROOT
ATOM      1  C   UNL d   1      -2.763  -0.611  -0.185  0.00  0.00     0.270 C 
ATOM      2  N   UNL d   1      -3.624   0.350   0.314  0.00  0.00    -0.322 N 
ATOM      3  O   UNL d   1      -3.120  -1.627  -0.775  0.00  0.00    -0.266 OA
ATOM      4  H   UNL d   1      -3.242   1.250   0.607  0.00  0.00     0.169 HD
ENDROOT
BRANCH   1   5
ATOM      5  C   UNL d   1      -1.308  -0.346   0.015  0.00  0.00     0.155 C 
ATOM      6  S   UNL d   1      -0.760   1.284  -0.088  0.00  0.00     0.185 S 
ATOM      7  C   UNL d   1       0.871   1.218   0.575  0.00  0.00     0.172 C 
ATOM      8  O   UNL d   1      -1.558   2.103   0.816  0.00  0.00    -0.222 OA
ATOM      9  O   UNL d   1      -0.643   1.672  -1.481  0.00  0.00    -0.222 OA
ATOM     10  C   UNL d   1       1.553   0.035  -0.048  0.00  0.00     0.190 C 
ATOM     11  O   UNL d   1       0.951  -1.175   0.399  0.00  0.00    -0.353 OA
ATOM     12  C   UNL d   1      -0.410  -1.341   0.217  0.00  0.00     0.069 C 
ATOM     13  C   UNL d   1      -0.764  -2.806   0.317  0.00  0.00     0.078 C 
ENDBRANCH   1   5
BRANCH   2  14
ATOM     14  C   UNL d   1      -5.033   0.253   0.350  0.00  0.00     0.035 A 
ATOM     15  C   UNL d   1      -5.715  -0.966   0.315  0.00  0.00     0.029 A 
ATOM     16  C   UNL d   1      -7.112  -0.999   0.349  0.00  0.00     0.002 A 
ATOM     17  C   UNL d   1      -7.838   0.187   0.406  0.00  0.00     0.000 A 
ATOM     18  C   UNL d   1      -7.167   1.407   0.460  0.00  0.00     0.002 A 
ATOM     19  C   UNL d   1      -5.769   1.439   0.453  0.00  0.00     0.029 A 
ENDBRANCH   2  14
TORSDOF 2
