REMARK  6 active torsions:
REMARK  status: ('A' for Active; 'I' for Inactive)
REMARK    1  A    between atoms: C_11  and  N_9 
REMARK    2  A    between atoms: C_16  and  C_11 
REMARK    3  A    between atoms: C_18  and  C_16 
REMARK    4  A    between atoms: O_20  and  C_16 
REMARK    5  A    between atoms: O_17  and  C_18 
REMARK    6  A    between atoms: C_19  and  O_17 
ROOT
ATOM      1  C   UNL d   1       0.117  -0.632   0.302  0.00  0.00     0.145 A 
ATOM      2  C   UNL d   1       0.202   0.726   0.382  0.00  0.00     0.149 A 
ATOM      3  N   UNL d   1      -1.081  -1.292   0.414  0.00  0.00    -0.287 N 
ATOM      4  N   UNL d   1      -2.112   0.830   0.808  0.00  0.00    -0.269 N 
ATOM      5  C   UNL d   1      -2.243  -0.566   0.681  0.00  0.00     0.332 A 
ATOM      6  C   UNL d   1      -0.927   1.555   0.625  0.00  0.00     0.282 A 
ATOM      7  N   UNL d   1       1.331  -1.206   0.106  0.00  0.00    -0.336 N 
ATOM      8  HN  UNL d   1       1.544  -2.198   0.007  1.00  0.00     0.168 HD
ATOM      9  N   UNL d   1       1.529   1.016   0.181  0.00  0.00    -0.333 N 
ATOM     10  C   UNL d   1       2.173  -0.193   0.072  0.00  0.00     0.185 A 
ATOM     11  O   UNL d   1      -3.335  -1.129   0.803  0.00  0.00    -0.246 OA
ATOM     12  O   UNL d   1      -0.858   2.781   0.677  0.00  0.00    -0.265 OA
ATOM     13  C   UNL d   1      -1.170  -2.733   0.286  0.00  0.00     0.163 C 
ATOM     14  C   UNL d   1      -3.294   1.603   1.134  0.00  0.00     0.164 C 
ENDROOT
BRANCH   9  15
ATOM     15  C   UNL d   1       2.109   2.352   0.098  0.00  0.00     0.164 C 
BRANCH  15  16
ATOM     16  C   UNL d   1       3.636   2.396  -0.044  0.00  0.00     0.160 C 
BRANCH  16  17
ATOM     17  C   UNL d   1       4.174   3.817  -0.300  0.00  0.00     0.209 C 
BRANCH  17  18
ATOM     18  O   UNL d   1       5.587   3.683  -0.481  0.00  0.00    -0.349 OA
BRANCH  18  19
ATOM     19  C   UNL d   1       6.343   4.803  -0.665  0.00  0.00     0.068 A 
ATOM     20  C   UNL d   1       5.876   6.111  -0.771  0.00  0.00     0.037 A 
ATOM     21  C   UNL d   1       6.784   7.162  -0.970  0.00  0.00     0.003 A 
ATOM     22  C   UNL d   1       8.151   6.907  -1.061  0.00  0.00     0.000 A 
ATOM     23  C   UNL d   1       8.620   5.602  -0.953  0.00  0.00     0.003 A 
ATOM     24  C   UNL d   1       7.717   4.557  -0.756  0.00  0.00     0.037 A 
ENDBRANCH  18  19
ENDBRANCH  17  18
ENDBRANCH  16  17
BRANCH  16  25
ATOM     25  O   UNL d   1       4.222   1.850   1.150  0.00  0.00    -0.392 OA
ATOM     26  H   UNL d   1       4.369   2.570   1.788  0.00  0.00     0.210 HD
ENDBRANCH  16  25
ENDBRANCH  15  16
ENDBRANCH   9  15
TORSDOF 6
