REMARK  3 active torsions:
REMARK  status: ('A' for Active; 'I' for Inactive)
REMARK    1  A    between atoms: C_5  and  C_3 
REMARK    2  A    between atoms: C_13  and  C_4 
REMARK    3  A    between atoms: C_9  and  C_14 
ROOT
ATOM      1  N   UNL d   1       1.268   0.151  -0.046  0.00  0.00    -0.318 N 
ATOM      2  HN  UNL d   1       2.275   0.296  -0.112  1.00  0.00     0.169 HD
ATOM      3  C   UNL d   1       0.600  -0.982  -0.023  0.00  0.00     0.183 A 
ATOM      4  C   UNL d   1       0.266   1.096   0.043  0.00  0.00     0.138 A 
ATOM      5  N   UNL d   1      -0.964   0.571   0.162  0.00  0.00    -0.242 N 
ATOM      6  HN  UNL d   1      -1.853   1.063   0.253  1.00  0.00     0.196 HD
ATOM      7  O   UNL d   1      -0.743  -0.803   0.132  0.00  0.00    -0.217 OA
ENDROOT
BRANCH   4   8
ATOM      8  C   UNL d   1       0.539   2.529   0.012  0.00  0.00     0.010 A 
ATOM      9  C   UNL d   1       1.855   2.996  -0.112  0.00  0.00     0.016 A 
ATOM     10  C   UNL d   1       2.126   4.369  -0.143  0.00  0.00     0.017 A 
ATOM     11  C   UNL d   1       1.085   5.303  -0.050  0.00  0.00     0.048 A 
ATOM     12  C   UNL d   1      -0.233   4.836   0.071  0.00  0.00     0.017 A 
ATOM     13  C   UNL d   1      -0.502   3.464   0.102  0.00  0.00     0.016 A 
BRANCH  11  14
ATOM     14  C   UNL d   1       1.358   6.787  -0.078  0.00  0.00     0.417 C 
ATOM     15  F   UNL d   1       2.680   7.097  -0.189  0.00  0.00    -0.166 F 
ATOM     16  F   UNL d   1       0.741   7.411  -1.119  0.00  0.00    -0.166 F 
ATOM     17  F   UNL d   1       0.921   7.417   1.048  0.00  0.00    -0.166 F 
ENDBRANCH  11  14
ENDBRANCH   4   8
BRANCH   3  18
ATOM     18  C   UNL d   1       1.104  -2.350  -0.050  0.00  0.00     0.039 A 
ATOM     19  C   UNL d   1       0.415  -3.436  -0.623  0.00  0.00     0.051 A 
ATOM     20  C   UNL d   1       0.975  -4.720  -0.611  0.00  0.00     0.067 A 
ATOM     21 CL   UNL d   1      -1.112  -3.275  -1.422  0.00  0.00    -0.083 Cl
ATOM     22  C   UNL d   1       2.221  -4.923  -0.038  0.00  0.00     0.118 A 
ATOM     23  C   UNL d   1       2.929  -3.871   0.523  0.00  0.00     0.043 A 
ATOM     24  F   UNL d   1       2.753  -6.152  -0.036  0.00  0.00    -0.206 F 
ATOM     25  C   UNL d   1       2.374  -2.590   0.513  0.00  0.00     0.020 A 
ENDBRANCH   3  18
TORSDOF 3
