REMARK  1 active torsions:
REMARK  status: ('A' for Active; 'I' for Inactive)
REMARK       I    between atoms: N_2  and  C_1 
REMARK       I    between atoms: N_4  and  C_1 
REMARK       I    between atoms: C_3  and  N_4 
REMARK    1  A    between atoms: C_5  and  C_3 
ROOT
ATOM      1  C   UNL d   1       0.955   0.190   0.082  0.00  0.00     0.329 C 
ATOM      2  N   UNL d   1       0.443   1.167  -0.772  0.00  0.00    -0.299 N 
ATOM      3  C   UNL d   1       0.125  -1.453   1.686  0.00  0.00     0.263 C 
ATOM      4  N   UNL d   1       0.085  -0.210   1.078  0.00  0.00    -0.275 N 
ATOM      5  C   UNL d   1       1.124   1.690  -1.895  0.00  0.00     0.045 A 
ATOM      6  C   UNL d   1      -0.892   1.790  -0.730  0.00  0.00     0.138 C 
ATOM      7  O   UNL d   1       2.094  -0.258  -0.005  0.00  0.00    -0.246 OA
ATOM      8  O   UNL d   1       0.854  -2.390   1.391  0.00  0.00    -0.267 OA
ATOM      9  C   UNL d   1       0.270   2.505  -2.643  0.00  0.00    -0.030 A 
ATOM     10  C   UNL d   1      -1.094   2.562  -2.040  0.00  0.00     0.061 C 
ATOM     11  C   UNL d   1       2.428   1.476  -2.311  0.00  0.00     0.030 A 
ATOM     12  C   UNL d   1       0.686   3.096  -3.828  0.00  0.00     0.009 A 
ATOM     13  C   UNL d   1       2.864   2.080  -3.494  0.00  0.00     0.002 A 
ATOM     14  C   UNL d   1       1.998   2.879  -4.251  0.00  0.00     0.001 A 
ATOM     15  H   UNL d   1      -0.660   0.419   1.314  0.00  0.00     0.173 HD
ENDROOT
BRANCH   3  16
ATOM     16  C   UNL d   1      -0.878  -1.671   2.757  0.00  0.00     0.075 A 
ATOM     17  C   UNL d   1      -2.252  -1.557   2.496  0.00  0.00     0.051 A 
ATOM     18 CL   UNL d   1      -2.884  -1.145   0.941  0.00  0.00    -0.083 Cl
ATOM     19  C   UNL d   1      -3.189  -1.800   3.507  0.00  0.00     0.025 A 
ATOM     20  C   UNL d   1      -2.768  -2.186   4.776  0.00  0.00     0.003 A 
ATOM     21  C   UNL d   1      -1.407  -2.327   5.038  0.00  0.00     0.025 A 
ATOM     22  C   UNL d   1      -0.461  -2.070   4.037  0.00  0.00     0.051 A 
ATOM     23 CL   UNL d   1       1.202  -2.222   4.484  0.00  0.00    -0.083 Cl
ENDBRANCH   3  16
TORSDOF 1
