REMARK  4 active torsions:
REMARK  status: ('A' for Active; 'I' for Inactive)
REMARK    1  A    between atoms: C_5  and  C_3 
REMARK    2  A    between atoms: C_12  and  N_4 
REMARK    3  A    between atoms: N_14  and  C_6 
REMARK    4  A    between atoms: C_13  and  C_9 
ROOT
ATOM      1  N   UNL d   1      -1.150  -0.570  -1.346  0.00  0.00    -0.291 N 
ATOM      2  HN  UNL d   1      -2.152  -0.755  -1.385  1.00  0.00     0.187 HD
ATOM      3  C   UNL d   1      -0.241  -1.143  -0.556  0.00  0.00     0.065 C 
ATOM      4  N   UNL d   1      -0.434   0.318  -2.086  0.00  0.00    -0.240 N 
ATOM      5  C   UNL d   1       0.869   0.456  -1.593  0.00  0.00     0.123 C 
ATOM      6  C   UNL d   1       1.009  -0.504  -0.619  0.00  0.00     0.081 C 
ENDROOT
BRANCH   3   7
ATOM      7  C   UNL d   1      -0.490  -2.375   0.180  0.00  0.00     0.024 A 
ATOM      8  C   UNL d   1      -1.210  -3.470  -0.360  0.00  0.00     0.049 A 
ATOM      9  C   UNL d   1      -1.083  -4.507   0.544  0.00  0.00     0.061 A 
ATOM     10  O   UNL d   1      -0.392  -4.072   1.641  0.00  0.00    -0.318 OA
ATOM     11  C   UNL d   1      -0.034  -2.774   1.417  0.00  0.00     0.062 A 
ATOM     12  C   UNL d   1       0.747  -2.131   2.494  0.00  0.00     0.077 C 
BRANCH   9  13
ATOM     13  C   UNL d   1      -1.497  -5.956   0.542  0.00  0.00    -0.002 C 
ATOM     14  C   UNL d   1      -2.246  -6.316  -0.755  0.00  0.00     0.021 C 
ATOM     15  C   UNL d   1      -0.244  -6.847   0.640  0.00  0.00     0.021 C 
ATOM     16  C   UNL d   1      -2.420  -6.236   1.739  0.00  0.00     0.021 C 
ENDBRANCH   9  13
ENDBRANCH   3   7
BRANCH   4  17
ATOM     17  C   UNL d   1      -1.011   0.868  -3.262  0.00  0.00     0.058 A 
ATOM     18  C   UNL d   1      -2.401   1.046  -3.330  0.00  0.00     0.033 A 
ATOM     19  C   UNL d   1      -2.989   1.522  -4.506  0.00  0.00     0.020 A 
ATOM     20  C   UNL d   1      -2.193   1.779  -5.622  0.00  0.00     0.006 A 
ATOM     21  C   UNL d   1      -0.812   1.587  -5.567  0.00  0.00     0.020 A 
ATOM     22  I   UNL d   1      -3.073   2.418  -7.394  0.00  0.00    -0.045 I 
ATOM     23  C   UNL d   1      -0.218   1.142  -4.383  0.00  0.00     0.033 A 
ENDBRANCH   4  17
BRANCH   5  24
ATOM     24  N   UNL d   1       1.780   1.369  -2.021  0.00  0.00    -0.384 N 
ATOM     25  H   UNL d   1       1.469   2.219  -2.487  0.00  0.00     0.157 HD
ATOM     26  H   UNL d   1       2.629   1.517  -1.479  0.00  0.00     0.157 HD
ENDBRANCH   5  24
TORSDOF 4
