REMARK  4 active torsions:
REMARK  status: ('A' for Active; 'I' for Inactive)
REMARK    1  A    between atoms: C_2  and  S_1 
REMARK    2  A    between atoms: C_3  and  S_1 
REMARK    3  A    between atoms: N_7  and  C_4 
REMARK    4  A    between atoms: C_12  and  N_7 
ROOT
ATOM      1  C   UNL d   1       0.228  -1.615   0.495  0.00  0.00     0.154 C 
ATOM      2  C   UNL d   1       1.087  -0.580   0.535  0.00  0.00     0.097 C 
ATOM      3  C   UNL d   1      -1.050  -1.573   1.088  0.00  0.00     0.113 C 
ATOM      4  N   UNL d   1      -2.111  -1.563   1.561  0.00  0.00    -0.191 NA
ENDROOT
BRANCH   1   5
ATOM      5  S   UNL d   1       0.665  -3.019  -0.413  0.00  0.00     0.217 S 
ATOM      6  O   UNL d   1       2.099  -3.237  -0.298  0.00  0.00    -0.216 OA
ATOM      7  O   UNL d   1       0.065  -2.932  -1.733  0.00  0.00    -0.216 OA
BRANCH   5   8
ATOM      8  C   UNL d   1      -0.108  -4.406   0.414  0.00  0.00     0.065 A 
ATOM      9  C   UNL d   1      -1.374  -4.847   0.005  0.00  0.00     0.036 A 
ATOM     10  C   UNL d   1      -1.940  -6.005   0.569  0.00  0.00    -0.025 A 
ATOM     11  C   UNL d   1      -3.209  -6.471   0.180  0.00  0.00     0.012 A 
ATOM     12  C   UNL d   1      -1.213  -6.732   1.542  0.00  0.00    -0.026 A 
ATOM     13  C   UNL d   1      -3.748  -7.634   0.735  0.00  0.00     0.001 A 
ATOM     14  C   UNL d   1      -3.027  -8.352   1.684  0.00  0.00     0.001 A 
ATOM     15  C   UNL d   1      -1.767  -7.903   2.085  0.00  0.00     0.012 A 
ATOM     16  C   UNL d   1       0.056  -6.275   1.935  0.00  0.00     0.014 A 
ATOM     17  C   UNL d   1       0.611  -5.121   1.375  0.00  0.00     0.025 A 
ENDBRANCH   5   8
ENDBRANCH   1   5
BRANCH   2  18
ATOM     18  N   UNL d   1       0.918   0.620   1.206  0.00  0.00    -0.266 NA
ATOM     19  H   UNL d   1       0.953   1.437   0.588  0.00  0.00     0.133 HD
BRANCH  18  20
ATOM     20  C   UNL d   1       1.645   0.952   2.392  0.00  0.00     0.034 A 
ATOM     21  C   UNL d   1       1.606   2.266   2.906  0.00  0.00     0.055 A 
ATOM     22 CL   UNL d   1       0.837   3.539   2.022  0.00  0.00    -0.082 Cl
ATOM     23  C   UNL d   1       2.192   2.581   4.137  0.00  0.00     0.026 A 
ATOM     24  C   UNL d   1       2.823   1.585   4.881  0.00  0.00     0.002 A 
ATOM     25  C   UNL d   1       2.875   0.283   4.391  0.00  0.00     0.002 A 
ATOM     26  C   UNL d   1       2.282  -0.032   3.164  0.00  0.00     0.025 A 
ENDBRANCH  18  20
ENDBRANCH   2  18
TORSDOF 4
