REMARK  5 active torsions:
REMARK  status: ('A' for Active; 'I' for Inactive)
REMARK       I    between atoms: C_4  and  N_10 
REMARK    1  A    between atoms: C_5  and  C_4 
REMARK    2  A    between atoms: C_21  and  C_6 
REMARK    3  A    between atoms: N_10  and  C_13 
REMARK    4  A    between atoms: S_14  and  C_21 
REMARK    5  A    between atoms: C_18  and  S_14 
ROOT
ATOM      1  C   UNL d   1       3.746   4.917   0.138  0.00  0.00     0.051 A 
ATOM      2  C   UNL d   1       2.426   4.443   0.268  0.00  0.00     0.027 A 
ATOM      3  C   UNL d   1       3.960   6.311   0.001  0.00  0.00     0.031 A 
ATOM      4  C   UNL d   1       1.378   5.395   0.187  0.00  0.00     0.021 A 
ATOM      5  C   UNL d   1       2.910   7.224  -0.065  0.00  0.00     0.002 A 
ATOM      6  C   UNL d   1       1.611   6.762   0.022  0.00  0.00     0.002 A 
ENDROOT
BRANCH   2   7
ATOM      7  S   UNL d   1       1.773   2.796   0.546  0.00  0.00    -0.120 SA
BRANCH   7   8
ATOM      8  C   UNL d   1       2.775   2.021   1.853  0.00  0.00     0.158 C 
BRANCH   8   9
ATOM      9  C   UNL d   1       3.061   2.829   3.064  0.00  0.00     0.113 A 
ATOM     10  N   UNL d   1       3.960   3.866   3.072  0.00  0.00    -0.322 N 
ATOM     11  C   UNL d   1       4.002   4.218   4.340  0.00  0.00     0.189 A 
ATOM     12  HN  UNL d   1       4.472   4.268   2.286  1.00  0.00     0.169 HD
ATOM     13  O   UNL d   1       3.220   3.410   5.125  0.00  0.00    -0.217 OA
ATOM     14  C   UNL d   1       4.780   5.322   4.819  0.00  0.00     0.058 A 
ATOM     15  N   UNL d   1       2.604   2.488   4.278  0.00  0.00    -0.246 N 
ATOM     16  HN  UNL d   1       1.961   1.736   4.523  1.00  0.00     0.196 HD
ATOM     17  S   UNL d   1       5.038   5.599   6.487  0.00  0.00    -0.098 SA
ATOM     18  C   UNL d   1       5.403   6.285   4.046  0.00  0.00     0.024 A 
ATOM     19  C   UNL d   1       5.965   7.003   6.178  0.00  0.00     0.050 A 
ATOM     20  C   UNL d   1       6.081   7.261   4.831  0.00  0.00     0.009 A 
ENDBRANCH   8   9
ENDBRANCH   7   8
ENDBRANCH   2   7
BRANCH   1  21
ATOM     21  N   UNL d   1       4.957   4.192   0.184  0.00  0.00    -0.322 N 
ATOM     22  C   UNL d   1       5.231   2.887  -0.152  0.00  0.00     0.262 C 
ATOM     23  O   UNL d   1       4.509   2.125  -0.776  0.00  0.00    -0.267 OA
ATOM     24  H   UNL d   1       5.770   4.762   0.380  0.00  0.00     0.169 HD
BRANCH  22  25
ATOM     25  C   UNL d   1       6.565   2.417   0.304  0.00  0.00     0.109 A 
ATOM     26  C   UNL d   1       6.713   1.130   0.819  0.00  0.00     0.135 A 
ATOM     27  F   UNL d   1       5.673   0.288   0.901  0.00  0.00    -0.205 F 
ATOM     28  C   UNL d   1       7.941   0.698   1.324  0.00  0.00     0.043 A 
ATOM     29  C   UNL d   1       9.043   1.552   1.312  0.00  0.00     0.006 A 
ATOM     30  C   UNL d   1       8.911   2.838   0.792  0.00  0.00     0.043 A 
ATOM     31  C   UNL d   1       7.678   3.260   0.297  0.00  0.00     0.135 A 
ATOM     32  F   UNL d   1       7.578   4.517  -0.162  0.00  0.00    -0.205 F 
ENDBRANCH  22  25
ENDBRANCH   1  21
TORSDOF 5
