REMARK  0 active torsions:
REMARK  status: ('A' for Active; 'I' for Inactive)
ROOT
ATOM      1  N   UNL d   1      -0.005  -1.627  -0.032  0.00  0.00    -0.358 N 
ATOM      2  C   UNL d   1       1.109  -0.836  -0.060  0.00  0.00     0.017 A 
ATOM      3  C   UNL d   1       0.700   0.482  -0.102  0.00  0.00    -0.023 A 
ATOM      4  C   UNL d   1      -0.722   0.491  -0.081  0.00  0.00    -0.001 A 
ATOM      5  C   UNL d   1      -1.138  -0.842  -0.028  0.00  0.00     0.043 A 
ATOM      6  C   UNL d   1       1.674   1.609  -0.133  0.00  0.00     0.041 C 
ATOM      7  C   UNL d   1       2.510  -1.327   0.020  0.00  0.00     0.057 C 
ATOM      8  C   UNL d   1      -1.700   1.505  -0.085  0.00  0.00     0.014 A 
ATOM      9  C   UNL d   1      -2.488  -1.208   0.028  0.00  0.00     0.030 A 
ATOM     10  C   UNL d   1       3.029   1.157   0.443  0.00  0.00     0.005 C 
ATOM     11  C   UNL d   1       3.504  -0.167  -0.187  0.00  0.00     0.006 C 
ATOM     12  C   UNL d   1      -3.054   1.154  -0.027  0.00  0.00     0.001 A 
ATOM     13  C   UNL d   1      -3.439  -0.184   0.030  0.00  0.00     0.002 A 
ATOM     14  H   UNL d   1      -0.008  -2.637   0.014  0.00  0.00     0.166 HD
ENDROOT
TORSDOF 0
