REMARK  3 active torsions:
REMARK  status: ('A' for Active; 'I' for Inactive)
REMARK    1  A    between atoms: C_7  and  C_3 
REMARK    2  A    between atoms: C_6  and  C_7 
REMARK       I    between atoms: N_12  and  C_6 
REMARK    3  A    between atoms: C_13  and  N_12 
ROOT
ATOM      1  C   UNL d   1       2.008   2.658   0.027  0.00  0.00     0.229 C 
ATOM      2  N   UNL d   1       2.890   1.597  -0.034  0.00  0.00    -0.327 N 
ATOM      3  O   UNL d   1       0.786   2.550  -0.101  0.00  0.00    -0.273 OA
ATOM      4  H   UNL d   1       3.844   1.780   0.278  0.00  0.00     0.169 HD
ENDROOT
BRANCH   1   5
ATOM      5  C   UNL d   1       2.565   4.038   0.317  0.00  0.00     0.181 C 
BRANCH   5   6
ATOM      6  C   UNL d   1       4.032   4.219   0.283  0.00  0.00     0.112 A 
ATOM      7  N   UNL d   1       4.931   3.306   0.792  0.00  0.00    -0.333 N 
ATOM      8  C   UNL d   1       6.065   3.954   0.670  0.00  0.00     0.260 A 
ATOM      9  HN  UNL d   1       4.759   2.372   1.165  1.00  0.00     0.168 HD
ATOM     10  O   UNL d   1       5.944   5.184   0.109  0.00  0.00    -0.232 OA
ATOM     11  N   UNL d   1       4.586   5.361  -0.149  0.00  0.00    -0.247 N 
ATOM     12  HN  UNL d   1       4.124   6.168  -0.568  1.00  0.00     0.196 HD
ENDBRANCH   5   6
ENDBRANCH   1   5
BRANCH   2  13
ATOM     13  C   UNL d   1       2.583   0.262  -0.387  0.00  0.00     0.036 A 
ATOM     14  C   UNL d   1       1.350  -0.136  -0.917  0.00  0.00     0.056 A 
ATOM     15  C   UNL d   1       1.117  -1.474  -1.251  0.00  0.00     0.074 A 
ATOM     16 CL   UNL d   1      -0.410  -1.932  -1.903  0.00  0.00    -0.081 Cl
ATOM     17  C   UNL d   1       2.116  -2.422  -1.058  0.00  0.00     0.138 A 
ATOM     18  C   UNL d   1       3.351  -2.043  -0.543  0.00  0.00     0.046 A 
ATOM     19  F   UNL d   1       1.911  -3.710  -1.369  0.00  0.00    -0.204 F 
ATOM     20  C   UNL d   1       3.586  -0.705  -0.214  0.00  0.00     0.032 A 
ENDBRANCH   2  13
TORSDOF 3
