REMARK  2 active torsions:
REMARK  status: ('A' for Active; 'I' for Inactive)
REMARK    1  A    between atoms: C_9  and  C_3 
REMARK    2  A    between atoms: C_10  and  C_4 
ROOT
ATOM      1  N   UNL d   1      -0.008  -3.585  -2.441  0.00  0.00    -0.197 NA
ATOM      2  C   UNL d   1      -0.476  -2.541  -2.235  0.00  0.00     0.065 C 
ATOM      3  C   UNL d   1      -1.093  -1.236  -1.978  0.00  0.00     0.188 C 
ENDROOT
BRANCH   3   4
ATOM      4  C   UNL d   1      -0.303  -0.503  -0.942  0.00  0.00     0.064 A 
ATOM      5  N   UNL d   1       0.719   0.289  -1.199  0.00  0.00    -0.352 N 
ATOM      6  C   UNL d   1       1.262   0.775  -0.017  0.00  0.00     0.049 A 
ATOM      7  HN  UNL d   1       1.061   0.513  -2.133  1.00  0.00     0.166 HD
ATOM      8  C   UNL d   1       0.618   0.349   1.129  0.00  0.00     0.081 A 
ATOM      9  S   UNL d   1      -0.702  -0.665   0.726  0.00  0.00    -0.085 SA
BRANCH   6  10
ATOM     10  C   UNL d   1       2.438   1.641  -0.017  0.00  0.00    -0.009 A 
ATOM     11  C   UNL d   1       2.663   2.577   1.006  0.00  0.00     0.017 A 
ATOM     12  C   UNL d   1       3.793   3.399   0.983  0.00  0.00     0.043 A 
ATOM     13  C   UNL d   1       4.702   3.288  -0.061  0.00  0.00     0.116 A 
ATOM     14  C   UNL d   1       4.503   2.368  -1.083  0.00  0.00     0.043 A 
ATOM     15  F   UNL d   1       5.781   4.080  -0.084  0.00  0.00    -0.206 F 
ATOM     16  C   UNL d   1       3.371   1.546  -1.062  0.00  0.00     0.017 A 
ENDBRANCH   6  10
ENDBRANCH   3   4
TORSDOF 2
