REMARK  5 active torsions:
REMARK  status: ('A' for Active; 'I' for Inactive)
REMARK    1  A    between atoms: N_2  and  C_1 
REMARK    2  A    between atoms: N_5  and  C_1 
REMARK    3  A    between atoms: C_3  and  N_2 
REMARK    4  A    between atoms: S_11  and  C_3 
REMARK    5  A    between atoms: C_4  and  N_5 
ROOT
ATOM      1  C   UNL d   1       0.934  -1.722   0.043  0.00  0.00     0.178 C 
ATOM      2  S   UNL d   1       0.583  -2.411   1.523  0.00  0.00    -0.040 SA
ENDROOT
BRANCH   1   3
ATOM      3  N   UNL d   1       2.229  -1.828  -0.437  0.00  0.00    -0.314 N 
ATOM      4  H   UNL d   1       2.908  -2.161   0.237  0.00  0.00     0.170 HD
BRANCH   3   5
ATOM      5  C   UNL d   1       2.730  -1.607  -1.691  0.00  0.00     0.139 C 
ATOM      6  N   UNL d   1       2.011  -1.464  -2.744  0.00  0.00    -0.380 N 
ATOM      7  H   UNL d   1       1.026  -1.622  -2.499  0.00  0.00     0.158 HD
ATOM      8  HN  UNL d   1       2.361  -1.232  -3.674  1.00  0.00     0.158 HD
BRANCH   5   9
ATOM      9  S   UNL d   1       4.460  -1.548  -1.713  0.00  0.00    -0.099 SA
ATOM     10  C   UNL d   1       4.756  -1.277  -3.475  0.00  0.00     0.099 C 
ENDBRANCH   5   9
ENDBRANCH   3   5
ENDBRANCH   1   3
BRANCH   1  11
ATOM     11  N   UNL d   1       0.103  -0.947  -0.743  0.00  0.00    -0.333 N 
ATOM     12  H   UNL d   1       0.579  -0.147  -1.145  0.00  0.00     0.168 HD
BRANCH  11  13
ATOM     13  C   UNL d   1      -1.309  -0.907  -0.760  0.00  0.00     0.041 A 
ATOM     14  C   UNL d   1      -2.041  -2.096  -0.637  0.00  0.00     0.053 A 
ATOM     15  C   UNL d   1      -3.431  -2.083  -0.731  0.00  0.00     0.036 A 
ATOM     16 CL   UNL d   1      -4.310  -3.557  -0.611  0.00  0.00    -0.084 Cl
ATOM     17  C   UNL d   1      -4.112  -0.891  -0.941  0.00  0.00     0.024 A 
ATOM     18  C   UNL d   1      -3.392   0.295  -1.078  0.00  0.00     0.011 A 
ATOM     19  C   UNL d   1      -1.985   0.304  -1.016  0.00  0.00    -0.035 A 
ATOM     20  C   UNL d   1      -1.311   1.648  -1.113  0.00  0.00     0.050 C 
ENDBRANCH  11  13
ENDBRANCH   1  11
TORSDOF 5
