REMARK  9 active torsions:
REMARK  status: ('A' for Active; 'I' for Inactive)
REMARK    1  A    between atoms: C_3  and  C_1 
REMARK    2  A    between atoms: C_2  and  C_4 
REMARK       I    between atoms: C_5  and  N_8 
REMARK    3  A    between atoms: C_14  and  C_5 
REMARK    4  A    between atoms: N_8  and  C_7 
REMARK    5  A    between atoms: C_11  and  C_22 
REMARK    6  A    between atoms: O_23  and  C_11 
REMARK    7  A    between atoms: C_12  and  C_14 
REMARK    8  A    between atoms: C_22  and  C_12 
REMARK    9  A    between atoms: C_24  and  C_12 
ROOT
ATOM      1  C   UNL d   1      -1.005  -2.263   1.776  0.00  0.00     0.050 A 
ATOM      2  C   UNL d   1       1.224  -3.245   1.868  0.00  0.00     0.050 A 
ATOM      3  C   UNL d   1       0.039  -2.970   1.165  0.00  0.00     0.032 A 
ATOM      4  C   UNL d   1       0.306  -2.119   3.834  0.00  0.00     0.036 A 
ATOM      5  C   UNL d   1       1.350  -2.803   3.199  0.00  0.00     0.045 A 
ATOM      6  C   UNL d   1      -0.861  -1.854   3.112  0.00  0.00     0.045 A 
ENDROOT
BRANCH   4   7
ATOM      7  N   UNL d   1       0.496  -1.710   5.174  0.00  0.00    -0.327 N 
ATOM      8  C   UNL d   1      -0.475  -1.212   6.023  0.00  0.00     0.222 C 
ATOM      9  O   UNL d   1      -1.675  -1.127   5.776  0.00  0.00    -0.273 OA
ATOM     10  H   UNL d   1       1.438  -1.819   5.558  0.00  0.00     0.169 HD
BRANCH   8  11
ATOM     11  C   UNL d   1       0.044  -0.784   7.385  0.00  0.00     0.112 C 
BRANCH  11  12
ATOM     12  C   UNL d   1       0.030  -1.880   8.496  0.00  0.00    -0.027 C 
ATOM     13  C   UNL d   1      -1.407  -2.435   8.644  0.00  0.00     0.016 C 
BRANCH  12  14
ATOM     14  C   UNL d   1       0.954  -3.081   8.176  0.00  0.00     0.119 C 
BRANCH  14  15
ATOM     15  C   UNL d   1       2.392  -2.716   7.902  0.00  0.00     0.140 C 
ATOM     16  O   UNL d   1       2.741  -2.118   6.891  0.00  0.00    -0.650 OA
BRANCH  15  17
ATOM     17  O   UNL d   1       3.261  -3.111   8.849  0.00  0.00    -0.776 OA
ATOM     18  H   UNL d   1       2.871  -3.615   9.589  0.00  0.00     0.167 HD
ENDBRANCH  15  17
ENDBRANCH  14  15
ENDBRANCH  12  14
BRANCH  12  19
ATOM     19  C   UNL d   1       0.441  -1.164   9.821  0.00  0.00     0.005 C 
ATOM     20  C   UNL d   1       0.502  -2.026  11.076  0.00  0.00     0.006 C 
ENDBRANCH  12  19
ENDBRANCH  11  12
ENDBRANCH   8  11
ENDBRANCH   4   7
BRANCH   1  21
ATOM     21  C   UNL d   1      -2.273  -1.919   1.030  0.00  0.00     0.417 C 
ATOM     22  F   UNL d   1      -2.253  -2.314  -0.275  0.00  0.00    -0.166 F 
ATOM     23  F   UNL d   1      -2.518  -0.581   1.008  0.00  0.00    -0.166 F 
ATOM     24  F   UNL d   1      -3.376  -2.498   1.577  0.00  0.00    -0.166 F 
ENDBRANCH   1  21
BRANCH   2  25
ATOM     25  C   UNL d   1       2.349  -4.013   1.214  0.00  0.00     0.417 C 
ATOM     26  F   UNL d   1       2.105  -4.329  -0.089  0.00  0.00    -0.166 F 
ATOM     27  F   UNL d   1       3.522  -3.323   1.216  0.00  0.00    -0.166 F 
ATOM     28  F   UNL d   1       2.605  -5.194   1.841  0.00  0.00    -0.166 F 
ENDBRANCH   2  25
TORSDOF 9
