REMARK  11 active torsions:
REMARK  status: ('A' for Active; 'I' for Inactive)
REMARK    1  A    between atoms: N_2  and  C_1 
REMARK    2  A    between atoms: N_4  and  C_1 
REMARK    3  A    between atoms: C_5  and  C_1 
REMARK    4  A    between atoms: C_6  and  C_1 
REMARK    5  A    between atoms: C_3  and  N_2 
REMARK       I    between atoms: C_10  and  N_4 
REMARK    6  A    between atoms: C_12  and  C_9 
REMARK    7  A    between atoms: O_23  and  C_10 
REMARK    8  A    between atoms: C_14  and  C_12 
REMARK    9  A    between atoms: O_24  and  C_14 
REMARK   10  A    between atoms: C_25  and  O_23 
REMARK   11  A    between atoms: C_26  and  O_24 
ROOT
ATOM      1  C   UNL d   1       1.121   0.078  -0.031  0.00  0.00     0.293 C 
ENDROOT
BRANCH   1   2
ATOM      2  N   UNL d   1       0.728   0.718   1.281  0.00  0.00    -0.231 NA
ATOM      3  H   UNL d   1      -0.270   0.920   1.281  0.00  0.00     0.132 HD
BRANCH   2   4
ATOM      4  C   UNL d   1       1.045   0.150   2.484  0.00  0.00     0.126 A 
ATOM      5  N   UNL d   1       0.189   0.198   3.481  0.00  0.00    -0.344 N 
ATOM      6  C   UNL d   1       0.694  -0.437   4.613  0.00  0.00     0.026 A 
ATOM      7  HN  UNL d   1      -0.727   0.643   3.431  1.00  0.00     0.167 HD
ATOM      8  C   UNL d   1       1.981  -0.917   4.468  0.00  0.00     0.078 A 
ATOM      9  S   UNL d   1       2.513  -0.663   2.879  0.00  0.00    -0.070 SA
BRANCH   6  10
ATOM     10  C   UNL d   1      -0.154  -0.572   5.834  0.00  0.00     0.168 C 
BRANCH  10  11
ATOM     11  C   UNL d   1      -0.474  -2.026   6.103  0.00  0.00     0.264 C 
ATOM     12  O   UNL d   1       0.244  -2.978   5.822  0.00  0.00    -0.265 OA
BRANCH  11  13
ATOM     13  O   UNL d   1      -1.692  -2.132   6.710  0.00  0.00    -0.322 OA
BRANCH  13  14
ATOM     14  C   UNL d   1      -2.250  -3.454   6.711  0.00  0.00     0.174 C 
ATOM     15  C   UNL d   1      -3.039  -3.631   5.426  0.00  0.00     0.034 C 
ENDBRANCH  13  14
ENDBRANCH  11  13
ENDBRANCH  10  11
ENDBRANCH   6  10
ENDBRANCH   2   4
ENDBRANCH   1   2
BRANCH   1  16
ATOM     16  N   UNL d   1       0.340   0.930  -0.969  0.00  0.00    -0.299 N 
ATOM     17  C   UNL d   1       0.570   0.802  -2.318  0.00  0.00     0.362 C 
ATOM     18  O   UNL d   1       1.192  -0.113  -2.820  0.00  0.00    -0.238 OA
ATOM     19  H   UNL d   1       0.079   1.860  -0.678  0.00  0.00     0.167 HD
BRANCH  17  20
ATOM     20  O   UNL d   1       0.137   1.913  -2.954  0.00  0.00    -0.304 OA
BRANCH  20  21
ATOM     21  C   UNL d   1       0.683   2.110  -4.274  0.00  0.00     0.176 C 
ATOM     22  C   UNL d   1       1.885   3.031  -4.154  0.00  0.00     0.034 C 
ENDBRANCH  20  21
ENDBRANCH  17  20
ENDBRANCH   1  16
BRANCH   1  23
ATOM     23  C   UNL d   1       0.652  -1.425  -0.103  0.00  0.00     0.436 C 
ATOM     24  F   UNL d   1      -0.481  -1.581   0.647  0.00  0.00    -0.167 F 
ATOM     25  F   UNL d   1       0.302  -1.843  -1.339  0.00  0.00    -0.167 F 
ATOM     26  F   UNL d   1       1.546  -2.308   0.384  0.00  0.00    -0.167 F 
ENDBRANCH   1  23
BRANCH   1  27
ATOM     27  C   UNL d   1       2.675   0.155  -0.350  0.00  0.00     0.436 C 
ATOM     28  F   UNL d   1       3.382   0.711   0.669  0.00  0.00    -0.167 F 
ATOM     29  F   UNL d   1       3.248  -1.033  -0.626  0.00  0.00    -0.167 F 
ATOM     30  F   UNL d   1       2.955   0.983  -1.393  0.00  0.00    -0.167 F 
ENDBRANCH   1  27
TORSDOF 11
