REMARK  5 active torsions:
REMARK  status: ('A' for Active; 'I' for Inactive)
REMARK    1  A    between atoms: O_10  and  C_1 
REMARK       I    between atoms: C_7  and  N_9 
REMARK    2  A    between atoms: C_8  and  C_7 
REMARK    3  A    between atoms: N_9  and  C_13 
REMARK    4  A    between atoms: C_14  and  O_10 
REMARK    5  A    between atoms: O_22  and  C_12 
ROOT
ATOM      1  C   UNL d   1       3.333  -4.015   0.810  0.00  0.00     0.037 A 
ATOM      2  C   UNL d   1       1.367  -3.571  -0.551  0.00  0.00     0.078 A 
ATOM      3  C   UNL d   1       2.122  -3.348   0.605  0.00  0.00     0.066 A 
ATOM      4  C   UNL d   1       2.938  -5.261  -1.240  0.00  0.00     0.005 A 
ATOM      5  C   UNL d   1       3.733  -4.979  -0.122  0.00  0.00     0.029 A 
ATOM      6  C   UNL d   1       1.756  -4.555  -1.455  0.00  0.00     0.037 A 
ENDROOT
BRANCH   1   7
ATOM      7  N   UNL d   1       4.197  -3.737   1.897  0.00  0.00    -0.323 N 
ATOM      8  C   UNL d   1       3.992  -2.779   2.879  0.00  0.00     0.259 C 
ATOM      9  O   UNL d   1       3.005  -2.071   3.025  0.00  0.00    -0.267 OA
ATOM     10  H   UNL d   1       5.062  -4.259   1.927  0.00  0.00     0.169 HD
BRANCH   8  11
ATOM     11  C   UNL d   1       5.118  -2.590   3.821  0.00  0.00     0.065 A 
ATOM     12  C   UNL d   1       4.936  -2.548   5.211  0.00  0.00     0.084 A 
ATOM     13  C   UNL d   1       6.002  -2.144   6.024  0.00  0.00     0.038 A 
ATOM     14  C   UNL d   1       7.242  -1.818   5.473  0.00  0.00     0.003 A 
ATOM     15  C   UNL d   1       7.431  -1.887   4.096  0.00  0.00     0.001 A 
ATOM     16  C   UNL d   1       6.372  -2.268   3.269  0.00  0.00     0.020 A 
BRANCH  12  17
ATOM     17  O   UNL d   1       3.779  -2.793   5.900  0.00  0.00    -0.355 OA
ATOM     18  C   UNL d   1       3.068  -3.967   5.518  0.00  0.00     0.210 C 
ENDBRANCH  12  17
ENDBRANCH   8  11
ENDBRANCH   1   7
BRANCH   2  19
ATOM     19  O   UNL d   1       0.210  -2.882  -0.847  0.00  0.00    -0.304 OA
BRANCH  19  20
ATOM     20  C   UNL d   1       0.116  -1.556  -0.484  0.00  0.00     0.159 A 
ATOM     21  C   UNL d   1       1.149  -0.623  -0.626  0.00  0.00     0.195 A 
ATOM     22  C   UNL d   1       0.968   0.698  -0.224  0.00  0.00     0.199 A 
ATOM     23  F   UNL d   1       2.327  -0.976  -1.163  0.00  0.00    -0.200 F 
ATOM     24  F   UNL d   1       1.975   1.575  -0.339  0.00  0.00    -0.199 F 
ATOM     25  C   UNL d   1      -0.258   1.111   0.277  0.00  0.00     0.199 A 
ATOM     26  C   UNL d   1      -1.306   0.207   0.372  0.00  0.00     0.199 A 
ATOM     27  F   UNL d   1      -0.436   2.387   0.647  0.00  0.00    -0.199 F 
ATOM     28  C   UNL d   1      -1.121  -1.119  -0.007  0.00  0.00     0.195 A 
ATOM     29  F   UNL d   1      -2.502   0.615   0.820  0.00  0.00    -0.199 F 
ATOM     30  F   UNL d   1      -2.147  -1.978   0.083  0.00  0.00    -0.200 F 
ENDBRANCH  19  20
ENDBRANCH   2  19
TORSDOF 5
