REMARK  2 active torsions:
REMARK  status: ('A' for Active; 'I' for Inactive)
REMARK    1  A    between atoms: C_2  and  N_1 
REMARK    2  A    between atoms: C_8  and  C_5 
ROOT
ATOM      1  C   UNL d   1      -0.047   2.258  -0.043  0.00  0.00     0.053 A 
ATOM      2  C   UNL d   1      -0.667   2.970   1.013  0.00  0.00    -0.023 A 
ATOM      3  C   UNL d   1       0.665   2.935  -1.056  0.00  0.00     0.031 A 
ATOM      4  C   UNL d   1      -0.494   4.376   1.000  0.00  0.00     0.010 A 
ATOM      5  C   UNL d   1       0.791   4.321  -1.040  0.00  0.00     0.002 A 
ATOM      6  C   UNL d   1       0.214   5.040  -0.007  0.00  0.00     0.001 A 
ENDROOT
BRANCH   1   7
ATOM      7  N   UNL d   1      -0.057   0.858  -0.109  0.00  0.00    -0.245 N 
ATOM      8  C   UNL d   1      -0.911   0.141  -0.893  0.00  0.00     0.255 C 
ATOM      9  C   UNL d   1      -0.498  -1.266  -0.785  0.00  0.00     0.080 C 
ATOM     10  O   UNL d   1      -1.848   0.502  -1.583  0.00  0.00    -0.268 OA
ATOM     11  C   UNL d   1       0.643  -1.303  -0.096  0.00  0.00     0.080 C 
ATOM     12  C   UNL d   1       0.993   0.075   0.271  0.00  0.00     0.255 C 
ATOM     13  O   UNL d   1       2.056   0.370   0.791  0.00  0.00    -0.268 OA
ENDBRANCH   1   7
BRANCH   2  14
ATOM     14  C   UNL d   1      -1.424   2.332   2.210  0.00  0.00    -0.022 C 
ATOM     15  C   UNL d   1      -0.398   2.083   3.335  0.00  0.00     0.019 C 
ATOM     16  C   UNL d   1      -2.535   3.269   2.757  0.00  0.00     0.019 C 
ATOM     17  C   UNL d   1      -2.151   0.999   1.926  0.00  0.00     0.019 C 
ENDBRANCH   2  14
TORSDOF 2
