REMARK  7 active torsions:
REMARK  status: ('A' for Active; 'I' for Inactive)
REMARK    1  A    between atoms: C_9  and  C_3 
REMARK    2  A    between atoms: O_18  and  C_4 
REMARK    3  A    between atoms: S_10  and  C_5 
REMARK    4  A    between atoms: C_13  and  C_9 
REMARK    5  A    between atoms: C_14  and  S_10 
REMARK    6  A    between atoms: C_11  and  C_14 
REMARK    7  A    between atoms: C_12  and  C_11 
ROOT
ATOM      1  N   UNL d   1      -0.498   1.315  -0.003  0.00  0.00    -0.317 N 
ATOM      2  HN  UNL d   1      -0.917   2.244  -0.018  1.00  0.00     0.170 HD
ATOM      3  C   UNL d   1      -0.743  -1.087  -0.052  0.00  0.00     0.019 A 
ATOM      4  C   UNL d   1      -1.238   0.204  -0.101  0.00  0.00     0.150 A 
ATOM      5  C   UNL d   1       0.819   1.138   0.116  0.00  0.00     0.146 A 
ATOM      6  N   UNL d   1       1.429  -0.060   0.082  0.00  0.00    -0.340 N 
ATOM      7  HN  UNL d   1       2.446  -0.138   0.120  1.00  0.00     0.167 HD
ATOM      8  C   UNL d   1       0.642  -1.159  -0.005  0.00  0.00     0.018 A 
ATOM      9  C   UNL d   1       1.373  -2.471  -0.009  0.00  0.00     0.069 C 
ENDROOT
BRANCH   5  10
ATOM     10  S   UNL d   1       1.800   2.596   0.382  0.00  0.00    -0.086 SA
BRANCH  10  11
ATOM     11  C   UNL d   1       3.445   1.848   0.561  0.00  0.00     0.166 C 
BRANCH  11  12
ATOM     12  C   UNL d   1       4.520   2.864   0.929  0.00  0.00     0.169 C 
ATOM     13  O   UNL d   1       4.327   4.075   1.019  0.00  0.00    -0.291 OA
BRANCH  12  14
ATOM     14  C   UNL d   1       5.898   2.344   1.211  0.00  0.00     0.011 A 
ATOM     15  C   UNL d   1       6.251   1.002   1.012  0.00  0.00     0.017 A 
ATOM     16  C   UNL d   1       7.540   0.555   1.332  0.00  0.00     0.025 A 
ATOM     17  C   UNL d   1       8.478   1.449   1.844  0.00  0.00     0.034 A 
ATOM     18  C   UNL d   1       8.152   2.787   2.026  0.00  0.00     0.025 A 
ATOM     19 CL   UNL d   1      10.049   0.883   2.267  0.00  0.00    -0.084 Cl
ATOM     20  C   UNL d   1       6.864   3.235   1.707  0.00  0.00     0.017 A 
ENDBRANCH  12  14
ENDBRANCH  11  12
ENDBRANCH  10  11
ENDBRANCH   5  10
BRANCH   4  21
ATOM     21  O   UNL d   1      -2.575   0.449  -0.234  0.00  0.00    -0.346 OA
ATOM     22  H   UNL d   1      -2.923  -0.207  -0.857  0.00  0.00     0.219 HD
ENDBRANCH   4  21
BRANCH   3  23
ATOM     23  C   UNL d   1      -1.640  -2.291   0.055  0.00  0.00     0.078 C 
BRANCH  23  24
ATOM     24  C   UNL d   1      -2.087  -2.987  -1.211  0.00  0.00    -0.089 C 
ATOM     25  C   UNL d   1      -1.776  -2.630  -2.469  0.00  0.00     0.014 C 
ATOM     26  C   UNL d   1      -2.963  -4.197  -0.980  0.00  0.00     0.043 C 
ENDBRANCH  23  24
ENDBRANCH   3  23
TORSDOF 7
