REMARK  5 active torsions:
REMARK  status: ('A' for Active; 'I' for Inactive)
REMARK    1  A    between atoms: N_3  and  C_1 
REMARK    2  A    between atoms: C_8  and  C_2 
REMARK       I    between atoms: C_4  and  N_3 
REMARK    3  A    between atoms: C_6  and  C_4 
REMARK    4  A    between atoms: O_13  and  C_8 
REMARK    5  A    between atoms: C_18  and  O_13 
ROOT
ATOM      1  C   UNL d   1       0.540  -1.123  -0.181  0.00  0.00     0.093 C 
ATOM      2  C   UNL d   1       1.531  -0.153  -0.148  0.00  0.00     0.079 C 
ATOM      3  S   UNL d   1      -1.037  -0.492  -0.286  0.00  0.00    -0.083 SA
ATOM      4  C   UNL d   1       0.908   1.171  -0.050  0.00  0.00    -0.036 C 
ATOM      5  C   UNL d   1      -0.473   1.095  -0.080  0.00  0.00     0.059 C 
ATOM      6  C   UNL d   1       1.622   2.483   0.041  0.00  0.00     0.050 C 
ENDROOT
BRANCH   1   7
ATOM      7  N   UNL d   1       0.520  -2.501  -0.242  0.00  0.00    -0.316 N 
ATOM      8  C   UNL d   1       1.076  -3.264   0.773  0.00  0.00     0.258 C 
ATOM      9  O   UNL d   1       1.715  -2.827   1.721  0.00  0.00    -0.267 OA
ATOM     10  H   UNL d   1      -0.337  -2.878  -0.631  0.00  0.00     0.169 HD
BRANCH   8  11
ATOM     11  C   UNL d   1       0.838  -4.742   0.689  0.00  0.00     0.054 A 
ATOM     12  C   UNL d   1      -0.289  -5.363   0.125  0.00  0.00     0.049 A 
ATOM     13 CL   UNL d   1      -1.634  -4.504  -0.543  0.00  0.00    -0.083 Cl
ATOM     14  C   UNL d   1      -0.393  -6.762   0.117  0.00  0.00     0.025 A 
ATOM     15  C   UNL d   1       0.611  -7.552   0.675  0.00  0.00     0.002 A 
ATOM     16  C   UNL d   1       1.726  -6.948   1.247  0.00  0.00     0.001 A 
ATOM     17  C   UNL d   1       1.838  -5.556   1.256  0.00  0.00     0.019 A 
ENDBRANCH   8  11
ENDBRANCH   1   7
BRANCH   2  18
ATOM     18  C   UNL d   1       2.979  -0.381  -0.307  0.00  0.00     0.296 C 
ATOM     19  O   UNL d   1       3.752   0.494  -0.686  0.00  0.00    -0.259 OA
BRANCH  18  20
ATOM     20  O   UNL d   1       3.371  -1.659  -0.069  0.00  0.00    -0.318 OA
BRANCH  20  21
ATOM     21  C   UNL d   1       4.736  -2.003  -0.333  0.00  0.00     0.174 C 
ATOM     22  C   UNL d   1       5.702  -1.459   0.709  0.00  0.00     0.034 C 
ENDBRANCH  20  21
ENDBRANCH  18  20
ENDBRANCH   2  18
TORSDOF 5
