REMARK  4 active torsions:
REMARK  status: ('A' for Active; 'I' for Inactive)
REMARK    1  A    between atoms: C_9  and  C_3 
REMARK    2  A    between atoms: C_10  and  C_4 
REMARK    3  A    between atoms: C_6  and  C_8 
REMARK    4  A    between atoms: C_11  and  C_12 
ROOT
ATOM      1  N   UNL d   1       1.270  -0.525   0.460  0.00  0.00    -0.349 N 
ATOM      2  HN  UNL d   1       2.054  -1.018   0.889  1.00  0.00     0.166 HD
ATOM      3  C   UNL d   1       0.196  -1.108  -0.040  0.00  0.00     0.084 A 
ATOM      4  C   UNL d   1       1.181   0.852   0.321  0.00  0.00     0.050 A 
ATOM      5  S   UNL d   1      -0.982  -0.018  -0.679  0.00  0.00    -0.081 SA
ATOM      6  C   UNL d   1       0.032   1.300  -0.298  0.00  0.00     0.082 A 
ENDROOT
BRANCH   3   7
ATOM      7  C   UNL d   1      -0.049  -2.560  -0.053  0.00  0.00    -0.002 A 
ATOM      8  C   UNL d   1       0.469  -3.372   0.962  0.00  0.00     0.015 A 
ATOM      9  C   UNL d   1       0.246  -4.758   0.961  0.00  0.00     0.009 A 
ATOM     10  C   UNL d   1      -0.488  -5.386  -0.064  0.00  0.00    -0.051 A 
ATOM     11  C   UNL d   1      -1.000  -4.562  -1.074  0.00  0.00     0.009 A 
ATOM     12  C   UNL d   1      -0.783  -3.179  -1.072  0.00  0.00     0.015 A 
BRANCH  10  13
ATOM     13  C   UNL d   1      -0.677  -6.913  -0.080  0.00  0.00    -0.024 C 
ATOM     14  C   UNL d   1      -1.475  -7.420  -1.305  0.00  0.00     0.019 C 
ATOM     15  C   UNL d   1       0.704  -7.601  -0.120  0.00  0.00     0.019 C 
ATOM     16  C   UNL d   1      -1.437  -7.375   1.180  0.00  0.00     0.019 C 
ENDBRANCH  10  13
ENDBRANCH   3   7
BRANCH   4  17
ATOM     17  C   UNL d   1       2.240   1.738   0.784  0.00  0.00    -0.009 A 
ATOM     18  C   UNL d   1       3.574   1.315   0.751  0.00  0.00     0.014 A 
ATOM     19  C   UNL d   1       4.602   2.159   1.188  0.00  0.00     0.017 A 
ATOM     20  C   UNL d   1       4.311   3.442   1.675  0.00  0.00     0.048 A 
ATOM     21  C   UNL d   1       2.974   3.862   1.715  0.00  0.00     0.017 A 
ATOM     22  C   UNL d   1       1.950   3.019   1.275  0.00  0.00     0.014 A 
BRANCH  20  23
ATOM     23  C   UNL d   1       5.399   4.367   2.161  0.00  0.00     0.417 C 
ATOM     24  F   UNL d   1       6.652   3.839   2.065  0.00  0.00    -0.166 F 
ATOM     25  F   UNL d   1       5.433   5.538   1.466  0.00  0.00    -0.166 F 
ATOM     26  F   UNL d   1       5.240   4.715   3.469  0.00  0.00    -0.166 F 
ENDBRANCH  20  23
ENDBRANCH   4  17
TORSDOF 4
