REMARK  4 active torsions:
REMARK  status: ('A' for Active; 'I' for Inactive)
REMARK    1  A    between atoms: N_7  and  C_2 
REMARK    2  A    between atoms: C_8  and  C_3 
REMARK    3  A    between atoms: O_17  and  C_8 
REMARK    4  A    between atoms: C_23  and  O_17 
ROOT
ATOM      1  C   UNL d   1      -0.048  -0.743   0.086  0.00  0.00     0.024 A 
ATOM      2  C   UNL d   1       1.148  -1.555   0.044  0.00  0.00     0.061 A 
ATOM      3  C   UNL d   1       2.387  -0.872  -0.076  0.00  0.00     0.082 A 
ATOM      4  C   UNL d   1       0.094   0.671   0.003  0.00  0.00     0.084 A 
ATOM      5  N   UNL d   1       1.287   1.277  -0.070  0.00  0.00    -0.362 N 
ATOM      6  HN  UNL d   1       1.355   2.294  -0.095  1.00  0.00     0.165 HD
ATOM      7  C   UNL d   1       2.395   0.513  -0.109  0.00  0.00     0.108 A 
ATOM      8  C   UNL d   1      -1.048   1.479  -0.006  0.00  0.00     0.146 A 
ATOM      9  C   UNL d   1      -2.337   0.971   0.065  0.00  0.00     0.086 A 
ATOM     10  C   UNL d   1      -1.377  -1.227   0.226  0.00  0.00     0.058 A 
ATOM     11  C   UNL d   1      -2.488  -0.389   0.191  0.00  0.00     0.120 A 
ATOM     12  F   UNL d   1      -0.920   2.814  -0.096  0.00  0.00    -0.204 F 
ATOM     13  F   UNL d   1      -3.715  -0.918   0.279  0.00  0.00    -0.206 F 
ENDROOT
BRANCH   2  14
ATOM     14  N   UNL d   1       1.136  -2.954   0.106  0.00  0.00    -0.375 N 
ATOM     15  C   UNL d   1       0.132  -3.809  -0.546  0.00  0.00     0.149 C 
ATOM     16  C   UNL d   1       0.741  -5.174  -0.905  0.00  0.00     0.187 C 
ATOM     17  O   UNL d   1       1.286  -5.814   0.261  0.00  0.00    -0.388 OA
ATOM     18  C   UNL d   1       2.335  -5.002   0.814  0.00  0.00     0.187 C 
ATOM     19  C   UNL d   1       1.813  -3.616   1.243  0.00  0.00     0.149 C 
ENDBRANCH   2  14
BRANCH   3  20
ATOM     20  C   UNL d   1       3.684  -1.559  -0.301  0.00  0.00     0.297 C 
ATOM     21  O   UNL d   1       3.832  -2.592  -0.928  0.00  0.00    -0.259 OA
BRANCH  20  22
ATOM     22  O   UNL d   1       4.684  -0.868   0.315  0.00  0.00    -0.318 OA
BRANCH  22  23
ATOM     23  C   UNL d   1       5.992  -1.455   0.217  0.00  0.00     0.174 C 
ATOM     24  C   UNL d   1       6.640  -1.134  -1.119  0.00  0.00     0.034 C 
ENDBRANCH  22  23
ENDBRANCH  20  22
ENDBRANCH   3  20
TORSDOF 4
