REMARK  2 active torsions:
REMARK  status: ('A' for Active; 'I' for Inactive)
REMARK    1  A    between atoms: S_5  and  C_1 
REMARK    2  A    between atoms: C_10  and  C_6 
ROOT
ATOM      1  C   UNL d   1      -0.088  -1.337   0.080  0.00  0.00     0.172 A 
ATOM      2  C   UNL d   1       1.237  -0.860   0.084  0.00  0.00     0.121 A 
ATOM      3  N   UNL d   1      -0.981  -0.340   0.064  0.00  0.00    -0.248 N 
ATOM      4  HN  UNL d   1      -1.998  -0.417   0.081  1.00  0.00     0.195 HD
ATOM      5  C   UNL d   1       1.112   0.510  -0.003  0.00  0.00     0.132 A 
ATOM      6  O   UNL d   1      -0.222   0.820   0.018  0.00  0.00    -0.234 OA
ATOM      7  C   UNL d   1       2.438  -1.614   0.125  0.00  0.00     0.105 C 
ATOM      8  N   UNL d   1       3.445  -2.189   0.153  0.00  0.00    -0.191 NA
ENDROOT
BRANCH   1   9
ATOM      9  S   UNL d   1      -0.520  -3.006   0.042  0.00  0.00     0.190 S 
ATOM     10  O   UNL d   1       0.011  -3.470  -1.225  0.00  0.00    -0.221 OA
ATOM     11  O   UNL d   1      -0.053  -3.515   1.313  0.00  0.00    -0.221 OA
ATOM     12  C   UNL d   1      -2.289  -3.051  -0.006  0.00  0.00     0.168 C 
ENDBRANCH   1   9
BRANCH   5  13
ATOM     13  C   UNL d   1       2.015   1.646  -0.180  0.00  0.00     0.002 A 
ATOM     14  C   UNL d   1       3.270   1.481  -0.788  0.00  0.00     0.016 A 
ATOM     15  C   UNL d   1       4.089   2.582  -1.063  0.00  0.00     0.024 A 
ATOM     16  C   UNL d   1       3.664   3.863  -0.727  0.00  0.00     0.034 A 
ATOM     17  C   UNL d   1       2.440   4.049  -0.091  0.00  0.00     0.024 A 
ATOM     18 CL   UNL d   1       4.642   5.220  -1.123  0.00  0.00    -0.084 Cl
ATOM     19  C   UNL d   1       1.622   2.946   0.184  0.00  0.00     0.016 A 
ENDBRANCH   5  13
TORSDOF 2
