REMARK  3 active torsions:
REMARK  status: ('A' for Active; 'I' for Inactive)
REMARK    1  A    between atoms: C_3  and  C_1 
REMARK    2  A    between atoms: C_14  and  N_2 
REMARK    3  A    between atoms: N_17  and  C_8 
ROOT
ATOM      1  C   UNL d   1      -0.551  -2.682  -0.027  0.00  0.00     0.048 C 
ATOM      2  C   UNL d   1      -1.182  -3.285  -1.134  0.00  0.00     0.034 C 
ATOM      3  C   UNL d   1      -1.323  -4.704  -1.162  0.00  0.00     0.013 A 
ATOM      4  C   UNL d   1      -0.915  -5.431  -0.019  0.00  0.00     0.045 A 
ATOM      5  N   UNL d   1      -0.445  -4.840   1.085  0.00  0.00    -0.364 N 
ATOM      6  HN  UNL d   1      -0.207  -5.385   1.914  1.00  0.00     0.165 HD
ATOM      7  C   UNL d   1      -0.296  -3.500   1.067  0.00  0.00     0.105 C 
ATOM      8  C   UNL d   1      -1.825  -5.432  -2.267  0.00  0.00     0.017 A 
ATOM      9  C   UNL d   1      -0.990  -6.815  -0.014  0.00  0.00     0.054 A 
ATOM     10  C   UNL d   1      -1.485  -7.510  -1.114  0.00  0.00     0.036 A 
ATOM     11  C   UNL d   1      -1.913  -6.825  -2.238  0.00  0.00     0.025 A 
ATOM     12 CL   UNL d   1      -1.556  -9.229  -1.077  0.00  0.00    -0.084 Cl
ENDROOT
BRANCH   1  13
ATOM     13  C   UNL d   1      -0.212  -1.254   0.004  0.00  0.00     0.152 C 
ATOM     14  N   UNL d   1       0.900  -0.660   0.602  0.00  0.00    -0.224 N 
ATOM     15  N   UNL d   1       0.687   0.674   0.653  0.00  0.00     0.001 NA
ATOM     16  N   UNL d   1      -0.406   0.896  -0.058  0.00  0.00    -0.007 NA
ATOM     17  N   UNL d   1      -0.972  -0.278  -0.468  0.00  0.00    -0.269 N 
ATOM     18  HN  UNL d   1      -1.817  -0.382  -1.029  1.00  0.00     0.185 HD
BRANCH  14  19
ATOM     19  C   UNL d   1       2.059  -1.245   1.171  0.00  0.00     0.056 A 
ATOM     20  C   UNL d   1       2.577  -2.452   0.675  0.00  0.00     0.034 A 
ATOM     21  C   UNL d   1       3.598  -3.105   1.363  0.00  0.00     0.044 A 
ATOM     22  C   UNL d   1       4.119  -2.538   2.521  0.00  0.00     0.116 A 
ATOM     23  C   UNL d   1       3.665  -1.306   2.980  0.00  0.00     0.044 A 
ATOM     24  F   UNL d   1       5.064  -3.191   3.208  0.00  0.00    -0.206 F 
ATOM     25  C   UNL d   1       2.646  -0.641   2.294  0.00  0.00     0.034 A 
ENDBRANCH  14  19
ENDBRANCH   1  13
BRANCH   2  26
ATOM     26  N   UNL d   1      -1.463  -2.513  -2.293  0.00  0.00    -0.301 NA
ATOM     27  H   UNL d   1      -1.582  -1.519  -2.079  0.00  0.00     0.124 HD
ATOM     28  H   UNL d   1      -2.265  -2.850  -2.817  0.00  0.00     0.124 HD
ENDBRANCH   2  26
TORSDOF 3
