REMARK  1 active torsions:
REMARK  status: ('A' for Active; 'I' for Inactive)
REMARK    1  A    between atoms: C_7  and  N_1 
ROOT
ATOM      1  N   UNL d   1       0.811  -0.747   0.019  0.00  0.00    -0.268 N 
ATOM      2  C   UNL d   1      -0.242  -0.722  -0.883  0.00  0.00     0.118 A 
ATOM      3  N   UNL d   1       0.590   0.090   1.068  0.00  0.00    -0.301 N 
ATOM      4  HN  UNL d   1       1.197   0.251   1.871  1.00  0.00     0.187 HD
ATOM      5  C   UNL d   1      -1.153   0.179  -0.378  0.00  0.00     0.075 A 
ATOM      6  C   UNL d   1      -0.592   0.654   0.821  0.00  0.00     0.025 A 
ATOM      7  N   UNL d   1      -0.338  -1.431  -2.022  0.00  0.00    -0.384 N 
ATOM      8  C   UNL d   1      -1.161   1.652   1.755  0.00  0.00     0.070 C 
ATOM      9  H   UNL d   1       0.342  -2.112  -2.342  0.00  0.00     0.157 HD
ATOM     10  H   UNL d   1      -1.154  -1.352  -2.620  0.00  0.00     0.157 HD
ENDROOT
BRANCH   1  11
ATOM     11  C   UNL d   1       2.086  -1.489  -0.026  0.00  0.00     0.044 C 
ATOM     12  C   UNL d   1       2.901  -1.102  -1.274  0.00  0.00     0.039 C 
ATOM     13  C   UNL d   1       2.963  -1.163   1.216  0.00  0.00     0.039 C 
ATOM     14  C   UNL d   1       1.856  -3.014  -0.015  0.00  0.00     0.039 C 
ENDBRANCH   1  11
TORSDOF 1
