REMARK  3 active torsions:
REMARK  status: ('A' for Active; 'I' for Inactive)
REMARK    1  A    between atoms: C_2  and  S_1 
REMARK    2  A    between atoms: N_3  and  S_1 
REMARK       I    between atoms: C_5  and  N_4 
REMARK    3  A    between atoms: C_16  and  C_5 
ROOT
ATOM      1  N   UNL d   1       0.434  -0.191   1.393  0.00  0.00    -0.203 NA
ATOM      2  N   UNL d   1       2.409   0.766   3.320  0.00  0.00    -0.349 N 
ATOM      3  C   UNL d   1       3.433   1.144   4.196  0.00  0.00     0.224 C 
ATOM      4  C   UNL d   1       0.377   1.207   1.904  0.00  0.00     0.127 C 
ATOM      5  C   UNL d   1       1.014  -1.107   2.422  0.00  0.00     0.127 C 
ATOM      6  C   UNL d   1       1.751   1.702   2.394  0.00  0.00     0.141 C 
ATOM      7  C   UNL d   1       2.399  -0.640   2.883  0.00  0.00     0.141 C 
ATOM      8  O   UNL d   1       4.164   0.303   4.723  0.00  0.00    -0.273 OA
ENDROOT
BRANCH   1   9
ATOM      9  S   UNL d   1       0.972  -0.411  -0.203  0.00  0.00     0.245 S 
ATOM     10  O   UNL d   1       1.966   0.608  -0.470  0.00  0.00    -0.206 OA
ATOM     11  O   UNL d   1       1.279  -1.808  -0.426  0.00  0.00    -0.206 OA
BRANCH   9  12
ATOM     12  C   UNL d   1      -0.467  -0.021  -1.171  0.00  0.00     0.096 A 
ATOM     13  C   UNL d   1      -1.605  -0.833  -1.153  0.00  0.00     0.058 A 
ATOM     14  C   UNL d   1      -2.683  -0.535  -1.996  0.00  0.00     0.049 A 
ATOM     15 CL   UNL d   1      -1.796  -2.207  -0.125  0.00  0.00    -0.083 Cl
ATOM     16  C   UNL d   1      -2.624   0.570  -2.847  0.00  0.00     0.035 A 
ATOM     17  C   UNL d   1      -1.494   1.386  -2.863  0.00  0.00     0.025 A 
ATOM     18 CL   UNL d   1      -3.946   0.921  -3.886  0.00  0.00    -0.084 Cl
ATOM     19  C   UNL d   1      -0.415   1.091  -2.030  0.00  0.00     0.028 A 
ENDBRANCH   9  12
ENDBRANCH   1   9
BRANCH   3  20
ATOM     20  C   UNL d   1       3.591   2.641   4.518  0.00  0.00     0.078 C 
ATOM     21  C   UNL d   1       4.974   2.992   5.089  0.00  0.00     0.014 C 
ATOM     22  C   UNL d   1       5.167   2.622   6.558  0.00  0.00     0.001 C 
ATOM     23  C   UNL d   1       4.028   3.111   7.444  0.00  0.00     0.000 C 
ATOM     24  C   UNL d   1       2.655   2.742   6.896  0.00  0.00     0.001 C 
ATOM     25  C   UNL d   1       2.473   3.150   5.436  0.00  0.00     0.014 C 
ENDBRANCH   3  20
TORSDOF 3
