REMARK  2 active torsions:
REMARK  status: ('A' for Active; 'I' for Inactive)
REMARK       I    between atoms: C_3  and  N_10 
REMARK       I    between atoms: N_12  and  C_3 
REMARK    1  A    between atoms: C_9  and  C_4 
REMARK    2  A    between atoms: N_10  and  N_5 
ROOT
ATOM      1  N   UNL d   1      -4.536   0.412   0.039  0.00  0.00    -0.307 N 
ATOM      2  HN  UNL d   1      -4.347   1.415   0.032  1.00  0.00     0.186 HD
ATOM      3  C   UNL d   1      -3.580  -0.462   0.033  0.00  0.00     0.126 C 
ENDROOT
BRANCH   1   4
ATOM      4  N   UNL d   1      -5.809  -0.078   0.054  0.00  0.00    -0.252 N 
ATOM      5  C   UNL d   1      -6.890   0.771   0.067  0.00  0.00     0.332 C 
ATOM      6  O   UNL d   1      -8.050   0.381   0.032  0.00  0.00    -0.246 OA
ATOM      7  N   UNL d   1      -6.557   2.086   0.127  0.00  0.00    -0.351 N 
ATOM      8  H   UNL d   1      -5.587   2.297  -0.067  0.00  0.00     0.160 HD
ATOM      9  H   UNL d   1      -7.274   2.781  -0.004  0.00  0.00     0.160 HD
ATOM     10  H   UNL d   1      -6.003  -1.073   0.024  0.00  0.00     0.191 HD
ENDBRANCH   1   4
BRANCH   3  11
ATOM     11  C   UNL d   1      -2.217   0.007   0.021  0.00  0.00     0.023 A 
ATOM     12  S   UNL d   1      -0.923  -1.111   0.017  0.00  0.00    -0.077 SA
ATOM     13  C   UNL d   1       0.219   0.141   0.008  0.00  0.00     0.075 A 
ATOM     14  C   UNL d   1      -0.341   1.393   0.006  0.00  0.00     0.033 A 
ATOM     15 CL   UNL d   1       1.894  -0.228   0.004  0.00  0.00    -0.076 Cl
ATOM     16  C   UNL d   1      -1.763   1.314   0.013  0.00  0.00     0.022 A 
ENDBRANCH   3  11
TORSDOF 2
