REMARK  5 active torsions:
REMARK  status: ('A' for Active; 'I' for Inactive)
REMARK    1  A    between atoms: C_5  and  C_1 
REMARK    2  A    between atoms: S_12  and  C_6 
REMARK    3  A    between atoms: C_9  and  C_11 
REMARK    4  A    between atoms: C_11  and  C_14 
REMARK    5  A    between atoms: C_14  and  S_12 
ROOT
ATOM      1  S   UNL d   1      -1.776  -1.937   0.060  0.00  0.00    -0.085 SA
ENDROOT
BRANCH   1   2
ATOM      2  C   UNL d   1      -2.474  -1.409  -1.429  0.00  0.00     0.161 A 
ATOM      3  N   UNL d   1      -3.198  -2.197  -2.270  0.00  0.00    -0.317 N 
ATOM      4  C   UNL d   1      -3.357  -1.483  -3.428  0.00  0.00     0.207 A 
ATOM      5  H   UNL d   1      -3.514  -3.148  -2.111  0.00  0.00     0.169 HD
ATOM      6  N   UNL d   1      -2.835  -0.283  -3.255  0.00  0.00    -0.280 N 
ATOM      7  N   UNL d   1      -2.268  -0.245  -1.998  0.00  0.00    -0.278 N 
ATOM      8  HN  UNL d   1      -2.849   0.481  -3.931  1.00  0.00     0.188 HD
ATOM      9  HN  UNL d   1      -1.776   0.548  -1.585  1.00  0.00     0.189 HD
BRANCH   4  10
ATOM     10  C   UNL d   1      -3.984  -2.077  -4.630  0.00  0.00     0.450 C 
ATOM     11  F   UNL d   1      -4.404  -3.350  -4.388  0.00  0.00    -0.163 F 
ATOM     12  F   UNL d   1      -5.071  -1.387  -5.053  0.00  0.00    -0.163 F 
ATOM     13  F   UNL d   1      -3.122  -2.156  -5.676  0.00  0.00    -0.163 F 
ENDBRANCH   4  10
ENDBRANCH   1   2
BRANCH   1  14
ATOM     14  C   UNL d   1      -2.960  -3.102   0.772  0.00  0.00     0.166 C 
BRANCH  14  15
ATOM     15  C   UNL d   1      -3.060  -4.355  -0.066  0.00  0.00     0.169 C 
ATOM     16  O   UNL d   1      -3.911  -4.427  -0.960  0.00  0.00    -0.291 OA
BRANCH  15  17
ATOM     17  C   UNL d   1      -2.078  -5.471   0.081  0.00  0.00     0.011 A 
ATOM     18  C   UNL d   1      -2.232  -6.583  -0.763  0.00  0.00     0.027 A 
ATOM     19  C   UNL d   1      -1.316  -7.645  -0.743  0.00  0.00    -0.025 A 
ATOM     20  C   UNL d   1      -1.458  -8.746  -1.602  0.00  0.00     0.012 A 
ATOM     21  C   UNL d   1      -0.224  -7.596   0.150  0.00  0.00    -0.026 A 
ATOM     22  C   UNL d   1      -0.529  -9.786  -1.584  0.00  0.00     0.001 A 
ATOM     23  C   UNL d   1       0.550  -9.739  -0.707  0.00  0.00     0.001 A 
ATOM     24  C   UNL d   1       0.701  -8.652   0.157  0.00  0.00     0.012 A 
ATOM     25  C   UNL d   1      -0.086  -6.489   1.003  0.00  0.00     0.013 A 
ATOM     26  C   UNL d   1      -1.003  -5.431   0.969  0.00  0.00     0.016 A 
ENDBRANCH  15  17
ENDBRANCH  14  15
ENDBRANCH   1  14
TORSDOF 5
