REMARK  5 active torsions:
REMARK  status: ('A' for Active; 'I' for Inactive)
REMARK    1  A    between atoms: N_2  and  C_1 
REMARK       I    between atoms: C_3  and  N_6 
REMARK    2  A    between atoms: C_4  and  C_3 
REMARK    3  A    between atoms: N_6  and  C_5 
REMARK    4  A    between atoms: O_15  and  C_10 
REMARK    5  A    between atoms: O_17  and  C_13 
ROOT
ATOM      1  C   UNL d   1       2.274  -2.874  -0.582  0.00  0.00     0.259 C 
ATOM      2  N   UNL d   1       1.069  -2.455  -0.057  0.00  0.00    -0.321 N 
ATOM      3  O   UNL d   1       2.913  -2.254  -1.423  0.00  0.00    -0.267 OA
ATOM      4  H   UNL d   1       0.532  -3.173   0.426  0.00  0.00     0.169 HD
ENDROOT
BRANCH   2   5
ATOM      5  C   UNL d   1       0.471  -1.181  -0.189  0.00  0.00     0.068 A 
ATOM      6  C   UNL d   1       1.120   0.042  -0.407  0.00  0.00     0.132 A 
ATOM      7  C   UNL d   1       0.398   1.244  -0.518  0.00  0.00     0.075 A 
ATOM      8  C   UNL d   1      -0.986   1.245  -0.361  0.00  0.00     0.070 A 
ATOM      9  C   UNL d   1      -1.649   0.040  -0.146  0.00  0.00     0.039 A 
ATOM     10  C   UNL d   1      -0.926  -1.158  -0.052  0.00  0.00     0.035 A 
BRANCH   6  11
ATOM     11  N   UNL d   1       2.555   0.199  -0.242  0.00  0.00    -0.113 N 
ATOM     12  O   UNL d   1       3.038  -0.168   0.842  0.00  0.00    -0.532 OA
ATOM     13  O   UNL d   1       3.165   0.819  -1.127  0.00  0.00    -0.532 OA
ENDBRANCH   6  11
BRANCH   8  14
ATOM     14  O   UNL d   1      -1.573   2.477  -0.417  0.00  0.00    -0.356 OA
ATOM     15  C   UNL d   1      -2.826   2.607   0.246  0.00  0.00     0.210 C 
ENDBRANCH   8  14
ENDBRANCH   2   5
BRANCH   1  16
ATOM     16  C   UNL d   1       2.756  -4.216  -0.125  0.00  0.00     0.065 A 
ATOM     17  C   UNL d   1       2.304  -4.840   1.047  0.00  0.00     0.081 A 
ATOM     18  C   UNL d   1       2.811  -6.076   1.448  0.00  0.00     0.037 A 
ATOM     19  C   UNL d   1       3.792  -6.703   0.678  0.00  0.00     0.003 A 
ATOM     20  C   UNL d   1       4.260  -6.094  -0.483  0.00  0.00     0.001 A 
ATOM     21  C   UNL d   1       3.751  -4.856  -0.882  0.00  0.00     0.020 A 
BRANCH  17  22
ATOM     22  O   UNL d   1       1.355  -4.251   1.839  0.00  0.00    -0.360 OA
ATOM     23  H   UNL d   1       1.748  -4.186   2.731  0.00  0.00     0.217 HD
ENDBRANCH  17  22
ENDBRANCH   1  16
TORSDOF 5
