REMARK  4 active torsions:
REMARK  status: ('A' for Active; 'I' for Inactive)
REMARK    1  A    between atoms: C_3  and  C_1 
REMARK       I    between atoms: N_7  and  C_1 
REMARK    2  A    between atoms: C_2  and  C_3 
REMARK       I    between atoms: N_6  and  C_2 
REMARK    3  A    between atoms: C_4  and  N_7 
REMARK    4  A    between atoms: C_5  and  N_6 
ROOT
ATOM      1  C   UNL d   1       0.414  -1.373  -0.194  0.00  0.00     0.206 C 
ENDROOT
BRANCH   1   2
ATOM      2  C   UNL d   1       1.648  -2.232  -0.311  0.00  0.00     0.231 C 
ATOM      3  N   UNL d   1       1.454  -3.517   0.175  0.00  0.00    -0.327 N 
ATOM      4  H   UNL d   1       0.497  -3.815   0.330  0.00  0.00     0.169 HD
ATOM      5  O   UNL d   1       2.681  -1.825  -0.833  0.00  0.00    -0.273 OA
BRANCH   3   6
ATOM      6  C   UNL d   1       2.454  -4.498   0.343  0.00  0.00     0.037 A 
ATOM      7  C   UNL d   1       3.823  -4.202   0.359  0.00  0.00     0.053 A 
ATOM      8  C   UNL d   1       4.761  -5.217   0.548  0.00  0.00     0.037 A 
ATOM      9 CL   UNL d   1       6.438  -4.834   0.589  0.00  0.00    -0.084 Cl
ATOM     10  C   UNL d   1       4.356  -6.540   0.714  0.00  0.00     0.048 A 
ATOM     11  C   UNL d   1       2.994  -6.832   0.706  0.00  0.00     0.037 A 
ATOM     12  C   UNL d   1       2.047  -5.821   0.535  0.00  0.00     0.053 A 
ATOM     13 CL   UNL d   1       2.475  -8.460   0.904  0.00  0.00    -0.084 Cl
ENDBRANCH   3   6
ENDBRANCH   1   2
BRANCH   1  14
ATOM     14  C   UNL d   1       0.555   0.120  -0.419  0.00  0.00     0.231 C 
ATOM     15  N   UNL d   1       1.706   0.543  -1.048  0.00  0.00    -0.327 N 
ATOM     16  H   UNL d   1       2.358  -0.188  -1.339  0.00  0.00     0.169 HD
ATOM     17  O   UNL d   1      -0.381   0.852  -0.096  0.00  0.00    -0.273 OA
BRANCH  15  18
ATOM     18  C   UNL d   1       2.072   1.863  -1.381  0.00  0.00     0.037 A 
ATOM     19  C   UNL d   1       1.425   2.996  -0.885  0.00  0.00     0.053 A 
ATOM     20  C   UNL d   1       1.839   4.269  -1.286  0.00  0.00     0.037 A 
ATOM     21 CL   UNL d   1       1.045   5.661  -0.654  0.00  0.00    -0.084 Cl
ATOM     22  C   UNL d   1       2.886   4.428  -2.188  0.00  0.00     0.048 A 
ATOM     23  C   UNL d   1       3.538   3.299  -2.670  0.00  0.00     0.037 A 
ATOM     24  C   UNL d   1       3.151   2.023  -2.259  0.00  0.00     0.053 A 
ATOM     25 CL   UNL d   1       4.827   3.477  -3.798  0.00  0.00    -0.084 Cl
ENDBRANCH  15  18
ENDBRANCH   1  14
TORSDOF 4
