REMARK  4 active torsions:
REMARK  status: ('A' for Active; 'I' for Inactive)
REMARK    1  A    between atoms: C_6  and  N_1 
REMARK    2  A    between atoms: C_5  and  C_2 
REMARK    3  A    between atoms: C_11  and  C_6 
REMARK    4  A    between atoms: C_14  and  C_11 
ROOT
ATOM      1  N   UNL d   1      -0.619  -1.103   0.246  0.00  0.00    -0.334 N 
ATOM      2  C   UNL d   1       0.735  -1.386  -0.191  0.00  0.00     0.184 C 
ATOM      3  S   UNL d   1       1.595   0.200  -0.307  0.00  0.00    -0.129 SA
ATOM      4  C   UNL d   1      -1.018   0.222   0.250  0.00  0.00     0.230 C 
ATOM      5  C   UNL d   1       0.091   1.177  -0.114  0.00  0.00     0.179 C 
ATOM      6  O   UNL d   1      -2.161   0.596   0.495  0.00  0.00    -0.273 OA
ENDROOT
BRANCH   1   7
ATOM      7  C   UNL d   1      -1.599  -2.178   0.405  0.00  0.00     0.132 C 
BRANCH   7   8
ATOM      8  C   UNL d   1      -2.488  -2.364  -0.832  0.00  0.00     0.058 C 
BRANCH   8   9
ATOM      9  C   UNL d   1      -3.502  -3.477  -0.692  0.00  0.00    -0.057 A 
ATOM     10  C   UNL d   1      -4.862  -3.223  -0.933  0.00  0.00     0.009 A 
ATOM     11  C   UNL d   1      -5.806  -4.250  -0.844  0.00  0.00     0.024 A 
ATOM     12  C   UNL d   1      -5.399  -5.539  -0.517  0.00  0.00     0.034 A 
ATOM     13  C   UNL d   1      -4.054  -5.812  -0.278  0.00  0.00     0.024 A 
ATOM     14 CL   UNL d   1      -6.559  -6.805  -0.412  0.00  0.00    -0.084 Cl
ATOM     15  C   UNL d   1      -3.108  -4.788  -0.374  0.00  0.00     0.009 A 
ENDBRANCH   8   9
ENDBRANCH   7   8
ENDBRANCH   1   7
BRANCH   2  16
ATOM     16  C   UNL d   1       1.469  -2.348   0.707  0.00  0.00    -0.010 A 
ATOM     17  C   UNL d   1       2.218  -3.388   0.161  0.00  0.00     0.097 A 
ATOM     18  N   UNL d   1       2.862  -4.328   0.889  0.00  0.00    -0.375 N 
ATOM     19  C   UNL d   1       2.779  -4.221   2.232  0.00  0.00     0.087 A 
ATOM     20  HN  UNL d   1       3.385  -5.082   0.444  1.00  0.00     0.164 HD
ATOM     21  C   UNL d   1       2.087  -3.213   2.880  0.00  0.00     0.018 A 
ATOM     22  C   UNL d   1       1.429  -2.263   2.105  0.00  0.00     0.013 A 
ENDBRANCH   2  16
TORSDOF 4
