REMARK  7 active torsions:
REMARK  status: ('A' for Active; 'I' for Inactive)
REMARK    1  A    between atoms: C_9  and  N_3 
REMARK    2  A    between atoms: C_12  and  C_4 
REMARK    3  A    between atoms: C_8  and  C_13 
REMARK    4  A    between atoms: C_10  and  C_9 
REMARK       I    between atoms: N_16  and  C_10 
REMARK       I    between atoms: C_11  and  N_15 
REMARK       I    between atoms: N_22  and  C_11 
REMARK    5  A    between atoms: N_15  and  N_16 
REMARK    6  A    between atoms: C_26  and  N_22 
REMARK    7  A    between atoms: C_27  and  C_26 
ROOT
ATOM      1  N   UNL d   1      -0.510  -0.772   0.020  0.00  0.00    -0.268 N 
ATOM      2  HN  UNL d   1      -0.883  -1.721  -0.010  1.00  0.00     0.190 HD
ATOM      3  N   UNL d   1       0.768  -0.348   0.088  0.00  0.00    -0.207 N 
ATOM      4  C   UNL d   1      -1.158   0.411   0.003  0.00  0.00     0.144 A 
ATOM      5  N   UNL d   1      -0.296   1.481   0.070  0.00  0.00    -0.266 N 
ATOM      6  HN  UNL d   1      -0.553   2.468   0.075  1.00  0.00     0.186 HD
ATOM      7  N   UNL d   1       0.929   0.987   0.125  0.00  0.00    -0.002 NA
ENDROOT
BRANCH   3   8
ATOM      8  C   UNL d   1       1.939  -1.198   0.058  0.00  0.00     0.271 C 
BRANCH   8   9
ATOM      9  C   UNL d   1       1.779  -2.693   0.020  0.00  0.00     0.257 C 
ATOM     10  N   UNL d   1       0.549  -3.267   0.227  0.00  0.00    -0.265 N 
ATOM     11  H   UNL d   1      -0.330  -2.747   0.123  0.00  0.00     0.190 HD
ATOM     12  O   UNL d   1       2.778  -3.408  -0.141  0.00  0.00    -0.270 OA
BRANCH  10  13
ATOM     13  N   UNL d   1       0.485  -4.674   0.174  0.00  0.00    -0.249 N 
ATOM     14  C   UNL d   1      -0.655  -5.272  -0.324  0.00  0.00     0.334 C 
ATOM     15  O   UNL d   1      -1.672  -4.659  -0.622  0.00  0.00    -0.246 OA
ATOM     16  N   UNL d   1      -0.505  -6.636  -0.405  0.00  0.00    -0.342 N 
ATOM     17  H   UNL d   1       0.300  -7.042   0.048  0.00  0.00     0.164 HD
ATOM     18  H   UNL d   1       1.376  -5.114  -0.051  0.00  0.00     0.192 HD
BRANCH  16  19
ATOM     19  C   UNL d   1      -1.560  -7.526  -0.842  0.00  0.00     0.124 C 
BRANCH  19  20
ATOM     20  C   UNL d   1      -1.452  -7.885  -2.322  0.00  0.00     0.015 C 
ATOM     21  C   UNL d   1      -0.145  -8.584  -2.673  0.00  0.00     0.006 C 
ENDBRANCH  19  20
ENDBRANCH  16  19
ENDBRANCH  10  13
ENDBRANCH   8   9
ENDBRANCH   3   8
BRANCH   4  22
ATOM     22  C   UNL d   1      -2.602   0.581  -0.097  0.00  0.00     0.011 A 
ATOM     23  C   UNL d   1      -3.164   1.867  -0.205  0.00  0.00     0.031 A 
ATOM     24  C   UNL d   1      -4.554   2.047  -0.321  0.00  0.00     0.048 A 
ATOM     25  C   UNL d   1      -5.383   0.916  -0.337  0.00  0.00     0.016 A 
ATOM     26  C   UNL d   1      -4.838  -0.364  -0.225  0.00  0.00     0.002 A 
ATOM     27  C   UNL d   1      -3.457  -0.530  -0.102  0.00  0.00     0.015 A 
BRANCH  24  28
ATOM     28  C   UNL d   1      -5.162   3.424  -0.439  0.00  0.00     0.417 C 
ATOM     29  F   UNL d   1      -4.265   4.435  -0.274  0.00  0.00    -0.166 F 
ATOM     30  F   UNL d   1      -5.742   3.634  -1.653  0.00  0.00    -0.166 F 
ATOM     31  F   UNL d   1      -6.141   3.642   0.483  0.00  0.00    -0.166 F 
ENDBRANCH  24  28
ENDBRANCH   4  22
TORSDOF 7
