REMARK  3 active torsions:
REMARK  status: ('A' for Active; 'I' for Inactive)
REMARK    1  A    between atoms: N_3  and  C_1 
REMARK    2  A    between atoms: C_8  and  C_2 
REMARK       I    between atoms: C_4  and  N_3 
REMARK    3  A    between atoms: C_6  and  C_4 
REMARK       I    between atoms: N_15  and  C_8 
ROOT
ATOM      1  C   UNL d   1       0.351  -0.936   0.141  0.00  0.00     0.093 A 
ATOM      2  C   UNL d   1       1.276   0.092  -0.013  0.00  0.00     0.072 A 
ATOM      3  S   UNL d   1      -1.239  -0.355   0.295  0.00  0.00    -0.083 SA
ATOM      4  C   UNL d   1       0.625   1.392   0.038  0.00  0.00    -0.037 A 
ATOM      5  C   UNL d   1      -0.743   1.262   0.174  0.00  0.00     0.059 A 
ATOM      6  C   UNL d   1       1.304   2.723  -0.038  0.00  0.00     0.050 C 
ENDROOT
BRANCH   1   7
ATOM      7  N   UNL d   1       0.592  -2.304   0.097  0.00  0.00    -0.313 N 
ATOM      8  C   UNL d   1      -0.295  -3.323   0.469  0.00  0.00     0.330 C 
ATOM      9  O   UNL d   1      -1.389  -3.167   1.010  0.00  0.00    -0.263 OA
ATOM     10  H   UNL d   1       1.528  -2.587  -0.194  0.00  0.00     0.169 HD
BRANCH   8  11
ATOM     11  C   UNL d   1       0.264  -4.726   0.169  0.00  0.00     0.472 C 
ATOM     12  F   UNL d   1       1.519  -4.665  -0.368  0.00  0.00    -0.162 F 
ATOM     13  F   UNL d   1       0.372  -5.494   1.288  0.00  0.00    -0.162 F 
ATOM     14  F   UNL d   1      -0.499  -5.420  -0.716  0.00  0.00    -0.162 F 
ENDBRANCH   8  11
ENDBRANCH   1   7
BRANCH   2  15
ATOM     15  C   UNL d   1       2.713  -0.105  -0.207  0.00  0.00     0.252 C 
ATOM     16  O   UNL d   1       3.417   0.617  -0.902  0.00  0.00    -0.268 OA
ATOM     17  N   UNL d   1       3.267  -1.149   0.487  0.00  0.00    -0.366 N 
ATOM     18  H   UNL d   1       2.825  -1.447   1.347  0.00  0.00     0.159 HD
ATOM     19  H   UNL d   1       4.282  -1.150   0.484  0.00  0.00     0.159 HD
ENDBRANCH   2  15
TORSDOF 3
