REMARK  8 active torsions:
REMARK  status: ('A' for Active; 'I' for Inactive)
REMARK    1  A    between atoms: N_2  and  C_1 
REMARK    2  A    between atoms: C_3  and  C_1 
REMARK    3  A    between atoms: N_4  and  C_1 
REMARK    4  A    between atoms: C_6  and  C_1 
REMARK       I    between atoms: C_5  and  N_2 
REMARK    5  A    between atoms: C_7  and  N_4 
REMARK    6  A    between atoms: C_10  and  C_5 
REMARK    7  A    between atoms: O_18  and  C_6 
REMARK    8  A    between atoms: C_26  and  O_18 
ROOT
ATOM      1  C   UNL d   1       0.918   0.112  -0.137  0.00  0.00     0.281 C 
ENDROOT
BRANCH   1   2
ATOM      2  N   UNL d   1       0.734   0.070   1.323  0.00  0.00    -0.319 N 
ATOM      3  C   UNL d   1      -0.427   0.432   1.964  0.00  0.00     0.253 C 
ATOM      4  O   UNL d   1      -1.429   0.855   1.400  0.00  0.00    -0.268 OA
ATOM      5  H   UNL d   1       1.486  -0.367   1.837  0.00  0.00     0.165 HD
BRANCH   3   6
ATOM      6  C   UNL d   1      -0.391   0.348   3.448  0.00  0.00     0.032 A 
ATOM      7  C   UNL d   1      -0.816   1.447   4.209  0.00  0.00     0.023 A 
ATOM      8  C   UNL d   1      -0.719   1.418   5.607  0.00  0.00    -0.061 A 
ATOM      9  C   UNL d   1      -1.109   2.603   6.442  0.00  0.00     0.048 C 
ATOM     10  C   UNL d   1      -0.256   0.254   6.235  0.00  0.00     0.007 A 
ATOM     11  C   UNL d   1       0.137  -0.851   5.477  0.00  0.00     0.002 A 
ATOM     12  C   UNL d   1       0.083  -0.803   4.083  0.00  0.00     0.017 A 
ENDBRANCH   3   6
ENDBRANCH   1   2
BRANCH   1  13
ATOM     13  C   UNL d   1       0.512   1.505  -0.796  0.00  0.00     0.436 C 
ATOM     14  F   UNL d   1       0.038   2.417   0.086  0.00  0.00    -0.166 F 
ATOM     15  F   UNL d   1       1.552   2.139  -1.404  0.00  0.00    -0.166 F 
ATOM     16  F   UNL d   1      -0.433   1.341  -1.762  0.00  0.00    -0.166 F 
ENDBRANCH   1  13
BRANCH   1  17
ATOM     17  N   UNL d   1       0.177  -1.050  -0.729  0.00  0.00    -0.236 NA
ATOM     18  H   UNL d   1       0.159  -0.948  -1.745  0.00  0.00     0.132 HD
BRANCH  17  19
ATOM     19  C   UNL d   1       0.603  -2.350  -0.427  0.00  0.00     0.082 A 
ATOM     20  N   UNL d   1       1.531  -2.568   0.528  0.00  0.00    -0.351 N 
ATOM     21  C   UNL d   1       1.851  -3.854   0.837  0.00  0.00     0.006 A 
ATOM     22  HN  UNL d   1       1.982  -1.788   1.007  1.00  0.00     0.167 HD
ATOM     23  C   UNL d   1       2.901  -4.069   1.885  0.00  0.00     0.068 C 
ATOM     24  C   UNL d   1       1.250  -4.952   0.233  0.00  0.00     0.024 A 
ATOM     25  C   UNL d   1       0.308  -4.723  -0.758  0.00  0.00     0.005 A 
ATOM     26  C   UNL d   1      -0.014  -3.410  -1.092  0.00  0.00     0.042 A 
ENDBRANCH  17  19
ENDBRANCH   1  17
BRANCH   1  27
ATOM     27  C   UNL d   1       2.408   0.015  -0.578  0.00  0.00     0.312 C 
ATOM     28  O   UNL d   1       2.757  -0.145  -1.748  0.00  0.00    -0.260 OA
BRANCH  27  29
ATOM     29  O   UNL d   1       3.278   0.207   0.461  0.00  0.00    -0.319 OA
BRANCH  29  30
ATOM     30  C   UNL d   1       4.649   0.407   0.080  0.00  0.00     0.174 C 
ATOM     31  C   UNL d   1       5.346  -0.881  -0.323  0.00  0.00     0.034 C 
ENDBRANCH  29  30
ENDBRANCH  27  29
ENDBRANCH   1  27
TORSDOF 8
