REMARK  1 active torsions:
REMARK  status: ('A' for Active; 'I' for Inactive)
REMARK    1  A    between atoms: C_11  and  C_2 
ROOT
ATOM      1  C   UNL d   1      -3.730   0.596   0.861  0.00  0.00     0.023 C 
ATOM      2  C   UNL d   1      -2.865   0.120   1.789  0.00  0.00    -0.003 C 
ATOM      3  C   UNL d   1      -4.637   1.675   1.415  0.00  0.00     0.124 C 
ATOM      4  C   UNL d   1      -3.770   0.249  -0.573  0.00  0.00     0.192 C 
ATOM      5  C   UNL d   1      -3.190   0.802   3.056  0.00  0.00    -0.015 A 
ATOM      6  S   UNL d   1      -4.477   3.183   0.436  0.00  0.00    -0.114 SA
ATOM      7  C   UNL d   1      -4.103   1.829   2.813  0.00  0.00    -0.028 A 
ATOM      8  C   UNL d   1      -4.492   1.164  -1.511  0.00  0.00     0.031 A 
ATOM      9  C   UNL d   1      -4.843   2.476  -1.157  0.00  0.00     0.015 A 
ATOM     10  C   UNL d   1      -4.345   2.793   3.781  0.00  0.00     0.011 A 
ATOM     11  C   UNL d   1      -2.603   0.634   4.303  0.00  0.00     0.036 A 
ATOM     12  O   UNL d   1      -3.282  -0.799  -0.995  0.00  0.00    -0.287 OA
ATOM     13  C   UNL d   1      -2.867   1.579   5.286  0.00  0.00     0.035 A 
ATOM     14  C   UNL d   1      -3.699   2.674   5.019  0.00  0.00     0.024 A 
ATOM     15 CL   UNL d   1      -2.120   1.421   6.828  0.00  0.00    -0.084 Cl
ATOM     16  C   UNL d   1      -4.806   0.689  -2.795  0.00  0.00     0.017 A 
ATOM     17  C   UNL d   1      -5.497   3.293  -2.092  0.00  0.00     0.019 A 
ATOM     18  C   UNL d   1      -5.469   1.505  -3.712  0.00  0.00     0.001 A 
ATOM     19  C   UNL d   1      -5.816   2.807  -3.361  0.00  0.00     0.001 A 
ENDROOT
BRANCH   2  20
ATOM     20  C   UNL d   1      -1.548  -0.498   1.548  0.00  0.00    -0.024 A 
ATOM     21  C   UNL d   1      -0.599   0.300   0.889  0.00  0.00     0.012 A 
ATOM     22  C   UNL d   1       0.762   0.090   1.091  0.00  0.00     0.001 A 
ATOM     23  C   UNL d   1       1.185  -0.932   1.935  0.00  0.00     0.000 A 
ATOM     24  C   UNL d   1       0.252  -1.785   2.526  0.00  0.00     0.001 A 
ATOM     25  C   UNL d   1      -1.116  -1.582   2.320  0.00  0.00     0.012 A 
ENDBRANCH   2  20
TORSDOF 1
