REMARK  6 active torsions:
REMARK  status: ('A' for Active; 'I' for Inactive)
REMARK    1  A    between atoms: C_2  and  C_1 
REMARK       I    between atoms: N_6  and  C_2 
REMARK    2  A    between atoms: N_3  and  C_9 
REMARK    3  A    between atoms: N_7  and  C_4 
REMARK    4  A    between atoms: C_13  and  N_6 
REMARK    5  A    between atoms: C_9  and  C_10 
REMARK    6  A    between atoms: C_10  and  C_13 
ROOT
ATOM      1  C   UNL d   1       1.907   1.873  -1.027  0.00  0.00     0.253 C 
ATOM      2  O   UNL d   1       2.172   2.199  -2.182  0.00  0.00    -0.268 OA
ATOM      3  N   UNL d   1       2.283   2.623   0.064  0.00  0.00    -0.357 N 
ATOM      4  H   UNL d   1       2.165   2.203   0.984  0.00  0.00     0.162 HD
ENDROOT
BRANCH   1   5
ATOM      5  C   UNL d   1       1.174   0.601  -0.759  0.00  0.00     0.052 A 
ATOM      6  C   UNL d   1       0.329   0.394   0.353  0.00  0.00     0.021 A 
ATOM      7  C   UNL d   1      -0.247  -0.876   0.523  0.00  0.00     0.024 A 
ATOM      8  C   UNL d   1      -0.082  -1.881  -0.434  0.00  0.00     0.002 A 
ATOM      9  C   UNL d   1       0.706  -1.651  -1.556  0.00  0.00     0.001 A 
ATOM     10  C   UNL d   1       1.336  -0.419  -1.713  0.00  0.00     0.019 A 
BRANCH   6  11
ATOM     11  N   UNL d   1       0.170   1.339   1.391  0.00  0.00    -0.302 NA
ATOM     12  H   UNL d   1       0.122   2.291   1.021  0.00  0.00     0.124 HD
ATOM     13  H   UNL d   1      -0.630   1.145   1.987  0.00  0.00     0.124 HD
ENDBRANCH   6  11
ENDBRANCH   1   5
BRANCH   3  14
ATOM     14  C   UNL d   1       3.063   3.842  -0.063  0.00  0.00     0.124 C 
BRANCH  14  15
ATOM     15  C   UNL d   1       4.561   3.549  -0.074  0.00  0.00     0.050 C 
BRANCH  15  16
ATOM     16  C   UNL d   1       5.423   4.813  -0.211  0.00  0.00     0.274 C 
BRANCH  16  17
ATOM     17  N   UNL d   1       5.222   5.842   0.829  0.00  0.00     0.088 N 
ATOM     18  C   UNL d   1       5.542   5.343   2.177  0.00  0.00     0.272 C 
ATOM     19  C   UNL d   1       5.313   6.420   3.240  0.00  0.00     0.030 C 
ATOM     20  C   UNL d   1       6.123   7.674   2.943  0.00  0.00     0.003 C 
ATOM     21  C   UNL d   1       5.843   8.153   1.524  0.00  0.00     0.030 C 
ATOM     22  C   UNL d   1       6.040   7.028   0.508  0.00  0.00     0.272 C 
ENDBRANCH  16  17
ENDBRANCH  15  16
ENDBRANCH  14  15
ENDBRANCH   3  14
TORSDOF 6
