REMARK  2 active torsions:
REMARK  status: ('A' for Active; 'I' for Inactive)
REMARK    1  A    between atoms: N_12  and  C_3 
REMARK    2  A    between atoms: C_15  and  N_12 
ROOT
ATOM      1  C   UNL d   1      -0.189   0.939   0.166  0.00  0.00     0.070 A 
ATOM      2  C   UNL d   1       0.141  -0.406   0.126  0.00  0.00     0.138 A 
ATOM      3  C   UNL d   1      -1.536   1.281   0.004  0.00  0.00     0.117 A 
ATOM      4  N   UNL d   1       2.089   0.758   0.348  0.00  0.00    -0.307 N 
ATOM      5  HN  UNL d   1       3.078   0.979   0.459  1.00  0.00     0.186 HD
ATOM      6  N   UNL d   1       1.507  -0.458   0.205  0.00  0.00    -0.281 N 
ATOM      7  C   UNL d   1       1.049   1.597   0.306  0.00  0.00     0.126 A 
ATOM      8  N   UNL d   1      -0.712  -1.437  -0.003  0.00  0.00    -0.337 N 
ATOM      9  HN  UNL d   1      -0.435  -2.419  -0.009  1.00  0.00     0.168 HD
ATOM     10  N   UNL d   1      -2.426   0.270  -0.150  0.00  0.00    -0.338 N 
ATOM     11  HN  UNL d   1      -3.417   0.467  -0.284  1.00  0.00     0.168 HD
ATOM     12  C   UNL d   1      -1.978  -1.003  -0.123  0.00  0.00     0.183 A 
ATOM     13  C   UNL d   1       2.335  -1.630   0.076  0.00  0.00     0.179 C 
ENDROOT
BRANCH   3  14
ATOM     14  N   UNL d   1      -1.942   2.610  -0.050  0.00  0.00    -0.372 N 
ATOM     15  H   UNL d   1      -1.739   3.107   0.810  0.00  0.00     0.161 HD
BRANCH  14  16
ATOM     16  C   UNL d   1      -3.228   2.916  -0.669  0.00  0.00     0.075 C 
ATOM     17  C   UNL d   1      -4.389   2.771   0.309  0.00  0.00     0.031 C 
ATOM     18  C   UNL d   1      -3.157   4.355  -1.188  0.00  0.00     0.031 C 
ENDBRANCH  14  16
ENDBRANCH   3  14
TORSDOF 2
