REMARK  2 active torsions:
REMARK  status: ('A' for Active; 'I' for Inactive)
REMARK    1  A    between atoms: C_4  and  C_1 
REMARK    2  A    between atoms: C_11  and  C_6 
ROOT
ATOM      1  C   UNL d   1      -3.730  -0.036  -0.007  0.00  0.00     0.091 C 
ATOM      2  C   UNL d   1      -4.413   1.129  -0.001  0.00  0.00     0.063 C 
ATOM      3  C   UNL d   1      -2.298  -0.089  -0.021  0.00  0.00     0.103 C 
ATOM      4  N   UNL d   1      -1.147  -0.230  -0.008  0.00  0.00    -0.191 NA
ENDROOT
BRANCH   1   5
ATOM      5  C   UNL d   1      -4.499  -1.244   0.024  0.00  0.00     0.127 A 
ATOM      6  N   UNL d   1      -5.811  -1.417   0.055  0.00  0.00    -0.339 N 
ATOM      7  C   UNL d   1      -6.022  -2.773   0.024  0.00  0.00     0.060 A 
ATOM      8  HN  UNL d   1      -6.523  -0.687   0.094  1.00  0.00     0.167 HD
ATOM      9  C   UNL d   1      -7.224  -3.495   0.019  0.00  0.00     0.032 A 
ATOM     10  C   UNL d   1      -4.817  -3.459  -0.012  0.00  0.00     0.060 A 
ATOM     11  C   UNL d   1      -7.166  -4.894  -0.024  0.00  0.00     0.002 A 
ATOM     12  C   UNL d   1      -5.937  -5.559  -0.058  0.00  0.00     0.002 A 
ATOM     13  C   UNL d   1      -4.728  -4.853  -0.052  0.00  0.00     0.032 A 
ATOM     14  N   UNL d   1      -3.864  -2.471  -0.003  0.00  0.00    -0.339 N 
ATOM     15  H   UNL d   1      -2.866  -2.631  -0.031  0.00  0.00     0.167 HD
ENDBRANCH   1   5
BRANCH   2  16
ATOM     16  C   UNL d   1      -3.789   2.405  -0.090  0.00  0.00     0.076 A 
ATOM     17  O   UNL d   1      -2.602   2.630  -0.750  0.00  0.00    -0.323 OA
ATOM     18  C   UNL d   1      -2.290   3.941  -0.649  0.00  0.00     0.142 A 
ATOM     19  C   UNL d   1      -3.256   4.606   0.060  0.00  0.00     0.027 A 
ATOM     20  C   UNL d   1      -4.223   3.630   0.403  0.00  0.00     0.039 A 
ENDBRANCH   2  16
TORSDOF 2
