REMARK  4 active torsions:
REMARK  status: ('A' for Active; 'I' for Inactive)
REMARK       I    between atoms: N_4  and  C_1 
REMARK       I    between atoms: N_5  and  C_1 
REMARK    1  A    between atoms: C_2  and  C_7 
REMARK       I    between atoms: C_3  and  N_8 
REMARK    2  A    between atoms: C_7  and  C_3 
REMARK    3  A    between atoms: N_8  and  N_4 
REMARK    4  A    between atoms: C_11  and  N_5 
ROOT
ATOM      1  C   UNL d   1       0.667   1.575  -3.341  0.00  0.00     0.240 C 
ATOM      2  N   UNL d   1       1.004   0.904  -2.177  0.00  0.00    -0.266 N 
ATOM      3  O   UNL d   1       1.505   1.899  -4.184  0.00  0.00    -0.272 OA
ATOM      4  H   UNL d   1       0.295   0.747  -1.467  0.00  0.00     0.190 HD
ENDROOT
BRANCH   2   5
ATOM      5  N   UNL d   1       2.339   0.944  -1.690  0.00  0.00    -0.249 N 
ATOM      6  C   UNL d   1       3.444   0.360  -2.292  0.00  0.00     0.339 C 
ATOM      7  N   UNL d   1       3.259   0.003  -3.596  0.00  0.00    -0.308 N 
ATOM      8  O   UNL d   1       4.471   0.222  -1.633  0.00  0.00    -0.245 OA
ATOM      9  H   UNL d   1       2.434   0.427  -4.000  0.00  0.00     0.170 HD
ATOM     10  H   UNL d   1       2.481   1.217  -0.723  0.00  0.00     0.192 HD
BRANCH   7  11
ATOM     11  C   UNL d   1       4.171  -0.507  -4.529  0.00  0.00     0.036 A 
ATOM     12  C   UNL d   1       5.480  -0.875  -4.231  0.00  0.00     0.031 A 
ATOM     13  C   UNL d   1       6.326  -1.330  -5.250  0.00  0.00     0.026 A 
ATOM     14  C   UNL d   1       5.855  -1.428  -6.560  0.00  0.00     0.034 A 
ATOM     15  C   UNL d   1       4.546  -1.075  -6.864  0.00  0.00     0.026 A 
ATOM     16 CL   UNL d   1       6.899  -1.982  -7.809  0.00  0.00    -0.084 Cl
ATOM     17  C   UNL d   1       3.708  -0.612  -5.850  0.00  0.00     0.031 A 
ENDBRANCH   7  11
ENDBRANCH   2   5
BRANCH   1  18
ATOM     18  C   UNL d   1      -0.820   1.790  -3.574  0.00  0.00     0.144 C 
BRANCH  18  19
ATOM     19  C   UNL d   1      -1.101   3.255  -3.833  0.00  0.00    -0.038 A 
ATOM     20  C   UNL d   1      -1.550   4.149  -2.821  0.00  0.00    -0.019 A 
ATOM     21  C   UNL d   1      -1.593   5.536  -3.119  0.00  0.00    -0.025 A 
ATOM     22  C   UNL d   1      -1.951   3.746  -1.527  0.00  0.00     0.013 A 
ATOM     23  C   UNL d   1      -1.997   6.454  -2.137  0.00  0.00     0.012 A 
ATOM     24  C   UNL d   1      -1.221   5.999  -4.389  0.00  0.00     0.012 A 
ATOM     25  C   UNL d   1      -2.382   6.025  -0.869  0.00  0.00     0.001 A 
ATOM     26  C   UNL d   1      -2.367   4.672  -0.564  0.00  0.00     0.001 A 
ATOM     27  C   UNL d   1      -0.818   5.115  -5.382  0.00  0.00     0.001 A 
ATOM     28  C   UNL d   1      -0.762   3.756  -5.108  0.00  0.00     0.008 A 
ENDBRANCH  18  19
ENDBRANCH   1  18
TORSDOF 4
