REMARK  8 active torsions:
REMARK  status: ('A' for Active; 'I' for Inactive)
REMARK    1  A    between atoms: C_2  and  C_1 
REMARK    2  A    between atoms: O_15  and  C_2 
REMARK    3  A    between atoms: C_3  and  N_11 
REMARK    4  A    between atoms: S_13  and  C_3 
REMARK    5  A    between atoms: N_11  and  C_4 
REMARK    6  A    between atoms: N_9  and  N_7 
REMARK    7  A    between atoms: C_16  and  C_14 
REMARK    8  A    between atoms: C_24  and  O_15 
ROOT
ATOM      1  C   UNL d   1      -0.822  -0.058   0.994  0.00  0.00     0.135 C 
ATOM      2  C   UNL d   1      -1.502  -0.295  -0.145  0.00  0.00     0.119 C 
ATOM      3  C   UNL d   1       0.543   0.359   1.027  0.00  0.00     0.107 C 
ATOM      4  N   UNL d   1       1.656   0.709   1.014  0.00  0.00    -0.191 NA
ENDROOT
BRANCH   1   5
ATOM      5  C   UNL d   1      -1.634  -0.203   2.236  0.00  0.00     0.305 C 
ATOM      6  O   UNL d   1      -2.803  -0.572   2.266  0.00  0.00    -0.258 OA
BRANCH   5   7
ATOM      7  O   UNL d   1      -0.923   0.205   3.317  0.00  0.00    -0.317 OA
BRANCH   7   8
ATOM      8  C   UNL d   1      -1.699   0.508   4.489  0.00  0.00     0.174 C 
ATOM      9  C   UNL d   1      -2.138   1.957   4.384  0.00  0.00     0.034 C 
ENDBRANCH   7   8
ENDBRANCH   5   7
ENDBRANCH   1   5
BRANCH   2  10
ATOM     10  N   UNL d   1      -1.113  -0.263  -1.469  0.00  0.00    -0.344 N 
ATOM     11  H   UNL d   1      -0.117  -0.217  -1.663  0.00  0.00     0.167 HD
BRANCH  10  12
ATOM     12  C   UNL d   1      -1.837  -0.442  -2.635  0.00  0.00     0.158 C 
ATOM     13  N   UNL d   1      -1.302  -0.710  -3.794  0.00  0.00    -0.280 N 
ATOM     14  HN  UNL d   1      -1.839  -0.818  -4.655  1.00  0.00     0.189 HD
BRANCH  13  15
ATOM     15  N   UNL d   1       0.094  -0.835  -3.725  0.00  0.00    -0.309 N 
ATOM     16  C   UNL d   1       0.591  -1.311  -4.827  0.00  0.00     0.118 C 
ATOM     17  HN  UNL d   1       0.651  -0.583  -2.909  1.00  0.00     0.186 HD
BRANCH  16  18
ATOM     18  C   UNL d   1       2.048  -1.530  -4.977  0.00  0.00    -0.019 A 
ATOM     19  C   UNL d   1       2.911  -1.225  -3.918  0.00  0.00     0.014 A 
ATOM     20  C   UNL d   1       4.286  -1.421  -4.051  0.00  0.00     0.024 A 
ATOM     21  C   UNL d   1       4.800  -1.924  -5.245  0.00  0.00     0.034 A 
ATOM     22  C   UNL d   1       3.948  -2.234  -6.306  0.00  0.00     0.024 A 
ATOM     23 CL   UNL d   1       6.497  -2.161  -5.406  0.00  0.00    -0.084 Cl
ATOM     24  C   UNL d   1       2.567  -2.038  -6.175  0.00  0.00     0.014 A 
ENDBRANCH  16  18
ENDBRANCH  13  15
BRANCH  12  25
ATOM     25  S   UNL d   1      -3.592  -0.247  -2.531  0.00  0.00    -0.097 SA
ATOM     26  C   UNL d   1      -4.130  -0.648  -4.197  0.00  0.00     0.099 C 
ENDBRANCH  12  25
ENDBRANCH  10  12
ENDBRANCH   2  10
TORSDOF 8
