REMARK  1 active torsions:
REMARK  status: ('A' for Active; 'I' for Inactive)
REMARK    1  A    between atoms: N_14  and  C_2 
ROOT
ATOM      1  N   UNL d   1      -0.198  -0.608  -0.046  0.00  0.00    -0.228 N 
ATOM      2  C   UNL d   1       0.996  -1.378  -0.078  0.00  0.00     0.124 A 
ATOM      3  C   UNL d   1      -0.169   0.788   0.027  0.00  0.00     0.129 A 
ATOM      4  C   UNL d   1       2.170  -0.716  -0.015  0.00  0.00     0.100 A 
ATOM      5  N   UNL d   1       1.001   1.490   0.074  0.00  0.00    -0.349 N 
ATOM      6  HN  UNL d   1       1.024   2.508   0.121  1.00  0.00     0.167 HD
ATOM      7  N   UNL d   1      -1.478  -1.082  -0.043  0.00  0.00    -0.302 N 
ATOM      8  HN  UNL d   1      -1.785  -2.054  -0.062  1.00  0.00     0.186 HD
ATOM      9  C   UNL d   1      -1.483   1.197   0.035  0.00  0.00     0.069 A 
ATOM     10  C   UNL d   1       2.085   0.772   0.055  0.00  0.00     0.116 A 
ATOM     11  C   UNL d   1       3.439  -1.343  -0.019  0.00  0.00     0.104 C 
ATOM     12  N   UNL d   1       4.478  -1.859   0.002  0.00  0.00    -0.191 NA
ATOM     13  C   UNL d   1      -2.236   0.015  -0.009  0.00  0.00     0.111 A 
ENDROOT
BRANCH   2  14
ATOM     14  N   UNL d   1       0.843  -2.763  -0.166  0.00  0.00    -0.286 NA
ATOM     15  H   UNL d   1      -0.109  -3.055   0.083  0.00  0.00     0.125 HD
ATOM     16  H   UNL d   1       1.568  -3.325   0.271  0.00  0.00     0.125 HD
ENDBRANCH   2  14
TORSDOF 1
