REMARK  9 active torsions:
REMARK  status: ('A' for Active; 'I' for Inactive)
REMARK    1  A    between atoms: C_29  and  C_2 
REMARK    2  A    between atoms: C_6  and  C_16 
REMARK       I    between atoms: N_9  and  C_6 
REMARK    3  A    between atoms: C_8  and  N_13 
REMARK    4  A    between atoms: N_14  and  C_8 
REMARK    5  A    between atoms: N_13  and  N_9 
REMARK    6  A    between atoms: C_20  and  N_14 
REMARK    7  A    between atoms: C_16  and  O_17 
REMARK    8  A    between atoms: O_17  and  C_19 
REMARK    9  A    between atoms: C_31  and  C_29 
ROOT
ATOM      1  C   UNL d   1       2.710   4.155   1.027  0.00  0.00     0.265 C 
ATOM      2  N   UNL d   1       1.531   4.783   0.653  0.00  0.00    -0.266 N 
ATOM      3  O   UNL d   1       3.152   4.221   2.173  0.00  0.00    -0.269 OA
ATOM      4  H   UNL d   1       1.023   4.489  -0.176  0.00  0.00     0.190 HD
ENDROOT
BRANCH   1   5
ATOM      5  C   UNL d   1       3.397   3.384  -0.126  0.00  0.00     0.218 C 
ATOM      6  C   UNL d   1       4.759   4.019  -0.390  0.00  0.00     0.050 C 
BRANCH   5   7
ATOM      7  O   UNL d   1       3.639   2.003   0.146  0.00  0.00    -0.337 OA
BRANCH   7   8
ATOM      8  C   UNL d   1       2.546   1.201   0.307  0.00  0.00     0.072 A 
ATOM      9  C   UNL d   1       1.310   1.407  -0.290  0.00  0.00     0.075 A 
ATOM     10  C   UNL d   1       0.248   0.560   0.031  0.00  0.00     0.092 A 
ATOM     11  O   UNL d   1      -0.994   0.910  -0.531  0.00  0.00    -0.275 OA
ATOM     12  C   UNL d   1       0.388  -0.537   0.882  0.00  0.00     0.004 A 
ATOM     13  C   UNL d   1      -2.147   0.234  -0.177  0.00  0.00     0.288 C 
ATOM     14  O   UNL d   1      -3.254   0.583  -0.556  0.00  0.00    -0.260 OA
ATOM     15  C   UNL d   1      -1.976  -0.965   0.659  0.00  0.00     0.090 C 
ATOM     16  C   UNL d   1      -0.797  -1.363   1.163  0.00  0.00    -0.039 C 
ATOM     17  C   UNL d   1       1.659  -0.774   1.417  0.00  0.00     0.017 A 
ATOM     18  C   UNL d   1       2.726   0.090   1.133  0.00  0.00     0.038 A 
BRANCH  16  19
ATOM     19  C   UNL d   1      -0.693  -2.643   1.955  0.00  0.00     0.039 C 
BRANCH  19  20
ATOM     20  C   UNL d   1      -0.805  -2.420   3.465  0.00  0.00     0.000 C 
ATOM     21  C   UNL d   1      -0.680  -3.734   4.221  0.00  0.00     0.005 C 
ENDBRANCH  19  20
ENDBRANCH  16  19
ENDBRANCH   7   8
ENDBRANCH   5   7
ENDBRANCH   1   5
BRANCH   2  22
ATOM     22  N   UNL d   1       0.734   5.364   1.661  0.00  0.00    -0.273 N 
ATOM     23  H   UNL d   1       1.188   5.372   2.579  0.00  0.00     0.189 HD
BRANCH  22  24
ATOM     24  C   UNL d   1      -0.053   6.446   1.384  0.00  0.00     0.191 C 
ATOM     25  S   UNL d   1       0.136   7.442   0.048  0.00  0.00    -0.039 SA
BRANCH  24  26
ATOM     26  N   UNL d   1      -1.113   6.711   2.205  0.00  0.00    -0.332 N 
ATOM     27  H   UNL d   1      -1.620   7.541   1.904  0.00  0.00     0.168 HD
BRANCH  26  28
ATOM     28  C   UNL d   1      -1.790   5.911   3.163  0.00  0.00     0.036 A 
ATOM     29  C   UNL d   1      -1.325   4.697   3.672  0.00  0.00     0.055 A 
ATOM     30  C   UNL d   1      -2.117   3.929   4.537  0.00  0.00     0.058 A 
ATOM     31 CL   UNL d   1      -1.457   2.433   5.099  0.00  0.00    -0.082 Cl
ATOM     32  C   UNL d   1      -3.391   4.369   4.905  0.00  0.00     0.055 A 
ATOM     33  C   UNL d   1      -3.854   5.593   4.428  0.00  0.00     0.028 A 
ATOM     34 CL   UNL d   1      -4.433   3.444   5.924  0.00  0.00    -0.083 Cl
ATOM     35  C   UNL d   1      -3.056   6.362   3.572  0.00  0.00     0.031 A 
ENDBRANCH  26  28
ENDBRANCH  24  26
ENDBRANCH  22  24
ENDBRANCH   2  22
TORSDOF 9
