REMARK  7 active torsions:
REMARK  status: ('A' for Active; 'I' for Inactive)
REMARK    1  A    between atoms: C_4  and  C_1 
REMARK    2  A    between atoms: O_10  and  C_4 
REMARK    3  A    between atoms: C_14  and  C_7 
REMARK    4  A    between atoms: N_8  and  O_10 
REMARK    5  A    between atoms: C_12  and  C_15 
REMARK    6  A    between atoms: N_13  and  C_14 
REMARK    7  A    between atoms: O_22  and  C_16 
ROOT
ATOM      1  N   UNL d   1       3.998  -2.382  -0.289  0.00  0.00    -0.261 N 
ATOM      2  HN  UNL d   1       4.465  -1.477  -0.235  1.00  0.00     0.194 HD
ATOM      3  C   UNL d   1       4.627  -3.519  -0.311  0.00  0.00     0.039 C 
ATOM      4  C   UNL d   1       3.914  -4.854  -0.345  0.00  0.00     0.071 C 
ENDROOT
BRANCH   3   5
ATOM      5  C   UNL d   1       6.119  -3.531  -0.225  0.00  0.00    -0.011 C 
ATOM      6  C   UNL d   1       6.747  -2.654   0.665  0.00  0.00     0.025 C 
ATOM      7  C   UNL d   1       8.107  -2.816   1.022  0.00  0.00     0.004 C 
ATOM      8  C   UNL d   1       8.869  -3.763   0.316  0.00  0.00     0.076 C 
ATOM      9  C   UNL d   1       8.255  -4.574  -0.649  0.00  0.00     0.038 C 
ATOM     10  C   UNL d   1       6.884  -4.475  -0.908  0.00  0.00     0.016 C 
BRANCH   7  11
ATOM     11  C   UNL d   1       8.674  -2.053   2.210  0.00  0.00     0.313 C 
BRANCH  11  12
ATOM     12  N   UNL d   1       7.673  -1.532   3.162  0.00  0.00     0.092 N 
ATOM     13  C   UNL d   1       8.301  -0.766   4.247  0.00  0.00     0.273 C 
ATOM     14  C   UNL d   1       8.470  -1.741   5.395  0.00  0.00     0.032 C 
ATOM     15  C   UNL d   1       7.262  -2.643   5.276  0.00  0.00     0.032 C 
ATOM     16  C   UNL d   1       6.888  -2.603   3.805  0.00  0.00     0.273 C 
ENDBRANCH  11  12
ENDBRANCH   7  11
BRANCH   8  17
ATOM     17  O   UNL d   1      10.167  -4.104   0.593  0.00  0.00    -0.355 OA
ATOM     18  C   UNL d   1      11.108  -3.036   0.575  0.00  0.00     0.210 C 
ENDBRANCH   8  17
ENDBRANCH   3   5
BRANCH   1  19
ATOM     19  O   UNL d   1       2.593  -2.539  -0.350  0.00  0.00    -0.194 OA
BRANCH  19  20
ATOM     20  C   UNL d   1       1.980  -1.302  -0.404  0.00  0.00     0.323 C 
ATOM     21  O   UNL d   1       2.578  -0.227  -0.352  0.00  0.00    -0.257 OA
BRANCH  20  22
ATOM     22  C   UNL d   1       0.542  -1.432  -0.587  0.00  0.00     0.105 A 
ATOM     23  S   UNL d   1      -0.301  -0.031  -1.120  0.00  0.00    -0.082 SA
ATOM     24  C   UNL d   1      -1.812  -0.834  -1.185  0.00  0.00     0.018 A 
ATOM     25  C   UNL d   1      -3.045  -0.274  -1.582  0.00  0.00     0.020 A 
ATOM     26  C   UNL d   1      -1.700  -2.166  -0.785  0.00  0.00     0.004 A 
ATOM     27  C   UNL d   1      -4.184  -1.079  -1.598  0.00  0.00     0.001 A 
ATOM     28  C   UNL d   1      -4.104  -2.411  -1.223  0.00  0.00     0.001 A 
ATOM     29  C   UNL d   1      -2.882  -2.956  -0.811  0.00  0.00     0.014 A 
ATOM     30  C   UNL d   1      -0.338  -2.481  -0.400  0.00  0.00     0.069 A 
ATOM     31 CL   UNL d   1       0.060  -4.033   0.233  0.00  0.00    -0.082 Cl
ENDBRANCH  20  22
ENDBRANCH  19  20
ENDBRANCH   1  19
TORSDOF 7
