REMARK  5 active torsions:
REMARK  status: ('A' for Active; 'I' for Inactive)
REMARK    1  A    between atoms: C_8  and  N_2 
REMARK    2  A    between atoms: C_6  and  O_10 
REMARK    3  A    between atoms: N_9  and  C_8 
REMARK    4  A    between atoms: C_14  and  N_9 
REMARK    5  A    between atoms: O_10  and  C_15 
ROOT
ATOM      1  N   UNL d   1       3.572  -2.475  -0.275  0.00  0.00    -0.275 NA
ATOM      2  H   UNL d   1       4.094  -1.806   0.293  0.00  0.00     0.129 HD
ENDROOT
BRANCH   1   3
ATOM      3  C   UNL d   1       2.133  -2.340  -0.026  0.00  0.00     0.240 C 
BRANCH   3   4
ATOM      4  N   UNL d   1       1.609  -0.986  -0.182  0.00  0.00    -0.260 N 
ATOM      5  N   UNL d   1       0.961  -0.396   0.844  0.00  0.00    -0.018 NA
ATOM      6  N   UNL d   1       0.548   0.797   0.426  0.00  0.00    -0.282 N 
ATOM      7  C   UNL d   1       0.950   0.951  -0.872  0.00  0.00     0.074 A 
ATOM      8  HN  UNL d   1       0.024   1.477   0.977  1.00  0.00     0.184 HD
ATOM      9  C   UNL d   1       0.770   2.019  -1.762  0.00  0.00     0.033 A 
ATOM     10  C   UNL d   1       1.641  -0.181  -1.292  0.00  0.00     0.078 A 
ATOM     11  C   UNL d   1       1.304   1.912  -3.054  0.00  0.00     0.002 A 
ATOM     12  C   UNL d   1       2.000   0.766  -3.449  0.00  0.00     0.002 A 
ATOM     13  C   UNL d   1       2.183  -0.312  -2.573  0.00  0.00     0.033 A 
ENDBRANCH   3   4
ENDBRANCH   1   3
BRANCH   1  14
ATOM     14  C   UNL d   1       4.156  -3.743  -0.146  0.00  0.00     0.009 A 
ATOM     15  C   UNL d   1       5.385  -3.954  -0.779  0.00  0.00     0.026 A 
ATOM     16  C   UNL d   1       6.070  -5.164  -0.641  0.00  0.00     0.039 A 
ATOM     17  C   UNL d   1       5.566  -6.179   0.172  0.00  0.00     0.078 A 
ATOM     18  C   UNL d   1       4.339  -5.989   0.800  0.00  0.00     0.039 A 
ATOM     19  C   UNL d   1       3.651  -4.773   0.655  0.00  0.00     0.026 A 
BRANCH  17  20
ATOM     20  O   UNL d   1       6.365  -7.278   0.255  0.00  0.00    -0.255 OA
BRANCH  20  21
ATOM     21  C   UNL d   1       6.219  -8.154   1.361  0.00  0.00     0.530 C 
ATOM     22  F   UNL d   1       5.789  -7.533   2.479  0.00  0.00    -0.144 F 
ATOM     23  F   UNL d   1       5.367  -9.154   1.050  0.00  0.00    -0.144 F 
ATOM     24  F   UNL d   1       7.428  -8.698   1.633  0.00  0.00    -0.144 F 
ENDBRANCH  20  21
ENDBRANCH  17  20
ENDBRANCH   1  14
TORSDOF 5
