REMARK  4 active torsions:
REMARK  status: ('A' for Active; 'I' for Inactive)
REMARK    1  A    between atoms: C_6  and  C_1 
REMARK    2  A    between atoms: N_7  and  C_2 
REMARK       I    between atoms: C_5  and  N_7 
REMARK       I    between atoms: N_10  and  C_5 
REMARK    3  A    between atoms: C_14  and  N_10 
REMARK    4  A    between atoms: C_18  and  N_10 
ROOT
ATOM      1  C   UNL d   1      -0.001   0.032  -1.039  0.00  0.00     0.097 A 
ATOM      2  C   UNL d   1       0.112  -0.909   0.035  0.00  0.00     0.097 A 
ATOM      3  N   UNL d   1      -0.164   1.275  -0.555  0.00  0.00    -0.258 N 
ATOM      4  HN  UNL d   1      -0.221   2.140  -1.094  1.00  0.00     0.195 HD
ATOM      5  C   UNL d   1      -0.100  -0.160   1.166  0.00  0.00     0.101 A 
ATOM      6  O   UNL d   1      -0.238   1.147   0.815  0.00  0.00    -0.240 OA
ATOM      7  C   UNL d   1      -0.277  -0.449   2.602  0.00  0.00     0.081 C 
ENDROOT
BRANCH   2   8
ATOM      8  N   UNL d   1       0.318  -2.284  -0.079  0.00  0.00    -0.304 N 
ATOM      9  C   UNL d   1       1.259  -2.970   0.692  0.00  0.00     0.327 C 
ATOM     10  N   UNL d   1       1.356  -4.318   0.256  0.00  0.00    -0.300 N 
ATOM     11  O   UNL d   1       1.959  -2.425   1.536  0.00  0.00    -0.246 OA
ATOM     12  H   UNL d   1       0.342  -2.613  -1.033  0.00  0.00     0.171 HD
BRANCH  10  13
ATOM     13  C   UNL d   1       2.565  -5.098   0.362  0.00  0.00     0.038 A 
ATOM     14  C   UNL d   1       3.595  -4.807   1.264  0.00  0.00     0.030 A 
ATOM     15  C   UNL d   1       4.730  -5.631   1.351  0.00  0.00     0.002 A 
ATOM     16  C   UNL d   1       4.874  -6.731   0.514  0.00  0.00     0.000 A 
ATOM     17  C   UNL d   1       3.886  -7.009  -0.422  0.00  0.00     0.002 A 
ATOM     18  C   UNL d   1       2.744  -6.205  -0.487  0.00  0.00     0.030 A 
ENDBRANCH  10  13
BRANCH  10  19
ATOM     19  C   UNL d   1       0.104  -5.081   0.089  0.00  0.00     0.129 C 
ATOM     20  C   UNL d   1      -0.469  -5.096  -1.323  0.00  0.00     0.027 C 
ENDBRANCH  10  19
ENDBRANCH   2   8
BRANCH   1  21
ATOM     21  C   UNL d   1       0.052  -0.206  -2.482  0.00  0.00     0.038 A 
ATOM     22  C   UNL d   1      -1.042   0.133  -3.304  0.00  0.00     0.048 A 
ATOM     23 CL   UNL d   1      -2.528   0.769  -2.679  0.00  0.00    -0.083 Cl
ATOM     24  C   UNL d   1      -0.993  -0.076  -4.689  0.00  0.00     0.025 A 
ATOM     25  C   UNL d   1       0.132  -0.644  -5.278  0.00  0.00     0.003 A 
ATOM     26  C   UNL d   1       1.215  -1.002  -4.480  0.00  0.00     0.025 A 
ATOM     27  C   UNL d   1       1.184  -0.775  -3.097  0.00  0.00     0.048 A 
ATOM     28 CL   UNL d   1       2.608  -1.228  -2.223  0.00  0.00    -0.083 Cl
ENDBRANCH   1  21
TORSDOF 4
