REMARK  8 active torsions:
REMARK  status: ('A' for Active; 'I' for Inactive)
REMARK    1  A    between atoms: C_12  and  N_1 
REMARK    2  A    between atoms: N_2  and  C_11 
REMARK    3  A    between atoms: C_11  and  N_13 
REMARK    4  A    between atoms: N_13  and  C_12 
REMARK    5  A    between atoms: C_25  and  N_13 
REMARK    6  A    between atoms: S_18  and  C_24 
REMARK    7  A    between atoms: C_23  and  S_18 
REMARK    8  A    between atoms: C_24  and  C_25 
ROOT
ATOM      1  N   UNL d   1       3.830   1.339  -0.025  0.00  0.00     0.124 N 
ENDROOT
BRANCH   1   2
ATOM      2  C   UNL d   1       3.477   1.901   1.289  0.00  0.00     0.410 C 
BRANCH   2   3
ATOM      3  N   UNL d   1       4.000   1.123   2.385  0.00  0.00    -0.252 N 
ATOM      4  C   UNL d   1       3.335   0.102   2.998  0.00  0.00     0.263 C 
ATOM      5  C   UNL d   1       4.269  -0.481   3.956  0.00  0.00     0.048 A 
ATOM      6  O   UNL d   1       2.190  -0.289   2.842  0.00  0.00    -0.267 OA
ATOM      7  C   UNL d   1       4.183  -1.640   4.701  0.00  0.00     0.018 A 
ATOM      8  C   UNL d   1       5.397   0.318   3.972  0.00  0.00     0.048 A 
ATOM      9  C   UNL d   1       5.296  -1.980   5.476  0.00  0.00     0.001 A 
ATOM     10  C   UNL d   1       6.444  -1.158   5.500  0.00  0.00     0.001 A 
ATOM     11  C   UNL d   1       6.501   0.015   4.742  0.00  0.00     0.018 A 
ATOM     12  C   UNL d   1       5.192   1.388   3.002  0.00  0.00     0.263 C 
ATOM     13  O   UNL d   1       5.980   2.293   2.814  0.00  0.00    -0.267 OA
ENDBRANCH   2   3
ENDBRANCH   1   2
BRANCH   1  14
ATOM     14  C   UNL d   1       3.243   0.042  -0.358  0.00  0.00     0.410 C 
BRANCH  14  15
ATOM     15  N   UNL d   1       1.825  -0.055  -0.131  0.00  0.00    -0.252 N 
ATOM     16  C   UNL d   1       0.874   0.888  -0.397  0.00  0.00     0.263 C 
ATOM     17  C   UNL d   1      -0.399   0.316   0.033  0.00  0.00     0.048 A 
ATOM     18  O   UNL d   1       0.965   2.001  -0.881  0.00  0.00    -0.267 OA
ATOM     19  C   UNL d   1      -1.633   0.910   0.198  0.00  0.00     0.018 A 
ATOM     20  C   UNL d   1      -0.172  -1.008   0.358  0.00  0.00     0.048 A 
ATOM     21  C   UNL d   1      -2.656   0.114   0.722  0.00  0.00     0.001 A 
ATOM     22  C   UNL d   1      -2.429  -1.244   1.036  0.00  0.00     0.001 A 
ATOM     23  C   UNL d   1      -1.172  -1.825   0.843  0.00  0.00     0.018 A 
ATOM     24  C   UNL d   1       1.249  -1.266   0.157  0.00  0.00     0.263 C 
ATOM     25  O   UNL d   1       1.759  -2.370   0.203  0.00  0.00    -0.267 OA
ENDBRANCH  14  15
ENDBRANCH   1  14
BRANCH   1  26
ATOM     26  C   UNL d   1       5.285   1.384  -0.277  0.00  0.00     0.287 C 
BRANCH  26  27
ATOM     27  C   UNL d   1       5.780   0.933  -1.666  0.00  0.00     0.110 C 
BRANCH  27  28
ATOM     28  S   UNL d   1       5.066   1.930  -3.016  0.00  0.00    -0.128 SA
BRANCH  28  29
ATOM     29  C   UNL d   1       5.803   1.117  -4.421  0.00  0.00     0.000 A 
ATOM     30  C   UNL d   1       5.511  -0.214  -4.735  0.00  0.00     0.018 A 
ATOM     31  C   UNL d   1       6.073  -0.810  -5.867  0.00  0.00     0.001 A 
ATOM     32  C   UNL d   1       6.923  -0.076  -6.693  0.00  0.00     0.000 A 
ATOM     33  C   UNL d   1       7.211   1.253  -6.388  0.00  0.00     0.001 A 
ATOM     34  C   UNL d   1       6.650   1.849  -5.258  0.00  0.00     0.018 A 
ENDBRANCH  28  29
ENDBRANCH  27  28
ENDBRANCH  26  27
ENDBRANCH   1  26
TORSDOF 8
