REMARK  1 active torsions:
REMARK  status: ('A' for Active; 'I' for Inactive)
REMARK    1  A    between atoms: C_9  and  C_3 
ROOT
ATOM      1  N   UNL d   1      -4.882  -0.657   2.014  0.00  0.00    -0.197 NA
ATOM      2  C   UNL d   1      -4.226  -0.963   1.107  0.00  0.00     0.065 C 
ATOM      3  C   UNL d   1      -3.437  -1.351  -0.068  0.00  0.00     0.188 C 
ENDROOT
BRANCH   3   4
ATOM      4  C   UNL d   1      -2.037  -0.828  -0.001  0.00  0.00     0.065 A 
ATOM      5  N   UNL d   1      -0.971  -1.600   0.010  0.00  0.00    -0.352 N 
ATOM      6  C   UNL d   1       0.180  -0.829   0.008  0.00  0.00     0.050 A 
ATOM      7  HN  UNL d   1      -0.990  -2.620   0.019  1.00  0.00     0.166 HD
ATOM      8  C   UNL d   1      -0.025   0.552  -0.006  0.00  0.00     0.033 A 
ATOM      9  C   UNL d   1       1.502  -1.318   0.012  0.00  0.00     0.031 A 
ATOM     10  C   UNL d   1       1.046   1.461  -0.007  0.00  0.00     0.021 A 
ATOM     11  S   UNL d   1      -1.719   0.864  -0.032  0.00  0.00    -0.074 SA
ATOM     12  C   UNL d   1       2.348   0.950  -0.001  0.00  0.00     0.002 A 
ATOM     13  C   UNL d   1       2.576  -0.423   0.006  0.00  0.00     0.002 A 
ENDBRANCH   3   4
TORSDOF 1
