REMARK  3 active torsions:
REMARK  status: ('A' for Active; 'I' for Inactive)
REMARK    1  A    between atoms: C_4  and  C_1 
REMARK    2  A    between atoms: O_15  and  C_3 
REMARK    3  A    between atoms: C_13  and  N_7 
ROOT
ATOM      1  C   UNL d   1      -0.193  -8.608   1.235  0.00  0.00    -0.078 C 
ATOM      2  C   UNL d   1       0.740  -9.218   1.676  0.00  0.00     0.018 C 
ATOM      3  C   UNL d   1      -1.277  -7.855   0.683  0.00  0.00     0.019 A 
ATOM      4  C   UNL d   1      -2.208  -5.692   0.066  0.00  0.00     0.033 A 
ATOM      5  C   UNL d   1      -1.196  -6.462   0.654  0.00  0.00     0.050 A 
ATOM      6  C   UNL d   1      -3.426  -7.748  -0.403  0.00  0.00     0.004 A 
ATOM      7  C   UNL d   1      -2.397  -8.500   0.163  0.00  0.00     0.021 A 
ATOM      8  C   UNL d   1      -3.326  -6.354  -0.454  0.00  0.00     0.029 A 
ENDROOT
BRANCH   4   9
ATOM      9  N   UNL d   1      -2.187  -4.285   0.030  0.00  0.00    -0.365 N 
ATOM     10  C   UNL d   1      -1.048  -3.668  -0.022  0.00  0.00     0.102 C 
ATOM     11  HN  UNL d   1      -3.059  -3.756   0.045  1.00  0.00     0.165 HD
BRANCH  10  12
ATOM     12  C   UNL d   1      -0.956  -2.195  -0.014  0.00  0.00     0.015 A 
ATOM     13  C   UNL d   1       0.294  -1.567  -0.046  0.00  0.00     0.094 A 
ATOM     14  C   UNL d   1       0.365  -0.170  -0.034  0.00  0.00     0.046 A 
ATOM     15 BR   UNL d   1       2.041   0.716  -0.080  0.00  0.00    -0.048 Br
ATOM     16  C   UNL d   1      -0.799   0.596   0.011  0.00  0.00     0.046 A 
ATOM     17  C   UNL d   1      -2.039  -0.041   0.046  0.00  0.00     0.036 A 
ATOM     18  C   UNL d   1      -2.126  -1.430   0.034  0.00  0.00     0.039 A 
ATOM     19 CL   UNL d   1      -3.476   0.902   0.101  0.00  0.00    -0.084 Cl
BRANCH  13  20
ATOM     20  O   UNL d   1       1.434  -2.326  -0.086  0.00  0.00    -0.358 OA
ATOM     21  H   UNL d   1       2.200  -1.722  -0.112  0.00  0.00     0.217 HD
ENDBRANCH  13  20
ENDBRANCH  10  12
ENDBRANCH   4   9
TORSDOF 3
