REMARK  2 active torsions:
REMARK  status: ('A' for Active; 'I' for Inactive)
REMARK    1  A    between atoms: N_2  and  C_1 
REMARK    2  A    between atoms: C_11  and  N_9 
ROOT
ATOM      1  N   UNL d   1       0.102  -2.535   0.082  0.00  0.00    -0.296 N 
ATOM      2  HN  UNL d   1      -0.521  -3.062   0.693  1.00  0.00     0.187 HD
ATOM      3  N   UNL d   1       0.927  -3.069  -0.689  0.00  0.00    -0.297 N 
ATOM      4  HN  UNL d   1       1.569  -2.545  -1.284  1.00  0.00     0.187 HD
ENDROOT
BRANCH   1   5
ATOM      5  C   UNL d   1       0.123  -1.135   0.019  0.00  0.00     0.095 A 
ATOM      6  C   UNL d   1       1.201  -0.280   0.001  0.00  0.00     0.052 A 
ATOM      7  N   UNL d   1       0.652   0.974  -0.017  0.00  0.00    -0.303 N 
ATOM      8  C   UNL d   1       2.667  -0.480   0.001  0.00  0.00     0.072 C 
ATOM      9  N   UNL d   1      -0.691   0.988  -0.009  0.00  0.00    -0.303 N 
ATOM     10  H   UNL d   1       1.135   1.866  -0.028  0.00  0.00     0.186 HD
ATOM     11  C   UNL d   1      -1.026  -0.313   0.015  0.00  0.00     0.052 A 
ATOM     12  HN  UNL d   1      -1.311   1.797  -0.020  1.00  0.00     0.186 HD
ATOM     13  C   UNL d   1      -2.451  -0.718   0.021  0.00  0.00     0.072 C 
ENDBRANCH   1   5
BRANCH   3  14
ATOM     14  C   UNL d   1       0.870  -4.478  -0.646  0.00  0.00     0.086 A 
ATOM     15  C   UNL d   1      -0.326  -5.217  -0.619  0.00  0.00     0.147 A 
ATOM     16  C   UNL d   1      -0.325  -6.610  -0.661  0.00  0.00     0.086 A 
ATOM     17  F   UNL d   1      -1.514  -4.592  -0.574  0.00  0.00    -0.204 F 
ATOM     18  C   UNL d   1       0.885  -7.283  -0.744  0.00  0.00     0.119 A 
ATOM     19  C   UNL d   1       2.088  -6.587  -0.772  0.00  0.00     0.045 A 
ATOM     20  F   UNL d   1       0.894  -8.620  -0.806  0.00  0.00    -0.206 F 
ATOM     21  C   UNL d   1       2.078  -5.190  -0.726  0.00  0.00     0.037 A 
ENDBRANCH   3  14
TORSDOF 2
