REMARK  2 active torsions:
REMARK  status: ('A' for Active; 'I' for Inactive)
REMARK    1  A    between atoms: N_8  and  C_1 
REMARK    2  A    between atoms: C_9  and  C_5 
ROOT
ATOM      1  C   UNL d   1      -0.245  -1.097   0.030  0.00  0.00     0.243 A 
ATOM      2  O   UNL d   1      -1.116  -0.048  -0.083  0.00  0.00    -0.259 OA
ATOM      3  N   UNL d   1       1.011  -0.703   0.026  0.00  0.00    -0.263 N 
ATOM      4  HN  UNL d   1       1.835  -1.299   0.101  1.00  0.00     0.190 HD
ATOM      5  C   UNL d   1      -0.268   1.026  -0.138  0.00  0.00     0.176 A 
ATOM      6  N   UNL d   1       0.999   0.671  -0.100  0.00  0.00    -0.276 N 
ATOM      7  HN  UNL d   1       1.810   1.288  -0.152  1.00  0.00     0.189 HD
ENDROOT
BRANCH   5   8
ATOM      8  C   UNL d   1      -0.869   2.352  -0.206  0.00  0.00     0.017 A 
ATOM      9  C   UNL d   1      -2.258   2.543  -0.128  0.00  0.00     0.017 A 
ATOM     10  C   UNL d   1      -2.808   3.828  -0.180  0.00  0.00     0.025 A 
ATOM     11  C   UNL d   1      -1.973   4.935  -0.312  0.00  0.00     0.034 A 
ATOM     12  C   UNL d   1      -0.593   4.768  -0.390  0.00  0.00     0.025 A 
ATOM     13 CL   UNL d   1      -2.650   6.514  -0.379  0.00  0.00    -0.084 Cl
ATOM     14  C   UNL d   1      -0.045   3.482  -0.335  0.00  0.00     0.017 A 
ENDBRANCH   5   8
BRANCH   1  15
ATOM     15  N   UNL d   1      -0.774  -2.332   0.198  0.00  0.00    -0.342 N 
ATOM     16  C   UNL d   1       0.173  -3.455   0.252  0.00  0.00     0.152 C 
ATOM     17  C   UNL d   1      -0.526  -4.680   0.859  0.00  0.00     0.187 C 
ATOM     18  O   UNL d   1      -1.710  -5.024   0.121  0.00  0.00    -0.388 OA
ATOM     19  C   UNL d   1      -2.641  -3.930   0.135  0.00  0.00     0.187 C 
ATOM     20  C   UNL d   1      -2.034  -2.659  -0.481  0.00  0.00     0.152 C 
ENDBRANCH   1  15
TORSDOF 2
