REMARK  5 active torsions:
REMARK  status: ('A' for Active; 'I' for Inactive)
REMARK    1  A    between atoms: C_9  and  N_1 
REMARK    2  A    between atoms: S_8  and  C_2 
REMARK    3  A    between atoms: C_14  and  S_8 
REMARK    4  A    between atoms: C_12  and  C_14 
REMARK    5  A    between atoms: C_13  and  C_12 
ROOT
ATOM      1  N   UNL d   1       2.350  -0.884  -0.122  0.00  0.00    -0.258 N 
ATOM      2  C   UNL d   1       2.302   0.506  -0.236  0.00  0.00     0.155 A 
ATOM      3  C   UNL d   1       1.170  -1.617   0.075  0.00  0.00     0.266 A 
ATOM      4  C   UNL d   1      -0.085  -0.858   0.076  0.00  0.00     0.060 A 
ATOM      5  N   UNL d   1       1.205   1.198  -0.156  0.00  0.00    -0.335 N 
ATOM      6  HN  UNL d   1       1.230   2.217  -0.197  1.00  0.00     0.168 HD
ATOM      7  C   UNL d   1      -0.006   0.525  -0.013  0.00  0.00     0.050 A 
ATOM      8  O   UNL d   1       1.099  -2.831   0.272  0.00  0.00    -0.267 OA
ATOM      9  C   UNL d   1      -1.322  -1.516   0.135  0.00  0.00     0.026 A 
ATOM     10  C   UNL d   1      -1.191   1.261  -0.026  0.00  0.00     0.031 A 
ATOM     11  C   UNL d   1      -2.507  -0.779   0.091  0.00  0.00    -0.061 A 
ATOM     12  C   UNL d   1      -2.432   0.617   0.021  0.00  0.00     0.009 A 
ATOM     13  C   UNL d   1      -3.838  -1.468   0.064  0.00  0.00     0.048 C 
ENDROOT
BRANCH   2  14
ATOM     14  S   UNL d   1       3.771   1.404  -0.616  0.00  0.00    -0.086 SA
BRANCH  14  15
ATOM     15  C   UNL d   1       3.101   3.097  -0.869  0.00  0.00     0.161 C 
BRANCH  15  16
ATOM     16  C   UNL d   1       4.122   4.040  -1.505  0.00  0.00     0.144 C 
ATOM     17  O   UNL d   1       5.238   3.658  -1.856  0.00  0.00    -0.296 OA
BRANCH  16  18
ATOM     18  C   UNL d   1       3.753   5.545  -1.654  0.00  0.00     0.010 C 
ATOM     19  C   UNL d   1       4.170   6.273  -0.368  0.00  0.00     0.022 C 
ATOM     20  C   UNL d   1       4.540   6.128  -2.846  0.00  0.00     0.022 C 
ATOM     21  C   UNL d   1       2.262   5.801  -1.913  0.00  0.00     0.022 C 
ENDBRANCH  16  18
ENDBRANCH  15  16
ENDBRANCH  14  15
ENDBRANCH   2  14
BRANCH   1  22
ATOM     22  C   UNL d   1       3.551  -1.659  -0.091  0.00  0.00     0.044 A 
ATOM     23  C   UNL d   1       3.712  -2.707  -1.014  0.00  0.00     0.030 A 
ATOM     24  C   UNL d   1       4.737  -3.640  -0.861  0.00  0.00     0.002 A 
ATOM     25  C   UNL d   1       5.603  -3.545   0.224  0.00  0.00     0.000 A 
ATOM     26  C   UNL d   1       5.465  -2.498   1.137  0.00  0.00     0.002 A 
ATOM     27  C   UNL d   1       4.449  -1.548   0.978  0.00  0.00     0.030 A 
ENDBRANCH   1  22
TORSDOF 5
