REMARK  6 active torsions:
REMARK  status: ('A' for Active; 'I' for Inactive)
REMARK    1  A    between atoms: N_7  and  C_1 
REMARK    2  A    between atoms: N_6  and  C_2 
REMARK    3  A    between atoms: S_8  and  C_3 
REMARK    4  A    between atoms: S_9  and  C_4 
REMARK    5  A    between atoms: C_14  and  S_8 
REMARK    6  A    between atoms: C_15  and  S_9 
ROOT
ATOM      1  C   UNL d   1       1.592   0.672   0.059  0.00  0.00     0.161 A 
ATOM      2  C   UNL d   1       1.583  -0.745  -0.123  0.00  0.00     0.161 A 
ATOM      3  C   UNL d   1       0.320   1.215   0.063  0.00  0.00     0.083 A 
ATOM      4  C   UNL d   1       0.305  -1.272  -0.103  0.00  0.00     0.083 A 
ATOM      5  S   UNL d   1      -0.868  -0.021  -0.013  0.00  0.00    -0.070 SA
ENDROOT
BRANCH   3   6
ATOM      6  S   UNL d   1      -0.151   2.910  -0.044  0.00  0.00    -0.081 SA
BRANCH   6   7
ATOM      7  C   UNL d   1      -0.380   3.327   1.675  0.00  0.00     0.006 A 
ATOM      8  C   UNL d   1       0.642   3.989   2.364  0.00  0.00     0.020 A 
ATOM      9  C   UNL d   1       0.436   4.468   3.661  0.00  0.00     0.025 A 
ATOM     10  C   UNL d   1      -0.804   4.302   4.270  0.00  0.00     0.034 A 
ATOM     11  C   UNL d   1      -1.832   3.643   3.599  0.00  0.00     0.025 A 
ATOM     12 CL   UNL d   1      -1.077   4.945   5.841  0.00  0.00    -0.084 Cl
ATOM     13  C   UNL d   1      -1.621   3.157   2.301  0.00  0.00     0.020 A 
ENDBRANCH   6   7
ENDBRANCH   3   6
BRANCH   1  14
ATOM     14  N   UNL d   1       2.789   1.448   0.161  0.00  0.00    -0.111 N 
ATOM     15  O   UNL d   1       3.553   1.400  -0.805  0.00  0.00    -0.532 OA
ATOM     16  O   UNL d   1       2.966   2.063   1.217  0.00  0.00    -0.532 OA
ENDBRANCH   1  14
BRANCH   2  17
ATOM     17  N   UNL d   1       2.770  -1.532  -0.248  0.00  0.00    -0.111 N 
ATOM     18  O   UNL d   1       3.569  -1.468   0.692  0.00  0.00    -0.532 OA
ATOM     19  O   UNL d   1       2.906  -2.174  -1.291  0.00  0.00    -0.532 OA
ENDBRANCH   2  17
BRANCH   4  20
ATOM     20  S   UNL d   1      -0.184  -2.961   0.017  0.00  0.00    -0.081 SA
BRANCH  20  21
ATOM     21  C   UNL d   1      -0.458  -3.377  -1.695  0.00  0.00     0.006 A 
ATOM     22  C   UNL d   1       0.543  -4.045  -2.410  0.00  0.00     0.020 A 
ATOM     23  C   UNL d   1       0.299  -4.531  -3.698  0.00  0.00     0.025 A 
ATOM     24  C   UNL d   1      -0.958  -4.367  -4.270  0.00  0.00     0.034 A 
ATOM     25  C   UNL d   1      -1.965  -3.700  -3.574  0.00  0.00     0.025 A 
ATOM     26 CL   UNL d   1      -1.279  -5.024  -5.827  0.00  0.00    -0.084 Cl
ATOM     27  C   UNL d   1      -1.716  -3.205  -2.287  0.00  0.00     0.020 A 
ENDBRANCH  20  21
ENDBRANCH   4  20
TORSDOF 6
