REMARK  6 active torsions:
REMARK  status: ('A' for Active; 'I' for Inactive)
REMARK       I    between atoms: N_2  and  C_1 
REMARK    1  A    between atoms: C_6  and  C_1 
REMARK    2  A    between atoms: C_8  and  N_2 
REMARK    3  A    between atoms: C_3  and  C_7 
REMARK    4  A    between atoms: O_11  and  C_3 
REMARK    5  A    between atoms: C_10  and  C_6 
REMARK    6  A    between atoms: C_7  and  C_10 
ROOT
ATOM      1  C   UNL d   1       0.825   0.690   0.393  0.00  0.00     0.222 C 
ATOM      2  N   UNL d   1       0.076   0.897  -0.753  0.00  0.00    -0.327 N 
ATOM      3  O   UNL d   1       0.466   0.948   1.540  0.00  0.00    -0.273 OA
ATOM      4  H   UNL d   1       0.436   0.503  -1.616  0.00  0.00     0.169 HD
ENDROOT
BRANCH   1   5
ATOM      5  C   UNL d   1       2.210   0.122   0.107  0.00  0.00     0.108 C 
BRANCH   5   6
ATOM      6  C   UNL d   1       3.028  -0.113   1.397  0.00  0.00    -0.000 C 
ATOM      7  C   UNL d   1       4.513  -0.332   1.094  0.00  0.00     0.011 C 
BRANCH   6   8
ATOM      8  C   UNL d   1       2.478  -1.225   2.314  0.00  0.00     0.114 C 
BRANCH   8   9
ATOM      9  C   UNL d   1       2.389  -2.608   1.705  0.00  0.00     0.139 C 
ATOM     10  O   UNL d   1       2.655  -2.901   0.551  0.00  0.00    -0.650 OA
BRANCH   9  11
ATOM     11  O   UNL d   1       1.958  -3.530   2.599  0.00  0.00    -0.776 OA
ATOM     12  H   UNL d   1       1.760  -3.156   3.480  0.00  0.00     0.167 HD
ENDBRANCH   9  11
ENDBRANCH   8   9
ENDBRANCH   6   8
ENDBRANCH   5   6
ENDBRANCH   1   5
BRANCH   2  13
ATOM     13  C   UNL d   1      -1.142   1.609  -0.842  0.00  0.00     0.034 A 
ATOM     14  C   UNL d   1      -1.709   2.301   0.234  0.00  0.00     0.032 A 
ATOM     15  C   UNL d   1      -2.877   3.052   0.070  0.00  0.00     0.044 A 
ATOM     16  C   UNL d   1      -3.486   3.106  -1.173  0.00  0.00     0.116 A 
ATOM     17  C   UNL d   1      -2.955   2.412  -2.254  0.00  0.00     0.044 A 
ATOM     18  F   UNL d   1      -4.593   3.842  -1.336  0.00  0.00    -0.206 F 
ATOM     19  C   UNL d   1      -1.783   1.663  -2.089  0.00  0.00     0.032 A 
ENDBRANCH   2  13
TORSDOF 6
