REMARK  6 active torsions:
REMARK  status: ('A' for Active; 'I' for Inactive)
REMARK    1  A    between atoms: C_4  and  S_1 
REMARK    2  A    between atoms: O_6  and  S_1 
REMARK    3  A    between atoms: N_5  and  C_2 
REMARK    4  A    between atoms: C_3  and  O_6 
REMARK    5  A    between atoms: O_22  and  C_8 
REMARK    6  A    between atoms: C_10  and  C_9 
ROOT
ATOM      1  C   UNL d   1       2.252   1.659   2.448  0.00  0.00     0.141 A 
ATOM      2  C   UNL d   1       0.977   1.734   1.849  0.00  0.00     0.155 A 
ATOM      3  C   UNL d   1       2.420   1.819   3.835  0.00  0.00     0.048 A 
ATOM      4  C   UNL d   1      -0.111   2.106   2.654  0.00  0.00     0.106 A 
ATOM      5  C   UNL d   1       1.329   2.129   4.655  0.00  0.00    -0.029 A 
ATOM      6  C   UNL d   1       0.082   2.294   4.037  0.00  0.00     0.049 A 
ENDROOT
BRANCH   2   7
ATOM      7  O   UNL d   1       0.794   1.559   0.500  0.00  0.00    -0.224 OA
BRANCH   7   8
ATOM      8  S   UNL d   1       0.983   0.094  -0.200  0.00  0.00     0.305 S 
ATOM      9  O   UNL d   1       1.927  -0.689   0.575  0.00  0.00    -0.193 OA
ATOM     10  O   UNL d   1      -0.334  -0.442  -0.491  0.00  0.00    -0.193 OA
BRANCH   8  11
ATOM     11  C   UNL d   1       1.728   0.356  -1.794  0.00  0.00     0.110 A 
ATOM     12  C   UNL d   1       2.269  -0.787  -2.414  0.00  0.00     0.051 A 
ATOM     13  C   UNL d   1       2.791  -0.700  -3.703  0.00  0.00     0.035 A 
ATOM     14 CL   UNL d   1       3.409  -2.105  -4.478  0.00  0.00    -0.084 Cl
ATOM     15  C   UNL d   1       2.795   0.515  -4.378  0.00  0.00     0.025 A 
ATOM     16  C   UNL d   1       2.287   1.654  -3.750  0.00  0.00     0.027 A 
ATOM     17  C   UNL d   1       1.748   1.585  -2.457  0.00  0.00     0.058 A 
ATOM     18 CL   UNL d   1       1.114   3.066  -1.846  0.00  0.00    -0.083 Cl
ENDBRANCH   8  11
ENDBRANCH   7   8
ENDBRANCH   2   7
BRANCH   1  19
ATOM     19  N   UNL d   1       3.478   1.510   1.654  0.00  0.00    -0.113 N 
ATOM     20  O   UNL d   1       3.462   1.908   0.481  0.00  0.00    -0.532 OA
ATOM     21  O   UNL d   1       4.474   1.030   2.215  0.00  0.00    -0.532 OA
ENDBRANCH   1  19
BRANCH   4  22
ATOM     22  O   UNL d   1      -1.411   2.357   2.313  0.00  0.00    -0.353 OA
ATOM     23  C   UNL d   1      -1.860   2.202   0.980  0.00  0.00     0.210 C 
ENDBRANCH   4  22
BRANCH   5  24
ATOM     24  C   UNL d   1       1.458   2.275   6.158  0.00  0.00     0.141 C 
ATOM     25  S   UNL d   1       2.719   3.499   6.639  0.00  0.00    -0.148 SA
ATOM     26  C   UNL d   1       3.414   2.547   8.013  0.00  0.00     0.085 C 
ATOM     27  C   UNL d   1       3.446   1.092   7.592  0.00  0.00     0.085 C 
ATOM     28  S   UNL d   1       1.808   0.668   6.949  0.00  0.00    -0.148 SA
ENDBRANCH   5  24
TORSDOF 6
