REMARK  6 active torsions:
REMARK  status: ('A' for Active; 'I' for Inactive)
REMARK    1  A    between atoms: C_6  and  C_1 
REMARK    2  A    between atoms: N_8  and  C_2 
REMARK       I    between atoms: C_9  and  N_8 
REMARK    3  A    between atoms: O_13  and  C_9 
REMARK    4  A    between atoms: N_10  and  O_13 
REMARK    5  A    between atoms: C_14  and  C_12 
REMARK    6  A    between atoms: N_19  and  C_12 
ROOT
ATOM      1  N   UNL d   1       0.607  -2.442   0.723  0.00  0.00    -0.297 N 
ATOM      2  C   UNL d   1       0.045  -1.288   0.233  0.00  0.00     0.387 C 
ATOM      3  O   UNL d   1       0.337  -0.716  -0.805  0.00  0.00    -0.236 OA
ATOM      4  H   UNL d   1       0.284  -2.727   1.636  0.00  0.00     0.171 HD
ENDROOT
BRANCH   1   5
ATOM      5  C   UNL d   1       1.589  -3.213   0.116  0.00  0.00     0.098 C 
ATOM      6  C   UNL d   1       2.312  -4.313   0.696  0.00  0.00     0.096 C 
ATOM      7  N   UNL d   1       3.310  -4.693  -0.120  0.00  0.00    -0.258 N 
ATOM      8  O   UNL d   1       3.112  -4.024  -1.301  0.00  0.00    -0.240 OA
ATOM      9  HN  UNL d   1       4.063  -5.346   0.096  1.00  0.00     0.195 HD
ATOM     10  C   UNL d   1       2.022  -3.217  -1.193  0.00  0.00     0.101 C 
ATOM     11  C   UNL d   1       1.539  -2.681  -2.482  0.00  0.00     0.081 C 
BRANCH   6  12
ATOM     12  C   UNL d   1       2.093  -5.056   1.938  0.00  0.00     0.017 A 
ATOM     13  C   UNL d   1       0.843  -5.600   2.284  0.00  0.00     0.046 A 
ATOM     14 CL   UNL d   1      -0.597  -5.350   1.357  0.00  0.00    -0.083 Cl
ATOM     15  C   UNL d   1       0.720  -6.446   3.393  0.00  0.00     0.025 A 
ATOM     16  C   UNL d   1       1.837  -6.773   4.159  0.00  0.00     0.002 A 
ATOM     17  C   UNL d   1       3.079  -6.238   3.833  0.00  0.00     0.001 A 
ATOM     18  C   UNL d   1       3.207  -5.382   2.735  0.00  0.00     0.015 A 
ENDBRANCH   6  12
ENDBRANCH   1   5
BRANCH   2  19
ATOM     19  O   UNL d   1      -0.905  -0.842   1.130  0.00  0.00    -0.179 OA
BRANCH  19  20
ATOM     20  N   UNL d   1      -1.891  -0.095   0.453  0.00  0.00    -0.244 N 
ATOM     21  C   UNL d   1      -2.649   0.567   1.277  0.00  0.00     0.109 C 
ATOM     22  HN  UNL d   1      -1.996  -0.076  -0.562  1.00  0.00     0.196 HD
BRANCH  21  23
ATOM     23  C   UNL d   1      -3.864   1.249   0.706  0.00  0.00     0.004 A 
ATOM     24  C   UNL d   1      -4.073   1.249  -0.682  0.00  0.00     0.016 A 
ATOM     25  C   UNL d   1      -5.260   1.754  -1.223  0.00  0.00     0.024 A 
ATOM     26  C   UNL d   1      -6.239   2.271  -0.378  0.00  0.00     0.034 A 
ATOM     27  C   UNL d   1      -6.032   2.308   1.000  0.00  0.00     0.024 A 
ATOM     28 CL   UNL d   1      -7.723   2.840  -1.035  0.00  0.00    -0.084 Cl
ATOM     29  C   UNL d   1      -4.848   1.796   1.543  0.00  0.00     0.016 A 
ENDBRANCH  21  23
BRANCH  21  30
ATOM     30  N   UNL d   1      -2.400   0.641   2.630  0.00  0.00    -0.286 NA
ATOM     31  H   UNL d   1      -1.460   0.336   2.857  0.00  0.00     0.125 HD
ATOM     32  H   UNL d   1      -2.613   1.531   3.066  0.00  0.00     0.125 HD
ENDBRANCH  21  30
ENDBRANCH  19  20
ENDBRANCH   2  19
TORSDOF 6
