REMARK  3 active torsions:
REMARK  status: ('A' for Active; 'I' for Inactive)
REMARK    1  A    between atoms: C_9  and  C_1 
REMARK    2  A    between atoms: O_14  and  C_1 
REMARK    3  A    between atoms: C_2  and  C_3 
ROOT
ATOM      1  C   UNL d   1      -1.330   0.203   0.156  0.00  0.00     0.291 C 
ATOM      2  C   UNL d   1       0.888   0.627  -0.100  0.00  0.00     0.055 C 
ATOM      3  N   UNL d   1       0.711  -0.534  -0.643  0.00  0.00    -0.266 N 
ATOM      4  HN  UNL d   1       1.387  -1.052  -1.203  1.00  0.00     0.194 HD
ATOM      5  C   UNL d   1      -0.257   1.098   0.732  0.00  0.00     0.141 C 
ATOM      6  O   UNL d   1      -0.605  -0.950  -0.309  0.00  0.00    -0.230 OA
ENDROOT
BRANCH   2   7
ATOM      7  C   UNL d   1       2.103   1.400  -0.253  0.00  0.00     0.037 A 
ATOM      8  S   UNL d   1       2.540   2.490   0.992  0.00  0.00    -0.087 SA
ATOM      9  C   UNL d   1       3.937   3.030   0.168  0.00  0.00     0.016 A 
ATOM     10  C   UNL d   1       4.848   4.010   0.610  0.00  0.00     0.021 A 
ATOM     11  C   UNL d   1       4.090   2.374  -1.054  0.00  0.00    -0.010 A 
ATOM     12  C   UNL d   1       5.933   4.342  -0.204  0.00  0.00     0.025 A 
ATOM     13  C   UNL d   1       6.106   3.708  -1.424  0.00  0.00     0.035 A 
ATOM     14  C   UNL d   1       5.206   2.731  -1.857  0.00  0.00     0.037 A 
ATOM     15 CL   UNL d   1       7.443   4.132  -2.423  0.00  0.00    -0.084 Cl
ATOM     16  C   UNL d   1       3.023   1.415  -1.293  0.00  0.00    -0.031 A 
ATOM     17  C   UNL d   1       2.950   0.599  -2.549  0.00  0.00     0.050 C 
ENDBRANCH   2   7
BRANCH   1  18
ATOM     18  C   UNL d   1      -2.385  -0.208   1.213  0.00  0.00     0.447 C 
ATOM     19  F   UNL d   1      -2.242   0.454   2.384  0.00  0.00    -0.165 F 
ATOM     20  F   UNL d   1      -3.632   0.082   0.748  0.00  0.00    -0.165 F 
ATOM     21  F   UNL d   1      -2.373  -1.530   1.488  0.00  0.00    -0.165 F 
ENDBRANCH   1  18
BRANCH   1  22
ATOM     22  O   UNL d   1      -1.920   0.903  -0.963  0.00  0.00    -0.357 OA
ATOM     23  H   UNL d   1      -2.848   0.604  -1.022  0.00  0.00     0.213 HD
ENDBRANCH   1  22
TORSDOF 3
