REMARK  6 active torsions:
REMARK  status: ('A' for Active; 'I' for Inactive)
REMARK    1  A    between atoms: C_5  and  S_1 
REMARK    2  A    between atoms: N_14  and  S_1 
REMARK    3  A    between atoms: S_2  and  C_4 
REMARK    4  A    between atoms: N_15  and  S_2 
REMARK       I    between atoms: C_3  and  N_6 
REMARK       I    between atoms: N_7  and  C_3 
REMARK    5  A    between atoms: N_6  and  C_16 
REMARK    6  A    between atoms: C_17  and  N_7 
ROOT
ATOM      1  C   UNL d   1       0.695  -3.793  -3.440  0.00  0.00     0.325 C 
ATOM      2  N   UNL d   1       0.430  -2.538  -3.872  0.00  0.00    -0.309 N 
ATOM      3  N   UNL d   1       0.572  -4.116  -2.126  0.00  0.00    -0.309 N 
ATOM      4  O   UNL d   1       0.982  -4.582  -4.343  0.00  0.00    -0.247 OA
ATOM      5  H   UNL d   1       0.478  -2.583  -4.885  0.00  0.00     0.170 HD
ATOM      6  H   UNL d   1       0.306  -3.388  -1.492  0.00  0.00     0.170 HD
ENDROOT
BRANCH   2   7
ATOM      7  C   UNL d   1       0.058  -1.287  -3.364  0.00  0.00     0.037 A 
ATOM      8  C   UNL d   1      -0.008  -0.906  -2.027  0.00  0.00     0.054 A 
ATOM      9  C   UNL d   1      -0.428   0.397  -1.698  0.00  0.00     0.076 A 
ATOM     10  C   UNL d   1      -0.765   1.327  -2.684  0.00  0.00     0.025 A 
ATOM     11  C   UNL d   1      -0.675   0.960  -4.018  0.00  0.00     0.004 A 
ATOM     12  C   UNL d   1      -0.269  -0.333  -4.349  0.00  0.00     0.029 A 
BRANCH   9  13
ATOM     13  S   UNL d   1      -0.597   0.872  -0.002  0.00  0.00     0.239 S 
ATOM     14  O   UNL d   1      -0.280  -0.264   0.836  0.00  0.00    -0.206 OA
ATOM     15  O   UNL d   1      -1.811   1.634   0.151  0.00  0.00    -0.206 OA
BRANCH  13  16
ATOM     16  N   UNL d   1       0.673   1.951   0.194  0.00  0.00    -0.225 NA
ATOM     17  H   UNL d   1       1.333   1.593   0.887  0.00  0.00     0.136 HD
ATOM     18  H   UNL d   1       0.309   2.877   0.419  0.00  0.00     0.136 HD
ENDBRANCH  13  16
ENDBRANCH   9  13
ENDBRANCH   2   7
BRANCH   3  19
ATOM     19  C   UNL d   1       0.529  -5.431  -1.595  0.00  0.00     0.037 A 
ATOM     20  C   UNL d   1       0.760  -6.578  -2.359  0.00  0.00     0.054 A 
ATOM     21  C   UNL d   1       0.463  -7.841  -1.843  0.00  0.00     0.076 A 
ATOM     22  C   UNL d   1       0.008  -7.987  -0.532  0.00  0.00     0.025 A 
ATOM     23  C   UNL d   1      -0.132  -6.854   0.268  0.00  0.00     0.004 A 
ATOM     24  C   UNL d   1       0.126  -5.583  -0.261  0.00  0.00     0.029 A 
BRANCH  21  25
ATOM     25  S   UNL d   1       0.527  -9.243  -2.918  0.00  0.00     0.239 S 
ATOM     26  O   UNL d   1      -0.776  -9.866  -2.933  0.00  0.00    -0.206 OA
ATOM     27  O   UNL d   1       1.243  -8.908  -4.126  0.00  0.00    -0.206 OA
BRANCH  25  28
ATOM     28  N   UNL d   1       1.538 -10.311  -2.106  0.00  0.00    -0.225 NA
ATOM     29  H   UNL d   1       1.022 -11.172  -1.920  0.00  0.00     0.136 HD
ATOM     30  H   UNL d   1       2.374 -10.459  -2.673  0.00  0.00     0.136 HD
ENDBRANCH  25  28
ENDBRANCH  21  25
ENDBRANCH   3  19
TORSDOF 6
