REMARK  6 active torsions:
REMARK  status: ('A' for Active; 'I' for Inactive)
REMARK    1  A    between atoms: C_9  and  N_3 
REMARK    2  A    between atoms: C_10  and  C_4 
REMARK    3  A    between atoms: C_8  and  C_11 
REMARK    4  A    between atoms: C_13  and  C_9 
REMARK    5  A    between atoms: O_18  and  C_13 
REMARK    6  A    between atoms: C_22  and  O_18 
ROOT
ATOM      1  N   UNL d   1      -0.424  -1.173   0.120  0.00  0.00    -0.268 N 
ATOM      2  HN  UNL d   1      -0.677  -2.141   0.321  1.00  0.00     0.190 HD
ATOM      3  N   UNL d   1       0.789  -0.620  -0.083  0.00  0.00    -0.207 N 
ATOM      4  C   UNL d   1      -1.205  -0.088  -0.016  0.00  0.00     0.144 A 
ATOM      5  N   UNL d   1      -0.474   1.065  -0.206  0.00  0.00    -0.266 N 
ATOM      6  HN  UNL d   1      -0.845   2.008  -0.316  1.00  0.00     0.186 HD
ATOM      7  N   UNL d   1       0.803   0.714  -0.220  0.00  0.00    -0.002 NA
ENDROOT
BRANCH   4   8
ATOM      8  C   UNL d   1      -2.661  -0.091   0.052  0.00  0.00     0.011 A 
ATOM      9  C   UNL d   1      -3.374  -1.282   0.279  0.00  0.00     0.031 A 
ATOM     10  C   UNL d   1      -4.780  -1.279   0.359  0.00  0.00     0.048 A 
ATOM     11  C   UNL d   1      -5.468  -0.067   0.197  0.00  0.00     0.016 A 
ATOM     12  C   UNL d   1      -4.771   1.117  -0.036  0.00  0.00     0.002 A 
ATOM     13  C   UNL d   1      -3.377   1.103  -0.106  0.00  0.00     0.015 A 
BRANCH  10  14
ATOM     14  C   UNL d   1      -5.552  -2.550   0.621  0.00  0.00     0.417 C 
ATOM     15  F   UNL d   1      -4.766  -3.655   0.745  0.00  0.00    -0.166 F 
ATOM     16  F   UNL d   1      -6.283  -2.482   1.769  0.00  0.00    -0.166 F 
ATOM     17  F   UNL d   1      -6.442  -2.833  -0.370  0.00  0.00    -0.166 F 
ENDBRANCH  10  14
ENDBRANCH   4   8
BRANCH   3  18
ATOM     18  C   UNL d   1       2.009  -1.376   0.043  0.00  0.00     0.278 C 
BRANCH  18  19
ATOM     19  C   UNL d   1       2.407  -1.966  -1.273  0.00  0.00     0.280 C 
ATOM     20  O   UNL d   1       1.819  -1.840  -2.339  0.00  0.00    -0.263 OA
BRANCH  19  21
ATOM     21  O   UNL d   1       3.523  -2.735  -1.089  0.00  0.00    -0.320 OA
BRANCH  21  22
ATOM     22  C   UNL d   1       3.827  -3.647  -2.155  0.00  0.00     0.174 C 
ATOM     23  C   UNL d   1       3.103  -4.951  -1.875  0.00  0.00     0.034 C 
ENDBRANCH  21  22
ENDBRANCH  19  21
ENDBRANCH  18  19
ENDBRANCH   3  18
TORSDOF 6
