REMARK  7 active torsions:
REMARK  status: ('A' for Active; 'I' for Inactive)
REMARK    1  A    between atoms: C_2  and  S_1 
REMARK    2  A    between atoms: N_9  and  S_1 
REMARK    3  A    between atoms: C_10  and  C_3 
REMARK    4  A    between atoms: C_11  and  C_4 
REMARK    5  A    between atoms: C_5  and  N_9 
REMARK    6  A    between atoms: O_19  and  C_10 
REMARK    7  A    between atoms: O_20  and  C_11 
ROOT
ATOM      1  S   UNL d   1       0.439  -0.013   0.176  0.00  0.00     0.268 S 
ATOM      2  O   UNL d   1      -0.757   0.196   0.970  0.00  0.00    -0.204 OA
ATOM      3  O   UNL d   1       1.725   0.447   0.657  0.00  0.00    -0.204 OA
ENDROOT
BRANCH   1   4
ATOM      4  C   UNL d   1       0.162   0.930  -1.318  0.00  0.00     0.186 A 
ATOM      5  C   UNL d   1       0.142   2.311  -1.474  0.00  0.00     0.071 A 
ATOM      6  C   UNL d   1      -0.135   2.611  -2.836  0.00  0.00     0.072 A 
ATOM      7  C   UNL d   1      -0.265   1.381  -3.454  0.00  0.00     0.067 A 
ATOM      8  O   UNL d   1      -0.098   0.371  -2.552  0.00  0.00    -0.301 OA
ATOM      9  C   UNL d   1      -0.543   0.975  -4.852  0.00  0.00     0.078 C 
BRANCH   6  10
ATOM     10  C   UNL d   1      -0.265   3.915  -3.465  0.00  0.00     0.295 C 
ATOM     11  O   UNL d   1      -0.507   4.080  -4.655  0.00  0.00    -0.259 OA
BRANCH  10  12
ATOM     12  O   UNL d   1      -0.086   4.926  -2.566  0.00  0.00    -0.322 OA
ATOM     13  C   UNL d   1      -0.206   6.240  -3.110  0.00  0.00     0.213 C 
ENDBRANCH  10  12
ENDBRANCH   6  10
ENDBRANCH   1   4
BRANCH   1  14
ATOM     14  N   UNL d   1       0.581  -1.687  -0.068  0.00  0.00    -0.178 NA
ATOM     15  H   UNL d   1       0.617  -2.065   0.881  0.00  0.00     0.146 HD
BRANCH  14  16
ATOM     16  C   UNL d   1      -0.341  -2.372  -0.886  0.00  0.00     0.046 A 
ATOM     17  C   UNL d   1      -0.129  -2.781  -2.194  0.00  0.00     0.102 A 
ATOM     18  S   UNL d   1      -1.469  -3.688  -2.783  0.00  0.00    -0.094 SA
ATOM     19  C   UNL d   1      -2.297  -3.576  -1.298  0.00  0.00     0.052 A 
ATOM     20  C   UNL d   1      -1.589  -2.846  -0.372  0.00  0.00     0.033 A 
BRANCH  17  21
ATOM     21  C   UNL d   1       1.009  -2.597  -3.079  0.00  0.00     0.301 C 
ATOM     22  O   UNL d   1       1.131  -3.069  -4.205  0.00  0.00    -0.259 OA
BRANCH  21  23
ATOM     23  O   UNL d   1       1.958  -1.821  -2.481  0.00  0.00    -0.322 OA
ATOM     24  C   UNL d   1       3.127  -1.558  -3.255  0.00  0.00     0.213 C 
ENDBRANCH  21  23
ENDBRANCH  17  21
ENDBRANCH  14  16
ENDBRANCH   1  14
TORSDOF 7
