REMARK  1 active torsions:
REMARK  status: ('A' for Active; 'I' for Inactive)
REMARK    1  A    between atoms: C_9  and  C_6 
ROOT
ATOM      1  C   UNL d   1       1.752  -0.114  -0.006  0.00  0.00     0.067 A 
ATOM      2  C   UNL d   1       0.838  -1.286   0.038  0.00  0.00     0.197 A 
ATOM      3  C   UNL d   1       0.935   1.129  -0.017  0.00  0.00     0.197 A 
ATOM      4  C   UNL d   1      -0.514  -0.718   0.033  0.00  0.00     0.029 A 
ATOM      5  C   UNL d   1      -0.462   0.673  -0.001  0.00  0.00     0.029 A 
ATOM      6  C   UNL d   1       3.090  -0.091  -0.051  0.00  0.00     0.031 C 
ATOM      7  O   UNL d   1       1.105  -2.468   0.072  0.00  0.00    -0.286 OA
ATOM      8  O   UNL d   1       1.318   2.280  -0.042  0.00  0.00    -0.286 OA
ATOM      9  C   UNL d   1      -1.717  -1.401   0.048  0.00  0.00     0.016 A 
ATOM     10  C   UNL d   1      -1.614   1.440  -0.027  0.00  0.00     0.016 A 
ATOM     11  C   UNL d   1      -2.839   0.765  -0.016  0.00  0.00     0.001 A 
ATOM     12  C   UNL d   1      -2.890  -0.643   0.022  0.00  0.00     0.001 A 
ENDROOT
BRANCH   6  13
ATOM     13  C   UNL d   1       3.940  -1.281  -0.086  0.00  0.00    -0.035 A 
ATOM     14  C   UNL d   1       4.283  -1.860  -1.315  0.00  0.00     0.014 A 
ATOM     15  C   UNL d   1       5.115  -2.980  -1.353  0.00  0.00     0.043 A 
ATOM     16  C   UNL d   1       5.597  -3.517  -0.165  0.00  0.00     0.116 A 
ATOM     17  C   UNL d   1       5.255  -2.961   1.062  0.00  0.00     0.043 A 
ATOM     18  F   UNL d   1       6.408  -4.583  -0.204  0.00  0.00    -0.206 F 
ATOM     19  C   UNL d   1       4.422  -1.841   1.104  0.00  0.00     0.014 A 
ENDBRANCH   6  13
TORSDOF 1
