REMARK  2 active torsions:
REMARK  status: ('A' for Active; 'I' for Inactive)
REMARK    1  A    between atoms: C_5  and  C_1 
REMARK    2  A    between atoms: N_11  and  C_2 
ROOT
ATOM      1  C   UNL d   1       0.277   1.280   0.068  0.00  0.00     0.028 A 
ATOM      2  C   UNL d   1      -0.074   0.641  -1.124  0.00  0.00     0.091 A 
ATOM      3  N   UNL d   1      -0.617  -0.590  -1.187  0.00  0.00    -0.343 N 
ATOM      4  HN  UNL d   1      -0.847  -1.029  -2.078  1.00  0.00     0.167 HD
ATOM      5  N   UNL d   1      -0.567  -0.714   1.189  0.00  0.00    -0.361 N 
ATOM      6  HN  UNL d   1      -0.768  -1.228   2.047  1.00  0.00     0.166 HD
ATOM      7  C   UNL d   1      -0.838  -1.208  -0.021  0.00  0.00     0.181 A 
ATOM      8  C   UNL d   1      -0.005   0.515   1.195  0.00  0.00     0.104 A 
ENDROOT
BRANCH   1   9
ATOM      9  C   UNL d   1       0.888   2.627   0.185  0.00  0.00    -0.021 A 
ATOM     10  C   UNL d   1       0.555   3.490   1.250  0.00  0.00     0.014 A 
ATOM     11  C   UNL d   1       1.139   4.756   1.383  0.00  0.00     0.024 A 
ATOM     12  C   UNL d   1       2.058   5.196   0.438  0.00  0.00     0.034 A 
ATOM     13  C   UNL d   1       2.407   4.375  -0.626  0.00  0.00     0.024 A 
ATOM     14 CL   UNL d   1       2.766   6.755   0.590  0.00  0.00    -0.084 Cl
ATOM     15  C   UNL d   1       1.838   3.100  -0.740  0.00  0.00     0.014 A 
ENDBRANCH   1   9
BRANCH   2  16
ATOM     16  N   UNL d   1       0.121   1.220  -2.381  0.00  0.00    -0.288 NA
ATOM     17  H   UNL d   1      -0.317   2.133  -2.435  0.00  0.00     0.125 HD
ATOM     18  H   UNL d   1      -0.261   0.575  -3.068  0.00  0.00     0.125 HD
ENDBRANCH   2  16
TORSDOF 2
