REMARK  6 active torsions:
REMARK  status: ('A' for Active; 'I' for Inactive)
REMARK    1  A    between atoms: C_2  and  S_1 
REMARK    2  A    between atoms: C_12  and  S_1 
REMARK    3  A    between atoms: C_6  and  C_3 
REMARK    4  A    between atoms: N_4  and  C_7 
REMARK    5  A    between atoms: C_15  and  N_9 
REMARK    6  A    between atoms: C_18  and  C_15 
ROOT
ATOM      1  C   UNL d   1       1.040  -1.750  -1.703  0.00  0.00     0.144 C 
ATOM      2  C   UNL d   1      -0.282  -1.949  -1.517  0.00  0.00     0.049 C 
ATOM      3  C   UNL d   1       1.522  -1.177  -2.913  0.00  0.00     0.112 C 
ATOM      4  N   UNL d   1       1.857  -0.649  -3.888  0.00  0.00    -0.191 NA
ENDROOT
BRANCH   1   5
ATOM      5  S   UNL d   1       2.147  -2.331  -0.513  0.00  0.00     0.216 S 
ATOM      6  O   UNL d   1       2.198  -3.780  -0.673  0.00  0.00    -0.216 OA
ATOM      7  O   UNL d   1       1.873  -1.762   0.788  0.00  0.00    -0.216 OA
BRANCH   5   8
ATOM      8  C   UNL d   1       3.799  -1.756  -0.876  0.00  0.00     0.065 A 
ATOM      9  C   UNL d   1       4.097  -0.392  -0.798  0.00  0.00     0.024 A 
ATOM     10  C   UNL d   1       5.434   0.009  -0.721  0.00  0.00     0.002 A 
ATOM     11  C   UNL d   1       6.456  -0.944  -0.708  0.00  0.00     0.000 A 
ATOM     12  C   UNL d   1       6.154  -2.300  -0.822  0.00  0.00     0.002 A 
ATOM     13  C   UNL d   1       4.826  -2.708  -0.921  0.00  0.00     0.024 A 
ENDBRANCH   5   8
ENDBRANCH   1   5
BRANCH   2  14
ATOM     14  C   UNL d   1      -0.940  -2.320  -0.238  0.00  0.00    -0.007 A 
ATOM     15  C   UNL d   1      -1.361  -1.347   0.727  0.00  0.00     0.040 A 
ATOM     16  C   UNL d   1      -1.831  -1.872   1.952  0.00  0.00     0.030 A 
ATOM     17  C   UNL d   1      -1.893  -3.246   2.220  0.00  0.00     0.002 A 
ATOM     18  C   UNL d   1      -1.499  -4.159   1.256  0.00  0.00     0.001 A 
ATOM     19  C   UNL d   1      -1.032  -3.698   0.030  0.00  0.00     0.014 A 
BRANCH  15  20
ATOM     20  N   UNL d   1      -1.249   0.035   0.549  0.00  0.00    -0.377 N 
ATOM     21  C   UNL d   1      -1.474   0.684  -0.746  0.00  0.00     0.153 C 
ATOM     22  C   UNL d   1      -0.430   1.809  -0.897  0.00  0.00     0.292 C 
ATOM     23  N   UNL d   1      -0.641   2.908   0.065  0.00  0.00     0.095 N 
ATOM     24  C   UNL d   1      -0.691   2.335   1.436  0.00  0.00     0.292 C 
ATOM     25  C   UNL d   1      -1.458   0.993   1.664  0.00  0.00     0.153 C 
BRANCH  23  26
ATOM     26  C   UNL d   1      -1.841   3.667  -0.316  0.00  0.00     0.311 C 
BRANCH  26  27
ATOM     27  C   UNL d   1      -2.071   4.909   0.504  0.00  0.00    -0.030 A 
ATOM     28  C   UNL d   1      -1.093   5.909   0.583  0.00  0.00     0.009 A 
ATOM     29  C   UNL d   1      -1.318   7.048   1.353  0.00  0.00     0.001 A 
ATOM     30  C   UNL d   1      -2.521   7.199   2.041  0.00  0.00     0.000 A 
ATOM     31  C   UNL d   1      -3.506   6.217   1.954  0.00  0.00     0.001 A 
ATOM     32  C   UNL d   1      -3.284   5.077   1.185  0.00  0.00     0.009 A 
ENDBRANCH  26  27
ENDBRANCH  23  26
ENDBRANCH  15  20
ENDBRANCH   2  14
TORSDOF 6
