REMARK  3 active torsions:
REMARK  status: ('A' for Active; 'I' for Inactive)
REMARK    1  A    between atoms: C_2  and  C_1 
REMARK    2  A    between atoms: C_4  and  C_2 
REMARK    3  A    between atoms: C_9  and  C_3 
ROOT
ATOM      1  C   UNL d   1       0.991   0.107  -0.120  0.00  0.00     0.093 C 
ATOM      2  C   UNL d   1       0.348  -0.703   0.747  0.00  0.00     0.063 C 
ATOM      3  C   UNL d   1       0.317   0.940  -1.054  0.00  0.00     0.103 C 
ATOM      4  N   UNL d   1      -0.182   1.651  -1.824  0.00  0.00    -0.191 NA
ENDROOT
BRANCH   1   5
ATOM      5  C   UNL d   1       2.485   0.148  -0.055  0.00  0.00     0.174 C 
ATOM      6  O   UNL d   1       3.121  -0.514   0.760  0.00  0.00    -0.291 OA
BRANCH   5   7
ATOM      7  C   UNL d   1       3.196   1.058  -1.012  0.00  0.00     0.061 A 
ATOM      8  C   UNL d   1       4.672   0.903  -1.289  0.00  0.00     0.013 A 
ATOM      9  C   UNL d   1       4.186   2.063  -0.470  0.00  0.00     0.013 A 
ENDBRANCH   5   7
ENDBRANCH   1   5
BRANCH   2  10
ATOM     10  C   UNL d   1      -1.069  -0.848   0.743  0.00  0.00     0.076 A 
ATOM     11  O   UNL d   1      -1.835  -0.722  -0.394  0.00  0.00    -0.323 OA
ATOM     12  C   UNL d   1      -3.136  -0.879  -0.064  0.00  0.00     0.142 A 
ATOM     13  C   UNL d   1      -3.256  -1.139   1.276  0.00  0.00     0.027 A 
ATOM     14  C   UNL d   1      -1.934  -1.141   1.790  0.00  0.00     0.039 A 
ENDBRANCH   2  10
TORSDOF 3
