REMARK  10 active torsions:
REMARK  status: ('A' for Active; 'I' for Inactive)
REMARK       I    between atoms: N_2  and  C_1 
REMARK    1  A    between atoms: C_14  and  C_1 
REMARK    2  A    between atoms: C_6  and  N_2 
REMARK    3  A    between atoms: C_3  and  C_15 
REMARK    4  A    between atoms: O_8  and  C_3 
REMARK    5  A    between atoms: C_18  and  C_14 
REMARK    6  A    between atoms: C_15  and  C_17 
REMARK    7  A    between atoms: C_17  and  C_21 
REMARK    8  A    between atoms: C_19  and  C_18 
REMARK    9  A    between atoms: C_20  and  C_19 
REMARK   10  A    between atoms: C_21  and  C_20 
ROOT
ATOM      1  C   UNL d   1       0.993  -0.098  -0.095  0.00  0.00     0.222 C 
ATOM      2  N   UNL d   1       0.393  -1.318   0.165  0.00  0.00    -0.327 N 
ATOM      3  O   UNL d   1       0.388   0.955  -0.306  0.00  0.00    -0.273 OA
ATOM      4  H   UNL d   1       0.977  -2.073   0.493  0.00  0.00     0.169 HD
ENDROOT
BRANCH   1   5
ATOM      5  C   UNL d   1       2.526  -0.058  -0.101  0.00  0.00     0.103 C 
BRANCH   5   6
ATOM      6  C   UNL d   1       3.251  -1.393  -0.028  0.00  0.00     0.009 C 
BRANCH   6   7
ATOM      7  C   UNL d   1       4.777  -1.285  -0.160  0.00  0.00     0.000 C 
BRANCH   7   8
ATOM      8  C   UNL d   1       5.356  -2.701  -0.109  0.00  0.00     0.000 C 
BRANCH   8   9
ATOM      9  C   UNL d   1       6.879  -2.780  -0.187  0.00  0.00     0.000 C 
BRANCH   9  10
ATOM     10  C   UNL d   1       7.306  -4.251  -0.125  0.00  0.00     0.010 C 
BRANCH  10  11
ATOM     11  C   UNL d   1       8.819  -4.428  -0.190  0.00  0.00     0.111 C 
BRANCH  11  12
ATOM     12  C   UNL d   1       9.207  -5.888  -0.125  0.00  0.00     0.258 C 
ATOM     13  O   UNL d   1       8.438  -6.829  -0.045  0.00  0.00    -0.265 OA
BRANCH  12  14
ATOM     14  O   UNL d   1      10.569  -5.992  -0.171  0.00  0.00    -0.326 OA
ATOM     15  C   UNL d   1      11.054  -7.332  -0.122  0.00  0.00     0.213 C 
ENDBRANCH  12  14
ENDBRANCH  11  12
ENDBRANCH  10  11
ENDBRANCH   9  10
ENDBRANCH   8   9
ENDBRANCH   7   8
ENDBRANCH   6   7
ENDBRANCH   5   6
ENDBRANCH   1   5
BRANCH   2  16
ATOM     16  C   UNL d   1      -0.978  -1.639   0.005  0.00  0.00     0.034 A 
ATOM     17  C   UNL d   1      -1.913  -0.770  -0.566  0.00  0.00     0.031 A 
ATOM     18  C   UNL d   1      -3.231  -1.183  -0.796  0.00  0.00     0.026 A 
ATOM     19  C   UNL d   1      -3.627  -2.469  -0.448  0.00  0.00     0.034 A 
ATOM     20  C   UNL d   1      -2.723  -3.336   0.158  0.00  0.00     0.026 A 
ATOM     21 CL   UNL d   1      -5.229  -2.992  -0.790  0.00  0.00    -0.084 Cl
ATOM     22  C   UNL d   1      -1.402  -2.923   0.384  0.00  0.00     0.031 A 
ENDBRANCH   2  16
TORSDOF 10
