REMARK  4 active torsions:
REMARK  status: ('A' for Active; 'I' for Inactive)
REMARK    1  A    between atoms: C_10  and  C_3 
REMARK    2  A    between atoms: N_7  and  C_9 
REMARK    3  A    between atoms: C_19  and  C_8 
REMARK    4  A    between atoms: C_22  and  C_14 
ROOT
ATOM      1  N   UNL d   1       1.570  -0.041   0.014  0.00  0.00    -0.331 N 
ATOM      2  HN  UNL d   1       2.516  -0.422  -0.009  1.00  0.00     0.168 HD
ATOM      3  C   UNL d   1       1.199   1.198   0.028  0.00  0.00     0.162 A 
ATOM      4  C   UNL d   1       0.375  -0.715   0.036  0.00  0.00     0.111 A 
ATOM      5  O   UNL d   1      -0.127   1.460   0.052  0.00  0.00    -0.256 OA
ATOM      6  C   UNL d   1      -0.761   0.253   0.062  0.00  0.00     0.316 A 
ATOM      7  C   UNL d   1       0.292  -2.051   0.032  0.00  0.00     0.047 C 
ATOM      8  O   UNL d   1      -1.962   0.072   0.095  0.00  0.00    -0.257 OA
ENDROOT
BRANCH   7   9
ATOM      9  C   UNL d   1      -0.941  -2.832   0.022  0.00  0.00    -0.034 A 
ATOM     10  C   UNL d   1      -1.472  -3.264  -1.195  0.00  0.00     0.012 A 
ATOM     11  C   UNL d   1      -2.625  -4.051  -1.219  0.00  0.00     0.008 A 
ATOM     12  C   UNL d   1      -3.267  -4.424  -0.029  0.00  0.00    -0.055 A 
ATOM     13  C   UNL d   1      -2.737  -3.967   1.188  0.00  0.00     0.008 A 
ATOM     14  C   UNL d   1      -1.583  -3.177   1.214  0.00  0.00     0.012 A 
BRANCH  12  15
ATOM     15  C   UNL d   1      -4.499  -5.312  -0.041  0.00  0.00     0.010 C 
ATOM     16  C   UNL d   1      -5.660  -4.662  -0.799  0.00  0.00     0.015 C 
ATOM     17  C   UNL d   1      -4.185  -6.694  -0.622  0.00  0.00     0.015 C 
ENDBRANCH  12  15
ENDBRANCH   7   9
BRANCH   3  18
ATOM     18  C   UNL d   1       2.079   2.376   0.035  0.00  0.00     0.015 A 
ATOM     19  C   UNL d   1       3.464   2.186  -0.073  0.00  0.00     0.018 A 
ATOM     20  C   UNL d   1       4.333   3.281  -0.016  0.00  0.00     0.037 A 
ATOM     21  C   UNL d   1       3.809   4.569   0.151  0.00  0.00     0.102 A 
ATOM     22  C   UNL d   1       2.424   4.769   0.243  0.00  0.00     0.037 A 
ATOM     23  C   UNL d   1       1.561   3.670   0.183  0.00  0.00     0.018 A 
BRANCH  21  24
ATOM     24  N   UNL d   1       4.717   5.720   0.247  0.00  0.00    -0.116 N 
ATOM     25  O   UNL d   1       5.934   5.500   0.167  0.00  0.00    -0.532 OA
ATOM     26  O   UNL d   1       4.212   6.840   0.405  0.00  0.00    -0.532 OA
ENDBRANCH  21  24
ENDBRANCH   3  18
TORSDOF 4
