REMARK  5 active torsions:
REMARK  status: ('A' for Active; 'I' for Inactive)
REMARK       I    between atoms: C_2  and  N_1 
REMARK    1  A    between atoms: O_11  and  C_2 
REMARK    2  A    between atoms: C_3  and  C_10 
REMARK    3  A    between atoms: C_9  and  C_8 
REMARK    4  A    between atoms: O_15  and  C_9 
REMARK    5  A    between atoms: C_10  and  O_11 
ROOT
ATOM      1  C   UNL d   1      -1.782   4.671   1.417  0.00  0.00     0.078 A 
ATOM      2  C   UNL d   1      -0.835   6.885   1.203  0.00  0.00    -0.018 A 
ATOM      3  C   UNL d   1      -1.752   6.702   0.101  0.00  0.00    -0.018 A 
ATOM      4  C   UNL d   1      -0.805   5.705   1.979  0.00  0.00    -0.036 A 
ATOM      5  C   UNL d   1      -2.313   5.407   0.179  0.00  0.00    -0.036 A 
ATOM      6  C   UNL d   1      -0.056   7.979   1.546  0.00  0.00     0.013 A 
ATOM      7  C   UNL d   1      -2.089   7.566  -0.931  0.00  0.00     0.013 A 
ATOM      8  C   UNL d   1      -3.219   4.970  -0.777  0.00  0.00     0.009 A 
ATOM      9  C   UNL d   1      -0.002   5.617   3.106  0.00  0.00     0.009 A 
ATOM     10  C   UNL d   1       0.792   6.715   3.443  0.00  0.00     0.001 A 
ATOM     11  C   UNL d   1       0.765   7.886   2.672  0.00  0.00     0.001 A 
ATOM     12  C   UNL d   1      -2.993   7.125  -1.900  0.00  0.00     0.001 A 
ATOM     13  C   UNL d   1      -3.551   5.838  -1.824  0.00  0.00     0.001 A 
ENDROOT
BRANCH   1  14
ATOM     14  C   UNL d   1      -1.145   3.310   1.073  0.00  0.00     0.194 C 
BRANCH  14  15
ATOM     15  O   UNL d   1      -0.511   2.659   2.200  0.00  0.00    -0.303 OA
BRANCH  15  16
ATOM     16  C   UNL d   1      -1.316   2.035   3.092  0.00  0.00     0.363 C 
ATOM     17  N   UNL d   1      -0.640   1.588   4.201  0.00  0.00    -0.313 N 
ATOM     18  C   UNL d   1      -1.285   0.931   5.347  0.00  0.00     0.187 C 
ATOM     19  C   UNL d   1       0.794   1.330   4.186  0.00  0.00     0.129 C 
ATOM     20  C   UNL d   1      -0.115   0.728   6.320  0.00  0.00     0.038 C 
ATOM     21  C   UNL d   1       1.075   0.470   5.412  0.00  0.00     0.022 C 
ATOM     22  O   UNL d   1      -2.537   1.933   2.976  0.00  0.00    -0.238 OA
BRANCH  18  23
ATOM     23  C   UNL d   1      -2.428   1.665   6.079  0.00  0.00     0.163 C 
ATOM     24  O   UNL d   1      -2.489   1.789   7.296  0.00  0.00    -0.648 OA
BRANCH  23  25
ATOM     25  O   UNL d   1      -3.462   2.042   5.295  0.00  0.00    -0.775 OA
ATOM     26  H   UNL d   1      -3.322   1.864   4.334  0.00  0.00     0.167 HD
ENDBRANCH  23  25
ENDBRANCH  18  23
ENDBRANCH  15  16
ENDBRANCH  14  15
ENDBRANCH   1  14
TORSDOF 5
