REMARK  2 active torsions:
REMARK  status: ('A' for Active; 'I' for Inactive)
REMARK    1  A    between atoms: C_6  and  N_1 
REMARK    2  A    between atoms: C_5  and  C_13 
ROOT
ATOM      1  C   UNL d   1      -2.394   0.170   5.483  0.00  0.00    -0.006 C 
ATOM      2  C   UNL d   1      -3.140  -0.135   6.745  0.00  0.00     0.189 C 
ATOM      3  C   UNL d   1      -3.062   0.893   7.823  0.00  0.00     0.021 A 
ATOM      4  C   UNL d   1      -1.977  -0.874   4.746  0.00  0.00     0.022 C 
ATOM      5  C   UNL d   1      -2.259   2.039   7.670  0.00  0.00    -0.044 A 
ATOM      6  C   UNL d   1      -2.163   1.626   5.209  0.00  0.00     0.047 C 
ATOM      7  O   UNL d   1      -3.766  -1.177   6.900  0.00  0.00    -0.287 OA
ATOM      8  C   UNL d   1      -1.473   2.272   6.405  0.00  0.00     0.044 C 
ATOM      9  C   UNL d   1      -3.773   0.688   9.011  0.00  0.00     0.016 A 
ATOM     10  C   UNL d   1      -2.154   2.948   8.732  0.00  0.00     0.008 A 
ATOM     11  C   UNL d   1      -3.678   1.611  10.052  0.00  0.00     0.001 A 
ATOM     12  C   UNL d   1      -2.864   2.736   9.914  0.00  0.00     0.001 A 
ENDROOT
BRANCH   4  13
ATOM     13  C   UNL d   1      -1.161  -0.756   3.538  0.00  0.00    -0.035 A 
ATOM     14  C   UNL d   1       0.237  -0.739   3.644  0.00  0.00     0.014 A 
ATOM     15  C   UNL d   1       1.031  -0.653   2.498  0.00  0.00     0.037 A 
ATOM     16  C   UNL d   1       0.419  -0.584   1.240  0.00  0.00     0.102 A 
ATOM     17  C   UNL d   1      -0.978  -0.581   1.126  0.00  0.00     0.037 A 
ATOM     18  C   UNL d   1      -1.764  -0.666   2.279  0.00  0.00     0.014 A 
BRANCH  16  19
ATOM     19  N   UNL d   1       1.250  -0.527   0.031  0.00  0.00    -0.116 N 
ATOM     20  O   UNL d   1       0.671  -0.492  -1.065  0.00  0.00    -0.532 OA
ATOM     21  O   UNL d   1       2.480  -0.515   0.176  0.00  0.00    -0.532 OA
ENDBRANCH  16  19
ENDBRANCH   4  13
TORSDOF 2
