REMARK  3 active torsions:
REMARK  status: ('A' for Active; 'I' for Inactive)
REMARK    1  A    between atoms: C_9  and  C_4 
REMARK    2  A    between atoms: S_10  and  C_5 
REMARK    3  A    between atoms: O_16  and  C_13 
ROOT
ATOM      1  C   UNL d   1       1.752  -0.441   0.621  0.00  0.00     0.108 A 
ATOM      2  N   UNL d   1      -0.256  -0.202  -0.427  0.00  0.00    -0.297 N 
ATOM      3  HN  UNL d   1      -1.133  -0.383  -0.915  1.00  0.00     0.187 HD
ATOM      4  C   UNL d   1       0.614  -1.103   0.068  0.00  0.00     0.082 A 
ATOM      5  C   UNL d   1       1.501   0.905   0.489  0.00  0.00     0.107 A 
ATOM      6  N   UNL d   1       0.290   0.989  -0.133  0.00  0.00    -0.292 N 
ATOM      7  C   UNL d   1       2.904  -1.040   1.203  0.00  0.00     0.104 C 
ATOM      8  N   UNL d   1       3.838  -1.529   1.683  0.00  0.00    -0.191 NA
ATOM      9  H   UNL d   1      -0.212   1.833  -0.386  0.00  0.00     0.187 HD
ENDROOT
BRANCH   4  10
ATOM     10  C   UNL d   1       0.327  -2.542  -0.009  0.00  0.00    -0.006 A 
ATOM     11  C   UNL d   1      -0.424  -3.060  -1.075  0.00  0.00     0.016 A 
ATOM     12  C   UNL d   1      -0.706  -4.431  -1.159  0.00  0.00     0.037 A 
ATOM     13  C   UNL d   1      -0.243  -5.300  -0.173  0.00  0.00     0.068 A 
ATOM     14  C   UNL d   1       0.512  -4.797   0.883  0.00  0.00     0.037 A 
ATOM     15  C   UNL d   1       0.778  -3.429   0.978  0.00  0.00     0.016 A 
BRANCH  13  16
ATOM     16  O   UNL d   1      -0.432  -6.654  -0.159  0.00  0.00    -0.356 OA
ATOM     17  C   UNL d   1      -1.651  -7.104  -0.739  0.00  0.00     0.210 C 
ENDBRANCH  13  16
ENDBRANCH   4  10
BRANCH   5  18
ATOM     18  S   UNL d   1       2.279   2.385   0.935  0.00  0.00    -0.114 SA
ATOM     19  C   UNL d   1       4.036   1.969   0.933  0.00  0.00     0.097 C 
ENDBRANCH   5  18
TORSDOF 3
