REMARK  7 active torsions:
REMARK  status: ('A' for Active; 'I' for Inactive)
REMARK       I    between atoms: N_2  and  C_1 
REMARK    1  A    between atoms: C_8  and  C_1 
REMARK    2  A    between atoms: C_3  and  N_2 
REMARK    3  A    between atoms: C_5  and  C_8 
REMARK    4  A    between atoms: C_9  and  C_5 
REMARK    5  A    between atoms: C_12  and  C_5 
REMARK    6  A    between atoms: C_7  and  C_9 
REMARK    7  A    between atoms: O_16  and  C_7 
ROOT
ATOM      1  C   UNL d   1       0.381  -0.894  -0.915  0.00  0.00     0.113 C 
ENDROOT
BRANCH   1   2
ATOM      2  C   UNL d   1      -1.145  -0.650  -0.889  0.00  0.00     0.037 C 
BRANCH   2   3
ATOM      3  C   UNL d   1      -1.614   0.786  -1.206  0.00  0.00     0.119 C 
BRANCH   3   4
ATOM      4  C   UNL d   1      -1.242   1.307  -2.575  0.00  0.00     0.140 C 
ATOM      5  O   UNL d   1      -0.293   0.928  -3.247  0.00  0.00    -0.650 OA
BRANCH   4   6
ATOM      6  O   UNL d   1      -2.046   2.318  -2.982  0.00  0.00    -0.776 OA
ATOM      7  H   UNL d   1      -2.740   2.556  -2.337  0.00  0.00     0.167 HD
ENDBRANCH   4   6
ENDBRANCH   3   4
ENDBRANCH   2   3
BRANCH   2   8
ATOM      8  C   UNL d   1      -1.907  -1.661  -1.749  0.00  0.00    -0.053 A 
ATOM      9  C   UNL d   1      -3.179  -2.097  -1.345  0.00  0.00     0.007 A 
ATOM     10  C   UNL d   1      -3.895  -3.020  -2.113  0.00  0.00     0.001 A 
ATOM     11  C   UNL d   1      -3.352  -3.522  -3.292  0.00  0.00     0.000 A 
ATOM     12  C   UNL d   1      -2.099  -3.088  -3.715  0.00  0.00     0.001 A 
ATOM     13  C   UNL d   1      -1.389  -2.157  -2.956  0.00  0.00     0.007 A 
ENDBRANCH   2   8
ENDBRANCH   1   2
BRANCH   1  14
ATOM     14  C   UNL d   1       1.191  -0.032   0.038  0.00  0.00     0.222 C 
ATOM     15  N   UNL d   1       2.547  -0.287  -0.094  0.00  0.00    -0.325 N 
ATOM     16  H   UNL d   1       2.807  -0.903  -0.856  0.00  0.00     0.169 HD
ATOM     17  O   UNL d   1       0.659   0.786   0.776  0.00  0.00    -0.273 OA
BRANCH  15  18
ATOM     18  C   UNL d   1       3.621   0.342   0.578  0.00  0.00     0.073 A 
ATOM     19  C   UNL d   1       3.516   1.146   1.720  0.00  0.00     0.144 A 
ATOM     20  C   UNL d   1       4.637   1.767   2.274  0.00  0.00     0.062 A 
ATOM     21  F   UNL d   1       2.362   1.310   2.375  0.00  0.00    -0.204 F 
ATOM     22  C   UNL d   1       5.889   1.572   1.703  0.00  0.00     0.009 A 
ATOM     23  C   UNL d   1       6.028   0.745   0.592  0.00  0.00     0.020 A 
ATOM     24  I   UNL d   1       7.554   2.504   2.521  0.00  0.00    -0.044 I 
ATOM     25  C   UNL d   1       4.900   0.130   0.037  0.00  0.00     0.034 A 
ENDBRANCH  15  18
ENDBRANCH   1  14
TORSDOF 7
