REMARK  4 active torsions:
REMARK  status: ('A' for Active; 'I' for Inactive)
REMARK    1  A    between atoms: C_5  and  N_1 
REMARK    2  A    between atoms: C_4  and  C_6 
REMARK    3  A    between atoms: N_7  and  C_5 
REMARK    4  A    between atoms: C_17  and  N_7 
ROOT
ATOM      1  C   UNL d   1      -2.397   6.899  -0.684  0.00  0.00     0.048 A 
ATOM      2  C   UNL d   1      -1.111   6.577  -0.231  0.00  0.00     0.018 A 
ATOM      3  C   UNL d   1      -3.288   5.853  -0.949  0.00  0.00     0.018 A 
ATOM      4  C   UNL d   1      -1.631   4.193  -0.258  0.00  0.00     0.029 A 
ATOM      5  C   UNL d   1      -2.909   4.525  -0.728  0.00  0.00     0.030 A 
ATOM      6  C   UNL d   1      -0.733   5.240  -0.029  0.00  0.00     0.030 A 
ENDROOT
BRANCH   4   7
ATOM      7  N   UNL d   1      -1.330   2.863  -0.041  0.00  0.00    -0.373 N 
ATOM      8  H   UNL d   1      -2.082   2.195  -0.131  0.00  0.00     0.161 HD
BRANCH   7   9
ATOM      9  C   UNL d   1       0.005   2.316  -0.126  0.00  0.00     0.258 C 
BRANCH   9  10
ATOM     10  N   UNL d   1      -0.119   0.953  -0.577  0.00  0.00    -0.271 N 
ATOM     11  C   UNL d   1      -0.173  -0.121   0.258  0.00  0.00     0.228 A 
ATOM     12  C   UNL d   1      -0.265  -1.375  -0.563  0.00  0.00     0.112 A 
ATOM     13  O   UNL d   1      -0.136  -0.109   1.477  0.00  0.00    -0.273 OA
ATOM     14  C   UNL d   1      -0.257  -0.890  -1.999  0.00  0.00     0.112 A 
ATOM     15  C   UNL d   1      -0.092   0.597  -1.891  0.00  0.00     0.228 A 
ATOM     16  O   UNL d   1       0.049   1.335  -2.854  0.00  0.00    -0.273 OA
ENDBRANCH   9  10
ENDBRANCH   7   9
ENDBRANCH   4   7
BRANCH   1  17
ATOM     17  C   UNL d   1      -2.838   8.329  -0.876  0.00  0.00     0.417 C 
ATOM     18  F   UNL d   1      -1.897   9.246  -0.515  0.00  0.00    -0.166 F 
ATOM     19  F   UNL d   1      -3.156   8.610  -2.171  0.00  0.00    -0.166 F 
ATOM     20  F   UNL d   1      -3.949   8.632  -0.148  0.00  0.00    -0.166 F 
ENDBRANCH   1  17
TORSDOF 4
