REMARK  6 active torsions:
REMARK  status: ('A' for Active; 'I' for Inactive)
REMARK    1  A    between atoms: C_5  and  S_1 
REMARK    2  A    between atoms: N_12  and  S_1 
REMARK    3  A    between atoms: S_2  and  C_4 
REMARK    4  A    between atoms: N_13  and  S_2 
REMARK       I    between atoms: C_3  and  N_10 
REMARK       I    between atoms: N_11  and  C_3 
REMARK    5  A    between atoms: N_10  and  C_20 
REMARK    6  A    between atoms: C_19  and  N_11 
ROOT
ATOM      1  C   UNL d   1      -1.555   0.787  -6.404  0.00  0.00     0.325 C 
ATOM      2  N   UNL d   1      -0.953   1.593  -5.447  0.00  0.00    -0.309 N 
ATOM      3  N   UNL d   1      -1.581  -0.544  -6.016  0.00  0.00    -0.309 N 
ATOM      4  O   UNL d   1      -2.007   1.192  -7.468  0.00  0.00    -0.247 OA
ATOM      5  H   UNL d   1      -0.653   1.145  -4.595  0.00  0.00     0.170 HD
ATOM      6  H   UNL d   1      -1.523  -0.737  -5.028  0.00  0.00     0.170 HD
ENDROOT
BRANCH   2   7
ATOM      7  C   UNL d   1      -0.772   2.995  -5.526  0.00  0.00     0.036 A 
ATOM      8  C   UNL d   1      -1.080   3.749  -6.665  0.00  0.00     0.031 A 
ATOM      9  C   UNL d   1      -0.999   5.143  -6.651  0.00  0.00     0.027 A 
ATOM     10  C   UNL d   1      -0.582   5.796  -5.493  0.00  0.00     0.074 A 
ATOM     11  C   UNL d   1      -0.200   5.063  -4.368  0.00  0.00     0.027 A 
ATOM     12  C   UNL d   1      -0.291   3.663  -4.391  0.00  0.00     0.031 A 
BRANCH  10  13
ATOM     13  S   UNL d   1      -0.659   7.566  -5.449  0.00  0.00     0.239 S 
ATOM     14  O   UNL d   1      -0.064   8.015  -4.210  0.00  0.00    -0.206 OA
ATOM     15  O   UNL d   1      -1.979   7.968  -5.869  0.00  0.00    -0.206 OA
BRANCH  13  16
ATOM     16  N   UNL d   1       0.435   8.024  -6.644  0.00  0.00    -0.225 NA
ATOM     17  H   UNL d   1       0.897   7.236  -7.096  0.00  0.00     0.136 HD
ATOM     18  H   UNL d   1       1.114   8.667  -6.233  0.00  0.00     0.136 HD
ENDBRANCH  13  16
ENDBRANCH  10  13
ENDBRANCH   2   7
BRANCH   3  19
ATOM     19  C   UNL d   1      -1.869  -1.641  -6.862  0.00  0.00     0.036 A 
ATOM     20  C   UNL d   1      -1.883  -1.540  -8.259  0.00  0.00     0.031 A 
ATOM     21  C   UNL d   1      -2.073  -2.668  -9.061  0.00  0.00     0.027 A 
ATOM     22  C   UNL d   1      -2.257  -3.914  -8.465  0.00  0.00     0.074 A 
ATOM     23  C   UNL d   1      -2.271  -4.033  -7.073  0.00  0.00     0.027 A 
ATOM     24  C   UNL d   1      -2.079  -2.896  -6.276  0.00  0.00     0.031 A 
BRANCH  22  25
ATOM     25  S   UNL d   1      -2.318  -5.358  -9.486  0.00  0.00     0.239 S 
ATOM     26  O   UNL d   1      -1.700  -5.070 -10.758  0.00  0.00    -0.206 OA
ATOM     27  O   UNL d   1      -1.949  -6.510  -8.691  0.00  0.00    -0.206 OA
BRANCH  25  28
ATOM     28  N   UNL d   1      -3.958  -5.521  -9.796  0.00  0.00    -0.225 NA
ATOM     29  H   UNL d   1      -4.129  -5.408 -10.796  0.00  0.00     0.136 HD
ATOM     30  H   UNL d   1      -4.288  -6.414  -9.426  0.00  0.00     0.136 HD
ENDBRANCH  25  28
ENDBRANCH  22  25
ENDBRANCH   3  19
TORSDOF 6
