REMARK  6 active torsions:
REMARK  status: ('A' for Active; 'I' for Inactive)
REMARK    1  A    between atoms: C_18  and  C_3 
REMARK    2  A    between atoms: C_19  and  C_6 
REMARK    3  A    between atoms: C_8  and  S_13 
REMARK    4  A    between atoms: C_12  and  O_15 
REMARK    5  A    between atoms: S_13  and  C_18 
REMARK    6  A    between atoms: O_15  and  C_19 
ROOT
ATOM      1  N   UNL d   1       1.360   0.164   0.279  0.00  0.00    -0.324 N 
ATOM      2  HN  UNL d   1       2.366   0.257   0.414  1.00  0.00     0.169 HD
ATOM      3  C   UNL d   1       0.417   1.151   0.104  0.00  0.00     0.113 A 
ATOM      4  N   UNL d   1      -0.843   0.703   0.006  0.00  0.00    -0.246 N 
ATOM      5  HN  UNL d   1      -1.700   1.246  -0.096  1.00  0.00     0.196 HD
ATOM      6  C   UNL d   1       0.634  -0.930   0.226  0.00  0.00     0.172 A 
ATOM      7  O   UNL d   1      -0.702  -0.683   0.079  0.00  0.00    -0.221 OA
ENDROOT
BRANCH   6   8
ATOM      8  C   UNL d   1       1.066  -2.345   0.141  0.00  0.00     0.262 C 
BRANCH   8   9
ATOM      9  O   UNL d   1       0.559  -3.037   1.283  0.00  0.00    -0.342 OA
BRANCH   9  10
ATOM     10  C   UNL d   1       0.824  -4.383   1.329  0.00  0.00     0.091 A 
ATOM     11  C   UNL d   1       0.971  -4.978   2.594  0.00  0.00     0.069 A 
ATOM     12  C   UNL d   1       1.198  -6.352   2.717  0.00  0.00     0.050 A 
ATOM     13 CL   UNL d   1       0.893  -4.037   4.043  0.00  0.00    -0.081 Cl
ATOM     14  C   UNL d   1       1.264  -7.140   1.573  0.00  0.00     0.035 A 
ATOM     15  C   UNL d   1       1.107  -6.569   0.313  0.00  0.00     0.026 A 
ATOM     16 CL   UNL d   1       1.529  -8.834   1.710  0.00  0.00    -0.084 Cl
ATOM     17  C   UNL d   1       0.883  -5.195   0.192  0.00  0.00     0.040 A 
ENDBRANCH   9  10
ENDBRANCH   8   9
ENDBRANCH   6   8
BRANCH   3  18
ATOM     18  C   UNL d   1       0.758   2.599   0.010  0.00  0.00     0.158 C 
BRANCH  18  19
ATOM     19  S   UNL d   1       2.313   2.859  -0.896  0.00  0.00    -0.115 SA
BRANCH  19  20
ATOM     20  C   UNL d   1       2.574   4.591  -0.824  0.00  0.00     0.041 A 
ATOM     21  S   UNL d   1       4.015   5.250  -1.487  0.00  0.00    -0.095 SA
ATOM     22  C   UNL d   1       3.552   6.846  -1.093  0.00  0.00     0.051 A 
ATOM     23  C   UNL d   1       2.330   6.883  -0.462  0.00  0.00     0.009 A 
ATOM     24  C   UNL d   1       1.766   5.580  -0.302  0.00  0.00     0.026 A 
ENDBRANCH  19  20
ENDBRANCH  18  19
ENDBRANCH   3  18
TORSDOF 6
