REMARK  7 active torsions:
REMARK  status: ('A' for Active; 'I' for Inactive)
REMARK    1  A    between atoms: C_7  and  C_1 
REMARK    2  A    between atoms: C_3  and  C_2 
REMARK    3  A    between atoms: N_13  and  C_6 
REMARK    4  A    between atoms: O_20  and  C_7 
REMARK       I    between atoms: C_8  and  N_12 
REMARK    5  A    between atoms: C_14  and  C_8 
REMARK    6  A    between atoms: N_12  and  N_13 
REMARK    7  A    between atoms: C_24  and  O_20 
ROOT
ATOM      1  C   UNL d   1      -0.154  -1.462   0.072  0.00  0.00     0.086 A 
ATOM      2  C   UNL d   1       1.049  -0.786   0.077  0.00  0.00     0.136 A 
ATOM      3  N   UNL d   1       1.075   0.587   0.152  0.00  0.00    -0.327 N 
ATOM      4  HN  UNL d   1       1.968   1.080   0.161  1.00  0.00     0.168 HD
ATOM      5  C   UNL d   1      -0.073   1.277   0.213  0.00  0.00     0.176 A 
ATOM      6  N   UNL d   1      -1.275   0.690   0.184  0.00  0.00    -0.340 N 
ATOM      7  HN  UNL d   1      -2.138   1.233   0.213  1.00  0.00     0.167 HD
ATOM      8  C   UNL d   1      -1.284  -0.664   0.113  0.00  0.00     0.110 A 
ENDROOT
BRANCH   5   9
ATOM      9  N   UNL d   1       0.046   2.663   0.405  0.00  0.00    -0.173 NA
ATOM     10  H   UNL d   1       0.978   2.940   0.079  0.00  0.00     0.156 HD
BRANCH   9  11
ATOM     11  N   UNL d   1      -0.979   3.457  -0.157  0.00  0.00    -0.284 N 
ATOM     12  C   UNL d   1      -0.560   4.654  -0.715  0.00  0.00     0.239 C 
ATOM     13  O   UNL d   1       0.641   4.880  -0.887  0.00  0.00    -0.271 OA
ATOM     14  H   UNL d   1      -1.905   3.310   0.233  0.00  0.00     0.184 HD
BRANCH  12  15
ATOM     15  C   UNL d   1      -1.646   5.707  -1.020  0.00  0.00     0.031 C 
ATOM     16  C   UNL d   1      -2.036   6.433   0.276  0.00  0.00     0.025 C 
ATOM     17  C   UNL d   1      -1.057   6.734  -2.007  0.00  0.00     0.025 C 
ATOM     18  C   UNL d   1      -2.897   5.087  -1.656  0.00  0.00     0.025 C 
ENDBRANCH  12  15
ENDBRANCH   9  11
ENDBRANCH   5   9
BRANCH   2  19
ATOM     19  C   UNL d   1       2.412  -1.448  -0.049  0.00  0.00     0.433 C 
ATOM     20  F   UNL d   1       2.429  -2.793  -0.226  0.00  0.00    -0.165 F 
ATOM     21  F   UNL d   1       3.103  -0.961  -1.123  0.00  0.00    -0.165 F 
ATOM     22  F   UNL d   1       3.206  -1.206   1.034  0.00  0.00    -0.165 F 
ENDBRANCH   2  19
BRANCH   1  23
ATOM     23  C   UNL d   1      -0.317  -2.922   0.016  0.00  0.00     0.296 C 
ATOM     24  O   UNL d   1       0.381  -3.733   0.601  0.00  0.00    -0.259 OA
BRANCH  23  25
ATOM     25  O   UNL d   1      -1.323  -3.184  -0.851  0.00  0.00    -0.318 OA
BRANCH  25  26
ATOM     26  C   UNL d   1      -1.425  -4.524  -1.358  0.00  0.00     0.174 C 
ATOM     27  C   UNL d   1      -0.754  -4.529  -2.719  0.00  0.00     0.034 C 
ENDBRANCH  25  26
ENDBRANCH  23  25
ENDBRANCH   1  23
TORSDOF 7
