REMARK  5 active torsions:
REMARK  status: ('A' for Active; 'I' for Inactive)
REMARK    1  A    between atoms: N_16  and  C_7 
REMARK    2  A    between atoms: C_10  and  C_8 
REMARK    3  A    between atoms: S_19  and  C_9 
REMARK    4  A    between atoms: C_11  and  C_10 
REMARK    5  A    between atoms: C_13  and  N_16 
ROOT
ATOM      1  C   UNL d   1       3.943   3.578  -0.244  0.00  0.00     0.111 C 
ATOM      2  C   UNL d   1       3.284   2.411  -0.146  0.00  0.00     0.133 C 
ATOM      3  C   UNL d   1       5.367   3.608  -0.308  0.00  0.00     0.105 C 
ATOM      4  N   UNL d   1       6.525   3.599  -0.308  0.00  0.00    -0.191 NA
ENDROOT
BRANCH   1   5
ATOM      5  C   UNL d   1       3.130   4.845  -0.254  0.00  0.00     0.205 C 
ATOM      6  O   UNL d   1       1.954   4.829  -0.605  0.00  0.00    -0.286 OA
BRANCH   5   7
ATOM      7  C   UNL d   1       3.757   6.115   0.220  0.00  0.00     0.037 A 
ATOM      8  C   UNL d   1       3.476   7.366  -0.354  0.00  0.00     0.048 A 
ATOM      9 CL   UNL d   1       2.319   7.607  -1.615  0.00  0.00    -0.083 Cl
ATOM     10  C   UNL d   1       4.157   8.510   0.089  0.00  0.00     0.025 A 
ATOM     11  C   UNL d   1       5.092   8.424   1.121  0.00  0.00     0.002 A 
ATOM     12  C   UNL d   1       5.321   7.204   1.745  0.00  0.00     0.001 A 
ATOM     13  C   UNL d   1       4.644   6.064   1.312  0.00  0.00     0.017 A 
ENDBRANCH   5   7
ENDBRANCH   1   5
BRANCH   2  14
ATOM     14  N   UNL d   1       3.798   1.135  -0.066  0.00  0.00    -0.200 N 
ATOM     15  H   UNL d   1       4.798   0.982  -0.084  0.00  0.00     0.183 HD
BRANCH  14  16
ATOM     16  C   UNL d   1       3.096  -0.065   0.036  0.00  0.00     0.685 A 
ATOM     17  N   UNL d   1       3.838  -1.166   0.093  0.00  0.00    -0.181 N 
ATOM     18  C   UNL d   1       3.167  -2.317   0.184  0.00  0.00     0.095 A 
ATOM     19  HN  UNL d   1       4.857  -1.134   0.070  1.00  0.00     0.185 HD
ATOM     20  N   UNL d   1       1.841  -2.419   0.217  0.00  0.00    -0.326 N 
ATOM     21  C   UNL d   1       3.977  -3.576   0.240  0.00  0.00     0.089 C 
ATOM     22  C   UNL d   1       1.194  -1.257   0.157  0.00  0.00     0.160 A 
ATOM     23  HN  UNL d   1       1.360  -3.315   0.283  1.00  0.00     0.169 HD
ATOM     24  N   UNL d   1       1.771  -0.064   0.070  0.00  0.00    -0.170 N 
ATOM     25  HN  UNL d   1       1.229   0.799   0.032  1.00  0.00     0.186 HD
BRANCH  22  26
ATOM     26  S   UNL d   1      -0.585  -1.235   0.194  0.00  0.00    -0.098 SA
ATOM     27  C   UNL d   1      -0.955  -3.000   0.309  0.00  0.00     0.099 C 
ENDBRANCH  22  26
ENDBRANCH  14  16
ENDBRANCH   2  14
TORSDOF 5
