REMARK  7 active torsions:
REMARK  status: ('A' for Active; 'I' for Inactive)
REMARK    1  A    between atoms: C_8  and  N_1 
REMARK    2  A    between atoms: C_10  and  C_4 
REMARK    3  A    between atoms: C_11  and  C_6 
REMARK    4  A    between atoms: C_9  and  C_8 
REMARK    5  A    between atoms: O_20  and  C_9 
REMARK    6  A    between atoms: C_17  and  C_10 
REMARK    7  A    between atoms: C_22  and  O_20 
ROOT
ATOM      1  N   UNL d   1      -0.760   1.107  -0.090  0.00  0.00    -0.247 N 
ATOM      2  N   UNL d   1      -1.455  -0.077  -0.050  0.00  0.00    -0.295 N 
ATOM      3  HN  UNL d   1      -2.473  -0.095  -0.112  1.00  0.00     0.187 HD
ATOM      4  C   UNL d   1       1.375  -0.070   0.037  0.00  0.00     0.018 A 
ATOM      5  C   UNL d   1       0.626   1.211  -0.012  0.00  0.00     0.269 A 
ATOM      6  C   UNL d   1      -0.771  -1.172   0.069  0.00  0.00     0.059 A 
ATOM      7  C   UNL d   1       0.703  -1.225   0.132  0.00  0.00     0.045 A 
ATOM      8  O   UNL d   1       1.228   2.285   0.017  0.00  0.00    -0.266 OA
ENDROOT
BRANCH   4   9
ATOM      9  C   UNL d   1       2.878  -0.023  -0.074  0.00  0.00     0.083 C 
BRANCH   9  10
ATOM     10  C   UNL d   1       3.310  -0.147  -1.520  0.00  0.00    -0.054 A 
ATOM     11  C   UNL d   1       3.464   1.001  -2.308  0.00  0.00     0.007 A 
ATOM     12  C   UNL d   1       3.698   0.889  -3.679  0.00  0.00     0.001 A 
ATOM     13  C   UNL d   1       3.782  -0.368  -4.274  0.00  0.00     0.000 A 
ATOM     14  C   UNL d   1       3.664  -1.517  -3.494  0.00  0.00     0.001 A 
ATOM     15  C   UNL d   1       3.435  -1.409  -2.122  0.00  0.00     0.007 A 
ENDBRANCH   9  10
ENDBRANCH   4   9
BRANCH   1  16
ATOM     16  C   UNL d   1      -1.569   2.321  -0.102  0.00  0.00     0.263 C 
BRANCH  16  17
ATOM     17  C   UNL d   1      -1.882   2.867   1.280  0.00  0.00     0.278 C 
ATOM     18  O   UNL d   1      -2.538   3.891   1.457  0.00  0.00    -0.263 OA
BRANCH  17  19
ATOM     19  O   UNL d   1      -1.299   2.146   2.278  0.00  0.00    -0.321 OA
BRANCH  19  20
ATOM     20  C   UNL d   1      -1.155   2.823   3.530  0.00  0.00     0.174 C 
ATOM     21  C   UNL d   1       0.163   3.575   3.494  0.00  0.00     0.034 C 
ENDBRANCH  19  20
ENDBRANCH  17  19
ENDBRANCH  16  17
ENDBRANCH   1  16
BRANCH   6  22
ATOM     22  C   UNL d   1      -1.497  -2.471   0.096  0.00  0.00    -0.008 A 
ATOM     23  C   UNL d   1      -2.665  -2.600  -0.669  0.00  0.00     0.017 A 
ATOM     24  C   UNL d   1      -3.377  -3.798  -0.666  0.00  0.00     0.043 A 
ATOM     25  C   UNL d   1      -2.925  -4.860   0.110  0.00  0.00     0.116 A 
ATOM     26  C   UNL d   1      -1.773  -4.745   0.880  0.00  0.00     0.043 A 
ATOM     27  F   UNL d   1      -3.610  -6.010   0.119  0.00  0.00    -0.206 F 
ATOM     28  C   UNL d   1      -1.056  -3.547   0.883  0.00  0.00     0.017 A 
ENDBRANCH   6  22
TORSDOF 7
