REMARK  4 active torsions:
REMARK  status: ('A' for Active; 'I' for Inactive)
REMARK    1  A    between atoms: C_6  and  S_1 
REMARK    2  A    between atoms: N_7  and  S_1 
REMARK    3  A    between atoms: N_10  and  C_2 
REMARK    4  A    between atoms: C_16  and  N_7 
REMARK       I    between atoms: C_15  and  N_10 
ROOT
ATOM      1  C   UNL d   1      -0.561  -1.552  -7.159  0.00  0.00     0.112 A 
ATOM      2  C   UNL d   1       0.817  -1.089  -7.525  0.00  0.00     0.315 A 
ATOM      3  O   UNL d   1       1.748  -0.948  -6.504  0.00  0.00    -0.273 OA
ATOM      4  C   UNL d   1      -0.892  -1.707  -5.872  0.00  0.00     0.050 A 
ATOM      5  C   UNL d   1       0.068  -1.434  -4.817  0.00  0.00     0.002 A 
ATOM      6  C   UNL d   1       1.370  -1.085  -5.158  0.00  0.00     0.090 A 
ATOM      7  C   UNL d   1       0.654  -1.205  -2.487  0.00  0.00     0.043 A 
ATOM      8  C   UNL d   1      -0.290  -1.507  -3.469  0.00  0.00     0.044 A 
ATOM      9  O   UNL d   1       1.100  -0.867  -8.702  0.00  0.00    -0.257 OA
ATOM     10  C   UNL d   1       2.333  -0.829  -4.184  0.00  0.00     0.040 A 
ATOM     11  C   UNL d   1       1.965  -0.879  -2.839  0.00  0.00     0.033 A 
ENDROOT
BRANCH   7  12
ATOM     12  N   UNL d   1       0.275  -1.205  -1.125  0.00  0.00    -0.281 N 
ATOM     13  H   UNL d   1      -0.031  -2.067  -0.677  0.00  0.00     0.179 HD
BRANCH  12  14
ATOM     14  S   UNL d   1      -0.205   0.221  -0.379  0.00  0.00     0.263 S 
ATOM     15  O   UNL d   1      -0.666  -0.144   0.944  0.00  0.00    -0.200 OA
ATOM     16  O   UNL d   1       0.820   1.223  -0.567  0.00  0.00    -0.200 OA
BRANCH  14  17
ATOM     17  C   UNL d   1      -1.638   0.729  -1.311  0.00  0.00     0.081 A 
ATOM     18  C   UNL d   1      -2.902   0.248  -0.951  0.00  0.00     0.050 A 
ATOM     19  C   UNL d   1      -4.031   0.676  -1.659  0.00  0.00     0.057 A 
ATOM     20 CL   UNL d   1      -5.566   0.043  -1.178  0.00  0.00    -0.083 Cl
ATOM     21  C   UNL d   1      -3.895   1.587  -2.714  0.00  0.00     0.055 A 
ATOM     22  C   UNL d   1      -2.628   2.079  -3.055  0.00  0.00     0.027 A 
ATOM     23 CL   UNL d   1      -5.245   2.153  -3.630  0.00  0.00    -0.083 Cl
ATOM     24  C   UNL d   1      -1.499   1.657  -2.348  0.00  0.00     0.027 A 
ENDBRANCH  14  17
ENDBRANCH  12  14
ENDBRANCH   7  12
BRANCH   1  25
ATOM     25  N   UNL d   1      -1.409  -1.783  -8.233  0.00  0.00    -0.322 N 
ATOM     26  C   UNL d   1      -2.697  -2.278  -8.212  0.00  0.00     0.218 C 
ATOM     27  O   UNL d   1      -3.318  -2.618  -7.209  0.00  0.00    -0.274 OA
ATOM     28  C   UNL d   1      -3.318  -2.409  -9.577  0.00  0.00     0.117 C 
ATOM     29  H   UNL d   1      -0.988  -1.580  -9.139  0.00  0.00     0.169 HD
ENDBRANCH   1  25
TORSDOF 4
