REMARK  7 active torsions:
REMARK  status: ('A' for Active; 'I' for Inactive)
REMARK    1  A    between atoms: O_5  and  S_1 
REMARK    2  A    between atoms: C_6  and  S_1 
REMARK    3  A    between atoms: N_2  and  C_3 
REMARK    4  A    between atoms: C_4  and  O_7 
REMARK    5  A    between atoms: C_19  and  O_5 
REMARK    6  A    between atoms: O_7  and  C_20 
REMARK    7  A    between atoms: C_13  and  C_14 
ROOT
ATOM      1  C   UNL d   1       0.545  -1.653   0.313  0.00  0.00     0.087 A 
ATOM      2  C   UNL d   1       1.376  -2.693  -0.122  0.00  0.00     0.028 A 
ATOM      3  C   UNL d   1      -0.680  -1.935   0.925  0.00  0.00     0.028 A 
ATOM      4  C   UNL d   1      -0.295  -4.303   0.576  0.00  0.00     0.076 A 
ATOM      5  C   UNL d   1      -1.093  -3.260   1.055  0.00  0.00     0.039 A 
ATOM      6  C   UNL d   1       0.960  -4.023   0.024  0.00  0.00     0.039 A 
ENDROOT
BRANCH   1   7
ATOM      7  S   UNL d   1       1.110   0.041   0.235  0.00  0.00     0.303 S 
ATOM      8  O   UNL d   1       0.427   0.737   1.312  0.00  0.00    -0.193 OA
ATOM      9  O   UNL d   1       2.561  -0.008   0.192  0.00  0.00    -0.193 OA
BRANCH   7  10
ATOM     10  O   UNL d   1       0.552   0.583  -1.203  0.00  0.00    -0.229 OA
BRANCH  10  11
ATOM     11  C   UNL d   1       0.825   1.857  -1.635  0.00  0.00     0.089 A 
ATOM     12  C   UNL d   1       0.811   2.072  -3.013  0.00  0.00     0.039 A 
ATOM     13  C   UNL d   1       1.076   3.347  -3.540  0.00  0.00     0.011 A 
ATOM     14  C   UNL d   1       1.351   4.450  -2.705  0.00  0.00    -0.050 A 
ATOM     15  C   UNL d   1       1.336   4.212  -1.322  0.00  0.00     0.011 A 
ATOM     16  C   UNL d   1       1.075   2.940  -0.795  0.00  0.00     0.039 A 
BRANCH  14  17
ATOM     17  C   UNL d   1       1.652   5.836  -3.299  0.00  0.00    -0.024 C 
ATOM     18  C   UNL d   1       1.897   6.929  -2.231  0.00  0.00     0.019 C 
ATOM     19  C   UNL d   1       2.923   5.762  -4.171  0.00  0.00     0.019 C 
ATOM     20  C   UNL d   1       0.468   6.311  -4.167  0.00  0.00     0.019 C 
ENDBRANCH  14  17
ENDBRANCH  10  11
ENDBRANCH   7  10
ENDBRANCH   1   7
BRANCH   4  21
ATOM     21  O   UNL d   1      -0.831  -5.560   0.736  0.00  0.00    -0.307 OA
BRANCH  21  22
ATOM     22  C   UNL d   1      -0.539  -6.572  -0.146  0.00  0.00     0.130 A 
ATOM     23  C   UNL d   1      -0.268  -7.840   0.392  0.00  0.00     0.138 A 
ATOM     24  C   UNL d   1       0.028  -8.953  -0.410  0.00  0.00     0.039 A 
ATOM     25  C   UNL d   1       0.036  -8.805  -1.792  0.00  0.00     0.004 A 
ATOM     26  C   UNL d   1      -0.285  -7.569  -2.355  0.00  0.00     0.027 A 
ATOM     27  C   UNL d   1      -0.598  -6.466  -1.544  0.00  0.00     0.070 A 
ATOM     28 CL   UNL d   1      -1.137  -5.043  -2.369  0.00  0.00    -0.081 Cl
BRANCH  23  29
ATOM     29  N   UNL d   1      -0.333  -8.054   1.827  0.00  0.00    -0.113 N 
ATOM     30  O   UNL d   1      -1.399  -7.787   2.397  0.00  0.00    -0.532 OA
ATOM     31  O   UNL d   1       0.667  -8.550   2.363  0.00  0.00    -0.532 OA
ENDBRANCH  23  29
ENDBRANCH  21  22
ENDBRANCH   4  21
TORSDOF 7
