REMARK  15 active torsions:
REMARK  status: ('A' for Active; 'I' for Inactive)
REMARK    1  A    between atoms: C_1  and  O_7 
REMARK    2  A    between atoms: C_1  and  C_3 
REMARK    3  A    between atoms: C_1  and  C_2 
REMARK    4  A    between atoms: C_2  and  O_8 
REMARK    5  A    between atoms: C_2  and  C_4 
REMARK       I    between atoms: N_6  and  C_3 
REMARK    6  A    between atoms: C_4  and  O_9 
REMARK    7  A    between atoms: C_5  and  C_4 
REMARK    8  A    between atoms: C_17  and  C_5 
REMARK    9  A    between atoms: C_5  and  O_10 
REMARK   10  A    between atoms: C_11  and  O_7 
REMARK   11  A    between atoms: C_12  and  O_8 
REMARK   12  A    between atoms: C_13  and  O_9 
REMARK   13  A    between atoms: C_14  and  O_10 
REMARK   14  A    between atoms: C_15  and  O_18 
REMARK   15  A    between atoms: O_18  and  C_17 
ROOT
ATOM      1  C   UNL d   1      -3.219  -1.015  -1.707  0.00  0.00     0.202 C 
ENDROOT
BRANCH   1   2
ATOM      2  C   UNL d   1      -4.274  -0.168  -0.920  0.00  0.00     0.255 C 
BRANCH   2   3
ATOM      3  O   UNL d   1      -3.932   1.242  -0.953  0.00  0.00    -0.304 OA
BRANCH   3   4
ATOM      4  C   UNL d   1      -3.764   1.852  -2.158  0.00  0.00     0.255 C 
ATOM      5  O   UNL d   1      -3.988   1.350  -3.249  0.00  0.00    -0.266 OA
ATOM      6  C   UNL d   1      -3.160   3.207  -1.978  0.00  0.00     0.126 C 
ENDBRANCH   3   4
ENDBRANCH   2   3
BRANCH   2   7
ATOM      7  C   UNL d   1      -5.730  -0.359  -1.422  0.00  0.00     0.252 C 
ATOM      8  N   UNL d   1      -6.761   0.351  -0.796  0.00  0.00    -0.346 N 
ATOM      9  C   UNL d   1      -6.624   1.274   0.344  0.00  0.00     0.152 C 
ATOM     10  C   UNL d   1      -8.036   0.484  -1.510  0.00  0.00     0.152 C 
ATOM     11  C   UNL d   1      -7.910   1.354   1.197  0.00  0.00     0.187 C 
ATOM     12  O   UNL d   1      -9.093   1.530   0.403  0.00  0.00    -0.388 OA
ATOM     13  C   UNL d   1      -9.220   0.462  -0.546  0.00  0.00     0.187 C 
ATOM     14  O   UNL d   1      -5.981  -1.145  -2.342  0.00  0.00    -0.270 OA
ENDBRANCH   2   7
ENDBRANCH   1   2
BRANCH   1  15
ATOM     15  O   UNL d   1      -3.491  -2.439  -1.817  0.00  0.00    -0.310 OA
BRANCH  15  16
ATOM     16  C   UNL d   1      -3.731  -3.238  -0.761  0.00  0.00     0.255 C 
ATOM     17  O   UNL d   1      -3.735  -2.874   0.409  0.00  0.00    -0.266 OA
ATOM     18  C   UNL d   1      -3.987  -4.643  -1.226  0.00  0.00     0.126 C 
ENDBRANCH  15  16
ENDBRANCH   1  15
BRANCH   1  19
ATOM     19  C   UNL d   1      -1.714  -0.743  -1.365  0.00  0.00     0.196 C 
BRANCH  19  20
ATOM     20  O   UNL d   1      -1.443  -1.075   0.028  0.00  0.00    -0.311 OA
BRANCH  20  21
ATOM     21  C   UNL d   1      -1.478  -0.064   0.937  0.00  0.00     0.255 C 
ATOM     22  O   UNL d   1      -1.801   1.087   0.705  0.00  0.00    -0.266 OA
ATOM     23  C   UNL d   1      -1.026  -0.529   2.289  0.00  0.00     0.126 C 
ENDBRANCH  20  21
ENDBRANCH  19  20
BRANCH  19  24
ATOM     24  C   UNL d   1      -0.708  -1.592  -2.214  0.00  0.00     0.188 C 
BRANCH  24  25
ATOM     25  C   UNL d   1      -0.713  -1.380  -3.747  0.00  0.00     0.213 C 
BRANCH  25  26
ATOM     26  O   UNL d   1      -1.993  -1.518  -4.377  0.00  0.00    -0.319 OA
BRANCH  26  27
ATOM     27  C   UNL d   1      -2.480  -2.778  -4.520  0.00  0.00     0.254 C 
ATOM     28  O   UNL d   1      -1.878  -3.800  -4.214  0.00  0.00    -0.266 OA
ATOM     29  C   UNL d   1      -3.875  -2.749  -5.073  0.00  0.00     0.126 C 
ENDBRANCH  26  27
ENDBRANCH  25  26
ENDBRANCH  24  25
BRANCH  24  30
ATOM     30  O   UNL d   1       0.671  -1.490  -1.714  0.00  0.00    -0.311 OA
BRANCH  30  31
ATOM     31  C   UNL d   1       1.342  -0.313  -1.771  0.00  0.00     0.255 C 
ATOM     32  O   UNL d   1       0.875   0.747  -2.170  0.00  0.00    -0.266 OA
ATOM     33  C   UNL d   1       2.763  -0.483  -1.312  0.00  0.00     0.126 C 
ENDBRANCH  30  31
ENDBRANCH  24  30
ENDBRANCH  19  24
ENDBRANCH   1  19
TORSDOF 15
