REMARK  2 active torsions:
REMARK  status: ('A' for Active; 'I' for Inactive)
REMARK    1  A    between atoms: N_8  and  C_3 
REMARK    2  A    between atoms: O_9  and  C_7 
ROOT
ATOM      1  N   UNL d   1      -0.955   1.306   0.044  0.00  0.00    -0.334 N 
ATOM      2  HN  UNL d   1      -1.177   2.302   0.034  1.00  0.00     0.168 HD
ATOM      3  C   UNL d   1      -1.843   0.349   0.084  0.00  0.00     0.143 A 
ATOM      4  C   UNL d   1       0.336   0.783   0.018  0.00  0.00     0.085 A 
ATOM      5  S   UNL d   1      -1.220  -1.241   0.042  0.00  0.00    -0.052 SA
ATOM      6  C   UNL d   1       0.385  -0.616   0.014  0.00  0.00     0.038 A 
ATOM      7  C   UNL d   1       1.567   1.496  -0.002  0.00  0.00     0.096 A 
ATOM      8  C   UNL d   1       1.596  -1.329  -0.006  0.00  0.00     0.021 A 
ATOM      9  C   UNL d   1       2.790  -0.609  -0.017  0.00  0.00     0.004 A 
ATOM     10  C   UNL d   1       2.776   0.781  -0.015  0.00  0.00     0.039 A 
ENDROOT
BRANCH   3  11
ATOM     11  N   UNL d   1      -3.163   0.584   0.141  0.00  0.00    -0.380 N 
ATOM     12  H   UNL d   1      -3.462   1.522  -0.097  0.00  0.00     0.158 HD
ATOM     13  H   UNL d   1      -3.800  -0.151  -0.143  0.00  0.00     0.158 HD
ENDBRANCH   3  11
BRANCH   7  14
ATOM     14  O   UNL d   1       1.746   2.877  -0.004  0.00  0.00    -0.354 OA
ATOM     15  C   UNL d   1       0.558   3.658   0.005  0.00  0.00     0.210 C 
ENDBRANCH   7  14
TORSDOF 2
