REMARK  3 active torsions:
REMARK  status: ('A' for Active; 'I' for Inactive)
REMARK       I    between atoms: C_5  and  N_6 
REMARK    1  A    between atoms: N_6  and  C_9 
REMARK    2  A    between atoms: C_10  and  C_7 
REMARK    3  A    between atoms: C_11  and  C_10 
ROOT
ATOM      1  N   UNL d   1       3.137  -0.613  -1.825  0.00  0.00    -0.196 NA
ATOM      2  N   UNL d   1       0.005  -1.786  -4.617  0.00  0.00    -0.196 NA
ATOM      3  C   UNL d   1       2.225  -1.301  -2.022  0.00  0.00     0.079 C 
ATOM      4  C   UNL d   1       0.471  -1.954  -3.567  0.00  0.00     0.079 C 
ATOM      5  C   UNL d   1       1.065  -2.185  -2.241  0.00  0.00     0.203 C 
ENDROOT
BRANCH   5   6
ATOM      6  C   UNL d   1       0.038  -1.956  -1.119  0.00  0.00     0.072 C 
BRANCH   6   7
ATOM      7  C   UNL d   1      -1.190  -2.838  -1.183  0.00  0.00    -0.056 A 
ATOM      8  C   UNL d   1      -1.121  -4.229  -1.040  0.00  0.00     0.009 A 
ATOM      9  C   UNL d   1      -2.289  -5.007  -1.080  0.00  0.00     0.030 A 
ATOM     10  C   UNL d   1      -3.546  -4.410  -1.251  0.00  0.00     0.034 A 
ATOM     11  C   UNL d   1      -3.605  -3.027  -1.402  0.00  0.00     0.030 A 
ATOM     12  C   UNL d   1      -2.444  -2.250  -1.368  0.00  0.00     0.009 A 
BRANCH  10  13
ATOM     13  N   UNL d   1      -4.688  -5.244  -1.247  0.00  0.00    -0.328 N 
ATOM     14  C   UNL d   1      -6.008  -4.839  -1.360  0.00  0.00     0.218 C 
ATOM     15  O   UNL d   1      -6.417  -3.691  -1.500  0.00  0.00    -0.274 OA
ATOM     16  C   UNL d   1      -6.999  -5.974  -1.287  0.00  0.00     0.117 C 
ATOM     17  H   UNL d   1      -4.516  -6.234  -1.129  0.00  0.00     0.169 HD
ENDBRANCH  10  13
ENDBRANCH   6   7
ENDBRANCH   5   6
TORSDOF 3
