REMARK  6 active torsions:
REMARK  status: ('A' for Active; 'I' for Inactive)
REMARK    1  A    between atoms: C_2  and  S_1 
REMARK    2  A    between atoms: N_3  and  S_1 
REMARK    3  A    between atoms: C_4  and  N_3 
REMARK    4  A    between atoms: C_13  and  C_4 
REMARK    5  A    between atoms: S_12  and  C_13 
REMARK    6  A    between atoms: C_16  and  S_12 
ROOT
ATOM      1  N   UNL d   1       0.425   1.568   0.053  0.00  0.00    -0.269 N 
ATOM      2  H   UNL d   1      -0.359   1.756  -0.573  0.00  0.00     0.180 HD
ENDROOT
BRANCH   1   3
ATOM      3  S   UNL d   1       0.940  -0.007  -0.034  0.00  0.00     0.267 S 
ATOM      4  O   UNL d   1       0.433  -0.566  -1.265  0.00  0.00    -0.200 OA
ATOM      5  O   UNL d   1       2.355  -0.016   0.277  0.00  0.00    -0.200 OA
BRANCH   3   6
ATOM      6  C   UNL d   1       0.104  -0.785   1.307  0.00  0.00     0.118 A 
ATOM      7  C   UNL d   1      -1.286  -0.856   1.291  0.00  0.00     0.142 A 
ATOM      8  C   UNL d   1      -1.970  -1.495   2.319  0.00  0.00     0.086 A 
ATOM      9  F   UNL d   1      -1.992  -0.298   0.298  0.00  0.00    -0.204 F 
ATOM     10  C   UNL d   1      -1.247  -2.062   3.362  0.00  0.00     0.119 A 
ATOM     11  C   UNL d   1       0.144  -2.003   3.391  0.00  0.00     0.044 A 
ATOM     12  F   UNL d   1      -1.899  -2.677   4.357  0.00  0.00    -0.206 F 
ATOM     13  C   UNL d   1       0.829  -1.364   2.356  0.00  0.00     0.031 A 
ENDBRANCH   3   6
ENDBRANCH   1   3
BRANCH   1  14
ATOM     14  C   UNL d   1       0.915   2.624   0.837  0.00  0.00     0.094 C 
ATOM     15  N   UNL d   1       1.936   2.496   1.608  0.00  0.00    -0.388 N 
ATOM     16  H   UNL d   1       2.338   1.555   1.511  0.00  0.00     0.157 HD
ATOM     17  HN  UNL d   1       2.295   3.223   2.227  1.00  0.00     0.157 HD
BRANCH  14  18
ATOM     18  C   UNL d   1       0.253   3.986   0.677  0.00  0.00     0.156 C 
BRANCH  18  19
ATOM     19  S   UNL d   1      -1.540   3.816   0.390  0.00  0.00    -0.122 SA
BRANCH  19  20
ATOM     20  C   UNL d   1      -2.089   5.497   0.120  0.00  0.00     0.001 A 
ATOM     21  C   UNL d   1      -1.269   6.558  -0.282  0.00  0.00     0.020 A 
ATOM     22  C   UNL d   1      -1.813   7.826  -0.521  0.00  0.00     0.025 A 
ATOM     23  C   UNL d   1      -3.180   8.043  -0.361  0.00  0.00     0.034 A 
ATOM     24  C   UNL d   1      -4.008   7.001   0.040  0.00  0.00     0.025 A 
ATOM     25 CL   UNL d   1      -3.846   9.597  -0.673  0.00  0.00    -0.084 Cl
ATOM     26  C   UNL d   1      -3.463   5.735   0.275  0.00  0.00     0.020 A 
ENDBRANCH  19  20
ENDBRANCH  18  19
ENDBRANCH  14  18
ENDBRANCH   1  14
TORSDOF 6
