REMARK  9 active torsions:
REMARK  status: ('A' for Active; 'I' for Inactive)
REMARK    1  A    between atoms: N_4  and  C_1 
REMARK    2  A    between atoms: N_8  and  C_1 
REMARK       I    between atoms: C_2  and  N_9 
REMARK    3  A    between atoms: O_5  and  C_2 
REMARK    4  A    between atoms: C_10  and  N_4 
REMARK    5  A    between atoms: C_7  and  O_5 
REMARK    6  A    between atoms: C_13  and  N_8 
REMARK    7  A    between atoms: N_9  and  C_12 
REMARK    8  A    between atoms: C_11  and  C_10 
REMARK    9  A    between atoms: C_12  and  C_13 
ROOT
ATOM      1  N   UNL d   1       2.082   0.187  -0.162  0.00  0.00    -0.366 N 
ATOM      2  H   UNL d   1       2.084  -0.814  -0.289  0.00  0.00     0.161 HD
ENDROOT
BRANCH   1   3
ATOM      3  C   UNL d   1       1.766   0.652   1.100  0.00  0.00     0.167 C 
ATOM      4  S   UNL d   1       1.675   2.266   1.521  0.00  0.00    -0.041 SA
BRANCH   3   5
ATOM      5  N   UNL d   1       1.570  -0.401   1.965  0.00  0.00    -0.363 N 
ATOM      6  H   UNL d   1       1.561  -1.331   1.577  0.00  0.00     0.162 HD
BRANCH   5   7
ATOM      7  C   UNL d   1       1.595  -0.352   3.420  0.00  0.00     0.160 C 
BRANCH   7   8
ATOM      8  C   UNL d   1       2.692  -1.248   3.940  0.00  0.00    -0.041 A 
ATOM      9  C   UNL d   1       4.017  -0.786   3.995  0.00  0.00     0.009 A 
ATOM     10  C   UNL d   1       5.037  -1.614   4.467  0.00  0.00     0.001 A 
ATOM     11  C   UNL d   1       4.747  -2.914   4.878  0.00  0.00     0.000 A 
ATOM     12  C   UNL d   1       3.438  -3.390   4.809  0.00  0.00     0.001 A 
ATOM     13  C   UNL d   1       2.416  -2.563   4.338  0.00  0.00     0.009 A 
ENDBRANCH   7   8
ENDBRANCH   5   7
ENDBRANCH   3   5
ENDBRANCH   1   3
BRANCH   1  14
ATOM     14  C   UNL d   1       2.850   0.913  -1.177  0.00  0.00     0.141 C 
BRANCH  14  15
ATOM     15  C   UNL d   1       4.363   0.734  -0.970  0.00  0.00     0.144 C 
BRANCH  15  16
ATOM     16  N   UNL d   1       4.784  -0.657  -0.907  0.00  0.00    -0.335 N 
ATOM     17  C   UNL d   1       4.941  -1.554  -1.922  0.00  0.00     0.361 C 
ATOM     18  O   UNL d   1       5.282  -2.696  -1.679  0.00  0.00    -0.238 OA
ATOM     19  H   UNL d   1       4.984  -1.050   0.002  0.00  0.00     0.164 HD
BRANCH  17  20
ATOM     20  O   UNL d   1       4.653  -1.055  -3.151  0.00  0.00    -0.294 OA
BRANCH  20  21
ATOM     21  C   UNL d   1       4.646  -1.964  -4.296  0.00  0.00     0.061 C 
ATOM     22  C   UNL d   1       3.666  -3.129  -4.070  0.00  0.00     0.046 C 
ATOM     23  C   UNL d   1       4.158  -1.125  -5.491  0.00  0.00     0.046 C 
ATOM     24  C   UNL d   1       6.056  -2.482  -4.617  0.00  0.00     0.046 C 
ENDBRANCH  20  21
ENDBRANCH  17  20
ENDBRANCH  15  16
ENDBRANCH  14  15
ENDBRANCH   1  14
TORSDOF 9
