REMARK  4 active torsions:
REMARK  status: ('A' for Active; 'I' for Inactive)
REMARK    1  A    between atoms: N_2  and  C_1 
REMARK    2  A    between atoms: N_6  and  C_1 
REMARK    3  A    between atoms: C_10  and  N_2 
REMARK    4  A    between atoms: C_4  and  C_10 
ROOT
ATOM      1  N   UNL d   1       0.477   0.674  -1.317  0.00  0.00    -0.362 N 
ATOM      2  H   UNL d   1      -0.534   0.675  -1.240  0.00  0.00     0.162 HD
ENDROOT
BRANCH   1   3
ATOM      3  C   UNL d   1       1.038   0.079  -0.243  0.00  0.00     0.169 C 
ATOM      4  S   UNL d   1      -0.137  -0.511   0.821  0.00  0.00    -0.041 SA
BRANCH   3   5
ATOM      5  N   UNL d   1       2.400  -0.027  -0.054  0.00  0.00    -0.367 N 
ATOM      6  C   UNL d   1       3.471   0.479  -0.909  0.00  0.00     0.151 C 
ATOM      7  C   UNL d   1       2.961  -0.657   1.152  0.00  0.00     0.151 C 
ENDBRANCH   3   5
ENDBRANCH   1   3
BRANCH   1   8
ATOM      8  C   UNL d   1       0.984   1.327  -2.505  0.00  0.00     0.168 C 
BRANCH   8   9
ATOM      9  C   UNL d   1      -0.149   1.756  -3.385  0.00  0.00     0.000 A 
ATOM     10  S   UNL d   1      -0.396   3.421  -3.716  0.00  0.00    -0.105 SA
ATOM     11  C   UNL d   1      -1.683   3.084  -4.789  0.00  0.00     0.050 A 
ATOM     12  C   UNL d   1      -1.942   1.736  -4.879  0.00  0.00     0.008 A 
ATOM     13  C   UNL d   1      -1.061   0.968  -4.063  0.00  0.00     0.017 A 
ENDBRANCH   8   9
ENDBRANCH   1   8
TORSDOF 4
