REMARK  5 active torsions:
REMARK  status: ('A' for Active; 'I' for Inactive)
REMARK    1  A    between atoms: N_12  and  C_5 
REMARK    2  A    between atoms: N_15  and  C_6 
REMARK    3  A    between atoms: C_14  and  N_12 
REMARK    4  A    between atoms: C_21  and  N_15 
REMARK    5  A    between atoms: C_17  and  C_21 
ROOT
ATOM      1  N   UNL d   1      -0.606  -0.768   0.077  0.00  0.00    -0.060 N 
ATOM      2  C   UNL d   1      -0.363   0.605   0.154  0.00  0.00     0.720 A 
ATOM      3  N   UNL d   1      -1.517   1.233   0.233  0.00  0.00    -0.019 N 
ATOM      4  HN  UNL d   1      -1.681   2.234   0.344  1.00  0.00     0.203 HD
ATOM      5  C   UNL d   1      -2.440   0.238   0.132  0.00  0.00     0.712 A 
ATOM      6  C   UNL d   1       0.451  -1.703   0.009  0.00  0.00     0.123 A 
ATOM      7  N   UNL d   1      -1.940  -0.997   0.058  0.00  0.00    -0.109 N 
ATOM      8  HN  UNL d   1      -2.437  -1.886   0.001  1.00  0.00     0.207 HD
ATOM      9  N   UNL d   1       0.900   1.115   0.131  0.00  0.00    -0.193 N 
ATOM     10  HN  UNL d   1       1.074   2.119   0.175  1.00  0.00     0.184 HD
ATOM     11  C   UNL d   1       1.709  -1.232  -0.010  0.00  0.00     0.070 A 
ATOM     12  C   UNL d   1       1.873   0.254   0.049  0.00  0.00     0.026 A 
ATOM     13  C   UNL d   1       3.284   0.787   0.008  0.00  0.00     0.069 C 
ENDROOT
BRANCH   5  14
ATOM     14  N   UNL d   1      -3.738   0.604   0.133  0.00  0.00    -0.189 N 
ATOM     15  H   UNL d   1      -3.890   1.596   0.275  0.00  0.00     0.184 HD
BRANCH  14  16
ATOM     16  C   UNL d   1      -4.828  -0.018  -0.518  0.00  0.00     0.056 A 
ATOM     17  C   UNL d   1      -4.619  -0.837  -1.643  0.00  0.00     0.054 A 
ATOM     18  C   UNL d   1      -5.682  -1.487  -2.266  0.00  0.00     0.036 A 
ATOM     19 CL   UNL d   1      -5.390  -2.462  -3.655  0.00  0.00    -0.084 Cl
ATOM     20  C   UNL d   1      -6.972  -1.354  -1.774  0.00  0.00     0.024 A 
ATOM     21  C   UNL d   1      -7.202  -0.542  -0.665  0.00  0.00     0.011 A 
ATOM     22  C   UNL d   1      -6.145   0.147  -0.039  0.00  0.00    -0.035 A 
ATOM     23  C   UNL d   1      -6.480   0.967   1.179  0.00  0.00     0.050 C 
ENDBRANCH  14  16
ENDBRANCH   5  14
BRANCH   6  24
ATOM     24  N   UNL d   1       0.153  -3.077   0.001  0.00  0.00    -0.276 NA
ATOM     25  H   UNL d   1      -0.686  -3.213   0.576  0.00  0.00     0.129 HD
BRANCH  24  26
ATOM     26  C   UNL d   1      -0.115  -3.750  -1.275  0.00  0.00     0.098 C 
BRANCH  26  27
ATOM     27  C   UNL d   1       0.739  -4.976  -1.371  0.00  0.00    -0.001 A 
ATOM     28  C   UNL d   1       2.244  -4.874  -1.444  0.00  0.00     0.006 A 
ATOM     29  C   UNL d   1       1.466  -5.305  -2.654  0.00  0.00     0.006 A 
ENDBRANCH  26  27
ENDBRANCH  24  26
ENDBRANCH   6  24
TORSDOF 5
