REMARK  7 active torsions:
REMARK  status: ('A' for Active; 'I' for Inactive)
REMARK    1  A    between atoms: C_3  and  C_1 
REMARK    2  A    between atoms: O_7  and  C_1 
REMARK    3  A    between atoms: C_2  and  O_8 
REMARK    4  A    between atoms: C_4  and  C_2 
REMARK    5  A    between atoms: C_23  and  O_7 
REMARK    6  A    between atoms: O_8  and  C_24 
REMARK    7  A    between atoms: C_12  and  C_11 
ROOT
ATOM      1  C   UNL d   1      -3.840   1.152   0.473  0.00  0.00    -0.026 A 
ATOM      2  C   UNL d   1      -3.114   2.114  -0.253  0.00  0.00     0.015 A 
ATOM      3  C   UNL d   1      -3.092   0.151   1.127  0.00  0.00     0.015 A 
ATOM      4  C   UNL d   1      -1.010   1.070   0.347  0.00  0.00     0.079 A 
ATOM      5  C   UNL d   1      -1.712   2.070  -0.324  0.00  0.00     0.038 A 
ATOM      6  C   UNL d   1      -1.696   0.104   1.070  0.00  0.00     0.038 A 
ENDROOT
BRANCH   1   7
ATOM      7  C   UNL d   1      -5.322   1.164   0.568  0.00  0.00    -0.026 A 
ATOM      8  C   UNL d   1      -5.967   0.710   1.734  0.00  0.00     0.015 A 
ATOM      9  C   UNL d   1      -7.359   0.672   1.854  0.00  0.00     0.038 A 
ATOM     10  C   UNL d   1      -8.146   1.131   0.810  0.00  0.00     0.079 A 
ATOM     11  C   UNL d   1      -7.547   1.588  -0.365  0.00  0.00     0.038 A 
ATOM     12  C   UNL d   1      -6.149   1.598  -0.485  0.00  0.00     0.015 A 
BRANCH  10  13
ATOM     13  O   UNL d   1      -9.559   1.191   0.846  0.00  0.00    -0.275 OA
BRANCH  13  14
ATOM     14  C   UNL d   1     -10.384   0.920   1.951  0.00  0.00     0.305 C 
ATOM     15  O   UNL d   1      -9.997   0.531   3.045  0.00  0.00    -0.258 OA
BRANCH  14  16
ATOM     16  C   UNL d   1     -11.784   1.159   1.628  0.00  0.00     0.080 A 
ATOM     17  S   UNL d   1     -12.292   1.805   0.123  0.00  0.00    -0.096 SA
ATOM     18  C   UNL d   1     -13.941   1.710   0.557  0.00  0.00     0.050 A 
ATOM     19  C   UNL d   1     -14.114   1.223   1.833  0.00  0.00     0.009 A 
ATOM     20  C   UNL d   1     -12.868   0.922   2.456  0.00  0.00     0.025 A 
ENDBRANCH  14  16
ENDBRANCH  13  14
ENDBRANCH  10  13
ENDBRANCH   1   7
BRANCH   4  21
ATOM     21  O   UNL d   1       0.389   1.041   0.156  0.00  0.00    -0.275 OA
BRANCH  21  22
ATOM     22  C   UNL d   1       1.272   0.514   1.106  0.00  0.00     0.305 C 
ATOM     23  O   UNL d   1       0.956   0.163   2.240  0.00  0.00    -0.258 OA
BRANCH  22  24
ATOM     24  C   UNL d   1       2.628   0.427   0.583  0.00  0.00     0.080 A 
ATOM     25  S   UNL d   1       3.045   0.887  -1.015  0.00  0.00    -0.096 SA
ATOM     26  C   UNL d   1       4.687   0.468  -0.788  0.00  0.00     0.050 A 
ATOM     27  C   UNL d   1       4.927  -0.011   0.479  0.00  0.00     0.009 A 
ATOM     28  C   UNL d   1       3.741  -0.036   1.267  0.00  0.00     0.025 A 
ENDBRANCH  22  24
ENDBRANCH  21  22
ENDBRANCH   4  21
TORSDOF 7
