REMARK  2 active torsions:
REMARK  status: ('A' for Active; 'I' for Inactive)
REMARK    1  A    between atoms: N_7  and  N_1 
REMARK    2  A    between atoms: C_3  and  C_5 
REMARK       I    between atoms: C_4  and  N_7 
REMARK       I    between atoms: N_12  and  C_4 
ROOT
ATOM      1  N   UNL d   1       1.062  -0.161   0.039  0.00  0.00    -0.300 N 
ATOM      2  HN  UNL d   1       2.078  -0.218  -0.026  1.00  0.00     0.186 HD
ATOM      3  C   UNL d   1       0.381   0.504  -0.852  0.00  0.00     0.039 C 
ATOM      4  C   UNL d   1      -1.130   0.606  -0.844  0.00  0.00     0.071 C 
ENDROOT
BRANCH   1   5
ATOM      5  N   UNL d   1       0.400  -0.783   1.061  0.00  0.00    -0.252 N 
ATOM      6  C   UNL d   1       1.080  -1.479   2.029  0.00  0.00     0.332 C 
ATOM      7  O   UNL d   1       0.528  -1.992   2.994  0.00  0.00    -0.246 OA
ATOM      8  N   UNL d   1       2.419  -1.553   1.825  0.00  0.00    -0.351 N 
ATOM      9  H   UNL d   1       2.788  -0.869   1.179  0.00  0.00     0.160 HD
ATOM     10  H   UNL d   1       2.991  -1.893   2.582  0.00  0.00     0.160 HD
ATOM     11  H   UNL d   1      -0.600  -0.697   1.188  0.00  0.00     0.191 HD
ENDBRANCH   1   5
BRANCH   3  12
ATOM     12  C   UNL d   1       1.158   1.158  -1.897  0.00  0.00     0.028 A 
ATOM     13  S   UNL d   1       0.620   2.584  -2.675  0.00  0.00    -0.100 SA
ATOM     14  C   UNL d   1       2.037   2.689  -3.624  0.00  0.00     0.050 A 
ATOM     15  C   UNL d   1       2.913   1.661  -3.360  0.00  0.00     0.008 A 
ATOM     16  C   UNL d   1       2.410   0.785  -2.357  0.00  0.00     0.021 A 
ENDBRANCH   3  12
TORSDOF 2
