REMARK  7 active torsions:
REMARK  status: ('A' for Active; 'I' for Inactive)
REMARK    1  A    between atoms: C_2  and  C_1 
REMARK    2  A    between atoms: N_3  and  C_1 
REMARK    3  A    between atoms: N_4  and  C_1 
REMARK    4  A    between atoms: C_5  and  C_1 
REMARK    5  A    between atoms: C_6  and  N_3 
REMARK       I    between atoms: C_7  and  N_4 
REMARK    6  A    between atoms: O_14  and  C_5 
REMARK    7  A    between atoms: C_19  and  O_14 
ROOT
ATOM      1  C   UNL d   1       0.916  -0.266  -0.035  0.00  0.00     0.280 C 
ENDROOT
BRANCH   1   2
ATOM      2  C   UNL d   1       0.212  -1.663   0.155  0.00  0.00     0.436 C 
ATOM      3  F   UNL d   1      -0.657  -1.665   1.199  0.00  0.00    -0.166 F 
ATOM      4  F   UNL d   1      -0.493  -2.037  -0.945  0.00  0.00    -0.166 F 
ATOM      5  F   UNL d   1       1.083  -2.675   0.404  0.00  0.00    -0.166 F 
ENDBRANCH   1   2
BRANCH   1   6
ATOM      6  N   UNL d   1       0.818   0.649   1.141  0.00  0.00    -0.250 NA
ATOM      7  H   UNL d   1      -0.158   0.940   1.238  0.00  0.00     0.131 HD
BRANCH   6   8
ATOM      8  C   UNL d   1       1.340   0.357   2.408  0.00  0.00     0.017 A 
ATOM      9  C   UNL d   1       1.176   1.280   3.470  0.00  0.00    -0.041 A 
ATOM     10  C   UNL d   1       0.456   2.597   3.328  0.00  0.00     0.050 C 
ATOM     11  C   UNL d   1       1.757   1.019   4.729  0.00  0.00     0.008 A 
ATOM     12  C   UNL d   1       2.462  -0.154   4.968  0.00  0.00     0.001 A 
ATOM     13  C   UNL d   1       2.623  -1.067   3.944  0.00  0.00     0.002 A 
ATOM     14  C   UNL d   1       2.093  -0.799   2.676  0.00  0.00     0.024 A 
ENDBRANCH   6   8
ENDBRANCH   1   6
BRANCH   1  15
ATOM     15  N   UNL d   1       0.363   0.559  -1.134  0.00  0.00    -0.323 N 
ATOM     16  C   UNL d   1      -0.972   0.833  -1.259  0.00  0.00     0.215 C 
ATOM     17  O   UNL d   1      -1.791   0.477  -0.420  0.00  0.00    -0.274 OA
ATOM     18  C   UNL d   1      -1.352   1.583  -2.504  0.00  0.00     0.117 C 
ATOM     19  H   UNL d   1       1.022   1.010  -1.758  0.00  0.00     0.165 HD
ENDBRANCH   1  15
BRANCH   1  20
ATOM     20  C   UNL d   1       2.396  -0.446  -0.489  0.00  0.00     0.312 C 
ATOM     21  O   UNL d   1       3.272   0.401  -0.368  0.00  0.00    -0.260 OA
BRANCH  20  22
ATOM     22  O   UNL d   1       2.574  -1.577  -1.242  0.00  0.00    -0.319 OA
BRANCH  22  23
ATOM     23  C   UNL d   1       3.905  -1.815  -1.724  0.00  0.00     0.174 C 
ATOM     24  C   UNL d   1       4.753  -2.449  -0.635  0.00  0.00     0.034 C 
ENDBRANCH  22  23
ENDBRANCH  20  22
ENDBRANCH   1  20
TORSDOF 7
