REMARK  4 active torsions:
REMARK  status: ('A' for Active; 'I' for Inactive)
REMARK    1  A    between atoms: C_14  and  N_7 
REMARK    2  A    between atoms: N_11  and  C_8 
REMARK    3  A    between atoms: C_18  and  N_11 
REMARK    4  A    between atoms: O_24  and  C_19 
ROOT
ATOM      1  C   UNL d   1       0.022   0.733  -0.027  0.00  0.00     0.138 A 
ATOM      2  C   UNL d   1      -0.020  -0.625  -0.086  0.00  0.00     0.099 A 
ATOM      3  N   UNL d   1       1.283   1.362   0.076  0.00  0.00    -0.288 N 
ATOM      4  N   UNL d   1       2.432  -0.695  -0.103  0.00  0.00    -0.270 N 
ATOM      5  C   UNL d   1       2.498   0.672  -0.038  0.00  0.00     0.332 A 
ATOM      6  C   UNL d   1       1.259  -1.399  -0.110  0.00  0.00     0.267 A 
ATOM      7  N   UNL d   1      -1.217   1.446   0.007  0.00  0.00    -0.263 N 
ATOM      8  C   UNL d   1      -1.285  -1.370  -0.055  0.00  0.00     0.037 A 
ATOM      9  C   UNL d   1      -2.456   0.776   0.091  0.00  0.00     0.255 A 
ATOM     10  C   UNL d   1      -2.429  -0.686   0.043  0.00  0.00     0.100 A 
ATOM     11  O   UNL d   1       3.583   1.260  -0.051  0.00  0.00    -0.246 OA
ATOM     12  O   UNL d   1       1.245  -2.632  -0.139  0.00  0.00    -0.267 OA
ATOM     13  O   UNL d   1      -3.570   1.298   0.156  0.00  0.00    -0.268 OA
ATOM     14  C   UNL d   1       1.469   2.768   0.404  0.00  0.00     0.163 C 
ATOM     15  C   UNL d   1       3.663  -1.470  -0.087  0.00  0.00     0.164 C 
ENDROOT
BRANCH   8  16
ATOM     16  N   UNL d   1      -1.310  -2.768  -0.128  0.00  0.00    -0.259 NA
ATOM     17  H   UNL d   1      -0.371  -3.163  -0.284  0.00  0.00     0.134 HD
BRANCH  16  18
ATOM     18  C   UNL d   1      -1.960  -3.572   0.847  0.00  0.00     0.013 A 
ATOM     19  C   UNL d   1      -2.435  -4.830   0.474  0.00  0.00     0.026 A 
ATOM     20  C   UNL d   1      -3.100  -5.636   1.402  0.00  0.00     0.038 A 
ATOM     21  C   UNL d   1      -3.251  -5.221   2.727  0.00  0.00     0.068 A 
ATOM     22  C   UNL d   1      -2.710  -4.002   3.124  0.00  0.00     0.038 A 
ATOM     23  C   UNL d   1      -2.060  -3.188   2.190  0.00  0.00     0.026 A 
BRANCH  21  24
ATOM     24  O   UNL d   1      -3.987  -6.063   3.513  0.00  0.00    -0.356 OA
ATOM     25  C   UNL d   1      -3.775  -5.980   4.916  0.00  0.00     0.210 C 
ENDBRANCH  21  24
ENDBRANCH  16  18
ENDBRANCH   8  16
BRANCH   7  26
ATOM     26  C   UNL d   1      -1.380   2.858  -0.206  0.00  0.00     0.044 A 
ATOM     27  C   UNL d   1      -2.077   3.630   0.741  0.00  0.00     0.030 A 
ATOM     28  C   UNL d   1      -2.328   4.982   0.514  0.00  0.00     0.002 A 
ATOM     29  C   UNL d   1      -1.895   5.575  -0.668  0.00  0.00     0.000 A 
ATOM     30  C   UNL d   1      -1.207   4.819  -1.619  0.00  0.00     0.002 A 
ATOM     31  C   UNL d   1      -0.951   3.463  -1.393  0.00  0.00     0.030 A 
ENDBRANCH   7  26
TORSDOF 4
