REMARK  7 active torsions:
REMARK  status: ('A' for Active; 'I' for Inactive)
REMARK    1  A    between atoms: C_4  and  N_1 
REMARK    2  A    between atoms: C_7  and  C_4 
REMARK    3  A    between atoms: C_10  and  C_4 
REMARK       I    between atoms: N_12  and  C_7 
REMARK    4  A    between atoms: C_13  and  C_10 
REMARK    5  A    between atoms: C_16  and  N_12 
REMARK    6  A    between atoms: C_18  and  C_16 
REMARK    7  A    between atoms: C_17  and  C_18 
ROOT
ATOM      1  C   UNL d   1       3.310  -0.011  -0.248  0.00  0.00     0.192 C 
ENDROOT
BRANCH   1   2
ATOM      2  N   UNL d   1       1.853   0.028  -0.117  0.00  0.00    -0.266 N 
ATOM      3  C   UNL d   1       1.021   1.008  -0.589  0.00  0.00     0.262 A 
ATOM      4  C   UNL d   1      -0.343   0.586  -0.284  0.00  0.00     0.048 A 
ATOM      5  O   UNL d   1       1.272   2.044  -1.171  0.00  0.00    -0.267 OA
ATOM      6  C   UNL d   1      -1.546   1.219  -0.532  0.00  0.00     0.018 A 
ATOM      7  C   UNL d   1      -0.275  -0.659   0.311  0.00  0.00     0.048 A 
ATOM      8  C   UNL d   1      -2.712   0.541  -0.168  0.00  0.00     0.001 A 
ATOM      9  C   UNL d   1      -2.647  -0.734   0.430  0.00  0.00     0.001 A 
ATOM     10  C   UNL d   1      -1.414  -1.350   0.680  0.00  0.00     0.018 A 
ATOM     11  C   UNL d   1       1.140  -1.024   0.395  0.00  0.00     0.262 A 
ATOM     12  O   UNL d   1       1.560  -2.089   0.807  0.00  0.00    -0.267 OA
ENDBRANCH   1   2
BRANCH   1  13
ATOM     13  C   UNL d   1       3.662  -0.671  -1.593  0.00  0.00     0.241 C 
ATOM     14  O   UNL d   1       3.788  -0.032  -2.638  0.00  0.00    -0.271 OA
ATOM     15  N   UNL d   1       3.783  -2.052  -1.563  0.00  0.00    -0.359 N 
ATOM     16  H   UNL d   1       3.394  -2.554  -0.768  0.00  0.00     0.162 HD
BRANCH  15  17
ATOM     17  C   UNL d   1       4.098  -2.772  -2.790  0.00  0.00     0.127 C 
BRANCH  17  18
ATOM     18  C   UNL d   1       4.274  -4.277  -2.586  0.00  0.00     0.058 C 
BRANCH  18  19
ATOM     19  C   UNL d   1       4.590  -4.997  -3.879  0.00  0.00    -0.057 A 
ATOM     20  C   UNL d   1       5.917  -5.196  -4.284  0.00  0.00     0.007 A 
ATOM     21  C   UNL d   1       6.203  -5.859  -5.481  0.00  0.00     0.001 A 
ATOM     22  C   UNL d   1       5.167  -6.324  -6.289  0.00  0.00     0.000 A 
ATOM     23  C   UNL d   1       3.844  -6.124  -5.901  0.00  0.00     0.001 A 
ATOM     24  C   UNL d   1       3.557  -5.461  -4.704  0.00  0.00     0.007 A 
ENDBRANCH  18  19
ENDBRANCH  17  18
ENDBRANCH  15  17
ENDBRANCH   1  13
BRANCH   1  25
ATOM     25  C   UNL d   1       4.019   1.354  -0.161  0.00  0.00     0.074 C 
BRANCH  25  26
ATOM     26  C   UNL d   1       3.825   2.084   1.149  0.00  0.00    -0.056 A 
ATOM     27  C   UNL d   1       4.262   1.530   2.359  0.00  0.00     0.007 A 
ATOM     28  C   UNL d   1       4.097   2.227   3.557  0.00  0.00     0.001 A 
ATOM     29  C   UNL d   1       3.502   3.487   3.558  0.00  0.00     0.000 A 
ATOM     30  C   UNL d   1       3.069   4.051   2.361  0.00  0.00     0.001 A 
ATOM     31  C   UNL d   1       3.231   3.354   1.163  0.00  0.00     0.007 A 
ENDBRANCH  25  26
ENDBRANCH   1  25
TORSDOF 7
