REMARK  7 active torsions:
REMARK  status: ('A' for Active; 'I' for Inactive)
REMARK    1  A    between atoms: C_16  and  C_5 
REMARK    2  A    between atoms: O_14  and  C_6 
REMARK    3  A    between atoms: C_7  and  C_13 
REMARK    4  A    between atoms: N_10  and  C_19 
REMARK    5  A    between atoms: O_15  and  C_12 
REMARK    6  A    between atoms: C_22  and  C_16 
REMARK    7  A    between atoms: C_19  and  C_22 
ROOT
ATOM      1  N   UNL d   1      -1.475   5.326   2.526  0.00  0.00    -0.398 N 
ATOM      2  HN  UNL d   1      -2.287   5.308   1.910  1.00  0.00     0.158 HD
ATOM      3  C   UNL d   1      -1.225   6.324   3.300  0.00  0.00     0.097 C 
ENDROOT
BRANCH   1   4
ATOM      4  C   UNL d   1      -0.524   4.220   2.586  0.00  0.00     0.119 C 
BRANCH   4   5
ATOM      5  C   UNL d   1      -1.017   3.155   1.604  0.00  0.00     0.021 C 
BRANCH   5   6
ATOM      6  C   UNL d   1      -1.116   3.639   0.148  0.00  0.00     0.021 C 
BRANCH   6   7
ATOM      7  C   UNL d   1       0.185   4.189  -0.425  0.00  0.00     0.119 A 
ATOM      8  C   UNL d   1       1.274   3.152  -0.522  0.00  0.00     0.245 A 
ATOM      9  N   UNL d   1       1.517   3.018  -1.879  0.00  0.00    -0.270 N 
ATOM     10  O   UNL d   1       1.823   2.560   0.388  0.00  0.00    -0.271 OA
ATOM     11  N   UNL d   1       0.777   3.842  -2.682  0.00  0.00    -0.312 N 
ATOM     12  H   UNL d   1       2.204   2.384  -2.270  0.00  0.00     0.190 HD
ATOM     13  C   UNL d   1       0.017   4.524  -1.883  0.00  0.00     0.094 A 
ATOM     14  HN  UNL d   1       0.816   3.906  -3.699  1.00  0.00     0.185 HD
ENDBRANCH   6   7
ENDBRANCH   5   6
ENDBRANCH   4   5
ENDBRANCH   1   4
BRANCH   3  15
ATOM     15  C   UNL d   1      -2.141   7.487   3.308  0.00  0.00     0.015 A 
ATOM     16  C   UNL d   1      -3.308   7.512   2.513  0.00  0.00     0.110 A 
ATOM     17  C   UNL d   1      -4.153   8.627   2.549  0.00  0.00     0.102 A 
ATOM     18  C   UNL d   1      -3.806   9.705   3.376  0.00  0.00     0.040 A 
ATOM     19  C   UNL d   1      -2.649   9.681   4.158  0.00  0.00     0.004 A 
ATOM     20  C   UNL d   1      -1.813   8.569   4.129  0.00  0.00     0.016 A 
BRANCH  16  21
ATOM     21  O   UNL d   1      -3.612   6.446   1.702  0.00  0.00    -0.357 OA
ATOM     22  H   UNL d   1      -2.912   5.767   1.838  0.00  0.00     0.217 HD
ENDBRANCH  16  21
BRANCH  17  23
ATOM     23  O   UNL d   1      -5.320   8.834   1.865  0.00  0.00    -0.353 OA
ATOM     24  C   UNL d   1      -5.803   7.797   1.021  0.00  0.00     0.210 C 
ENDBRANCH  17  23
ENDBRANCH   3  15
TORSDOF 7
