REMARK  6 active torsions:
REMARK  status: ('A' for Active; 'I' for Inactive)
REMARK    1  A    between atoms: C_7  and  N_1 
REMARK    2  A    between atoms: S_8  and  C_2 
REMARK    3  A    between atoms: C_13  and  S_8 
REMARK    4  A    between atoms: C_10  and  C_13 
REMARK    5  A    between atoms: C_11  and  C_10 
REMARK    6  A    between atoms: C_19  and  C_12 
ROOT
ATOM      1  C   UNL d   1       2.377  -3.182   0.103  0.00  0.00     0.166 C 
ENDROOT
BRANCH   1   2
ATOM      2  C   UNL d   1       3.679  -3.935  -0.138  0.00  0.00     0.169 C 
ATOM      3  O   UNL d   1       3.697  -5.124  -0.457  0.00  0.00    -0.291 OA
BRANCH   2   4
ATOM      4  C   UNL d   1       4.991  -3.229   0.037  0.00  0.00     0.011 A 
ATOM      5  C   UNL d   1       5.104  -1.878   0.366  0.00  0.00     0.016 A 
ATOM      6  C   UNL d   1       6.364  -1.259   0.425  0.00  0.00     0.013 A 
ATOM      7  C   UNL d   1       7.555  -1.968   0.188  0.00  0.00    -0.026 A 
ATOM      8  C   UNL d   1       7.426  -3.341  -0.084  0.00  0.00     0.013 A 
ATOM      9  C   UNL d   1       6.169  -3.960  -0.169  0.00  0.00     0.016 A 
BRANCH   7  10
ATOM     10  C   UNL d   1       8.877  -1.289   0.188  0.00  0.00    -0.026 A 
ATOM     11  C   UNL d   1       9.916  -1.707  -0.665  0.00  0.00     0.012 A 
ATOM     12  C   UNL d   1      11.151  -1.049  -0.699  0.00  0.00     0.001 A 
ATOM     13  C   UNL d   1      11.374   0.057   0.113  0.00  0.00     0.000 A 
ATOM     14  C   UNL d   1      10.368   0.494   0.968  0.00  0.00     0.001 A 
ATOM     15  C   UNL d   1       9.140  -0.176   1.010  0.00  0.00     0.012 A 
ENDBRANCH   7  10
ENDBRANCH   2   4
ENDBRANCH   1   2
BRANCH   1  16
ATOM     16  S   UNL d   1       1.079  -3.630  -1.087  0.00  0.00    -0.084 SA
BRANCH  16  17
ATOM     17  C   UNL d   1       0.767  -5.280  -0.662  0.00  0.00     0.177 A 
ATOM     18  N   UNL d   1       0.913  -6.396  -1.482  0.00  0.00    -0.219 N 
ATOM     19  N   UNL d   1       0.307  -7.433  -0.835  0.00  0.00     0.001 NA
ATOM     20  N   UNL d   1      -0.100  -6.965   0.335  0.00  0.00    -0.006 NA
ATOM     21  N   UNL d   1       0.174  -5.633   0.457  0.00  0.00    -0.264 N 
ATOM     22  HN  UNL d   1      -0.038  -5.033   1.254  1.00  0.00     0.186 HD
BRANCH  18  23
ATOM     23  C   UNL d   1       1.495  -6.597  -2.770  0.00  0.00     0.058 A 
ATOM     24  C   UNL d   1       2.306  -5.638  -3.386  0.00  0.00     0.055 A 
ATOM     25  C   UNL d   1       2.822  -5.864  -4.664  0.00  0.00     0.036 A 
ATOM     26 CL   UNL d   1       3.799  -4.654  -5.406  0.00  0.00    -0.084 Cl
ATOM     27  C   UNL d   1       2.557  -7.048  -5.341  0.00  0.00     0.024 A 
ATOM     28  C   UNL d   1       1.783  -8.028  -4.725  0.00  0.00     0.004 A 
ATOM     29  C   UNL d   1       1.258  -7.809  -3.446  0.00  0.00     0.031 A 
ENDBRANCH  18  23
ENDBRANCH  16  17
ENDBRANCH   1  16
TORSDOF 6
