REMARK  4 active torsions:
REMARK  status: ('A' for Active; 'I' for Inactive)
REMARK    1  A    between atoms: S_9  and  C_2 
REMARK    2  A    between atoms: C_11  and  C_3 
REMARK    3  A    between atoms: N_4  and  C_10 
REMARK    4  A    between atoms: C_14  and  S_9 
ROOT
ATOM      1  N   UNL d   1      -1.185   0.044  -0.075  0.00  0.00    -0.320 N 
ATOM      2  C   UNL d   1      -0.378   1.136   0.013  0.00  0.00     0.167 A 
ATOM      3  C   UNL d   1      -0.378  -1.059   0.011  0.00  0.00     0.132 A 
ATOM      4  N   UNL d   1       0.871  -0.639   0.109  0.00  0.00    -0.283 N 
ATOM      5  HN  UNL d   1       1.698  -1.234   0.161  1.00  0.00     0.188 HD
ATOM      6  N   UNL d   1       0.868   0.740   0.127  0.00  0.00    -0.278 N 
ATOM      7  HN  UNL d   1       1.685   1.344   0.214  1.00  0.00     0.189 HD
ATOM      8  H   UNL d   1      -2.182   0.071  -0.239  0.00  0.00     0.169 HD
ENDROOT
BRANCH   2   9
ATOM      9  S   UNL d   1      -0.923   2.772   0.005  0.00  0.00    -0.035 SA
BRANCH   9  10
ATOM     10  C   UNL d   1      -2.682   2.663  -0.267  0.00  0.00     0.077 A 
ATOM     11  N   UNL d   1      -3.186   1.587  -0.927  0.00  0.00    -0.358 N 
ATOM     12  C   UNL d   1      -4.522   1.569  -1.181  0.00  0.00     0.124 A 
ATOM     13  HN  UNL d   1      -2.583   0.818  -1.221  1.00  0.00     0.166 HD
ATOM     14  C   UNL d   1      -5.386   2.568  -0.767  0.00  0.00     0.118 A 
ATOM     15  C   UNL d   1      -4.868   3.660  -0.071  0.00  0.00     0.040 A 
ATOM     16  C   UNL d   1      -3.493   3.710   0.173  0.00  0.00     0.040 A 
BRANCH  14  17
ATOM     17  N   UNL d   1      -6.809   2.458  -1.057  0.00  0.00    -0.114 N 
ATOM     18  O   UNL d   1      -7.190   1.462  -1.685  0.00  0.00    -0.532 OA
ATOM     19  O   UNL d   1      -7.548   3.364  -0.649  0.00  0.00    -0.532 OA
ENDBRANCH  14  17
ENDBRANCH   9  10
ENDBRANCH   2   9
BRANCH   3  20
ATOM     20  C   UNL d   1      -0.835  -2.445  -0.022  0.00  0.00     0.013 A 
ATOM     21  C   UNL d   1       0.028  -3.447  -0.490  0.00  0.00     0.039 A 
ATOM     22  C   UNL d   1      -0.382  -4.781  -0.511  0.00  0.00     0.036 A 
ATOM     23 CL   UNL d   1       0.687  -5.994  -1.100  0.00  0.00    -0.084 Cl
ATOM     24  C   UNL d   1      -1.648  -5.142  -0.061  0.00  0.00     0.047 A 
ATOM     25  C   UNL d   1      -2.505  -4.152   0.411  0.00  0.00     0.036 A 
ATOM     26  C   UNL d   1      -2.110  -2.812   0.431  0.00  0.00     0.039 A 
ATOM     27 CL   UNL d   1      -4.070  -4.582   0.983  0.00  0.00    -0.084 Cl
ENDBRANCH   3  20
TORSDOF 4
