REMARK  8 active torsions:
REMARK  status: ('A' for Active; 'I' for Inactive)
REMARK    1  A    between atoms: C_10  and  C_1 
REMARK    2  A    between atoms: N_6  and  C_2 
REMARK    3  A    between atoms: C_8  and  C_11 
REMARK    4  A    between atoms: C_9  and  C_12 
REMARK    5  A    between atoms: O_20  and  C_10 
REMARK    6  A    between atoms: C_13  and  C_14 
REMARK    7  A    between atoms: N_32  and  C_14 
REMARK    8  A    between atoms: N_15  and  O_20 
ROOT
ATOM      1  C   UNL d   1       5.080   1.192  -0.253  0.00  0.00     0.109 C 
ATOM      2  N   UNL d   1       3.974   0.548  -0.469  0.00  0.00    -0.246 N 
ATOM      3  HN  UNL d   1       3.936  -0.441  -0.715  1.00  0.00     0.196 HD
ENDROOT
BRANCH   1   4
ATOM      4  C   UNL d   1       6.368   0.425  -0.373  0.00  0.00     0.005 A 
ATOM      5  C   UNL d   1       6.425  -0.731  -1.165  0.00  0.00     0.031 A 
ATOM      6  C   UNL d   1       7.636  -1.426  -1.337  0.00  0.00     0.049 A 
ATOM      7  C   UNL d   1       8.787  -0.959  -0.680  0.00  0.00     0.032 A 
ATOM      8  C   UNL d   1       8.744   0.185   0.133  0.00  0.00     0.049 A 
ATOM      9  C   UNL d   1       7.524   0.869   0.282  0.00  0.00     0.031 A 
BRANCH   6  10
ATOM     10  C   UNL d   1       7.693  -2.637  -2.240  0.00  0.00     0.417 C 
ATOM     11  F   UNL d   1       8.947  -3.159  -2.358  0.00  0.00    -0.166 F 
ATOM     12  F   UNL d   1       6.904  -3.656  -1.808  0.00  0.00    -0.166 F 
ATOM     13  F   UNL d   1       7.292  -2.354  -3.510  0.00  0.00    -0.166 F 
ENDBRANCH   6  10
BRANCH   8  14
ATOM     14  C   UNL d   1       9.986   0.699   0.823  0.00  0.00     0.417 C 
ATOM     15  F   UNL d   1      11.098  -0.043   0.567  0.00  0.00    -0.166 F 
ATOM     16  F   UNL d   1      10.291   1.971   0.444  0.00  0.00    -0.166 F 
ATOM     17  F   UNL d   1       9.857   0.731   2.177  0.00  0.00    -0.166 F 
ENDBRANCH   8  14
ENDBRANCH   1   4
BRANCH   1  18
ATOM     18  N   UNL d   1       5.137   2.531   0.055  0.00  0.00    -0.286 NA
ATOM     19  H   UNL d   1       5.928   3.038  -0.327  0.00  0.00     0.125 HD
ATOM     20  H   UNL d   1       4.261   3.011  -0.121  0.00  0.00     0.125 HD
ENDBRANCH   1  18
BRANCH   2  21
ATOM     21  O   UNL d   1       2.825   1.363  -0.326  0.00  0.00    -0.193 OA
BRANCH  21  22
ATOM     22  C   UNL d   1       1.693   0.581  -0.464  0.00  0.00     0.320 C 
ATOM     23  O   UNL d   1       1.700  -0.617  -0.727  0.00  0.00    -0.257 OA
BRANCH  22  24
ATOM     24  C   UNL d   1       0.461   1.333  -0.288  0.00  0.00     0.104 A 
ATOM     25  C   UNL d   1      -0.796   0.868   0.092  0.00  0.00     0.145 A 
ATOM     26  N   UNL d   1      -1.664   1.927  -0.040  0.00  0.00    -0.280 N 
ATOM     27  C   UNL d   1      -3.062   2.041   0.312  0.00  0.00     0.179 C 
ATOM     28  N   UNL d   1      -1.039   3.060  -0.435  0.00  0.00    -0.307 N 
ATOM     29  C   UNL d   1       0.234   2.697  -0.581  0.00  0.00     0.129 A 
ATOM     30  HN  UNL d   1      -1.450   3.981  -0.587  1.00  0.00     0.186 HD
BRANCH  25  31
ATOM     31  N   UNL d   1      -1.140  -0.402   0.563  0.00  0.00    -0.317 N 
ATOM     32  C   UNL d   1      -0.344  -1.221   1.341  0.00  0.00     0.098 A 
ATOM     33  C   UNL d   1      -1.027  -2.373   1.652  0.00  0.00     0.019 A 
ATOM     34  C   UNL d   1      -2.291  -2.282   1.037  0.00  0.00     0.019 A 
ATOM     35  C   UNL d   1      -2.335  -1.073   0.378  0.00  0.00     0.098 A 
ENDBRANCH  25  31
ENDBRANCH  22  24
ENDBRANCH  21  22
ENDBRANCH   2  21
TORSDOF 8
