REMARK  2 active torsions:
REMARK  status: ('A' for Active; 'I' for Inactive)
REMARK    1  A    between atoms: N_2  and  C_1 
REMARK       I    between atoms: C_3  and  N_2 
REMARK       I    between atoms: N_8  and  C_3 
REMARK    2  A    between atoms: C_11  and  N_8 
ROOT
ATOM      1  N   UNL d   1      -0.405  -2.790   0.433  0.00  0.00    -0.293 N 
ATOM      2  C   UNL d   1      -1.548  -3.495   0.085  0.00  0.00     0.326 C 
ATOM      3  N   UNL d   1      -2.693  -2.763   0.396  0.00  0.00    -0.309 N 
ATOM      4  O   UNL d   1      -1.573  -4.619  -0.406  0.00  0.00    -0.247 OA
ATOM      5  H   UNL d   1      -0.528  -1.793   0.513  0.00  0.00     0.172 HD
ATOM      6  H   UNL d   1      -2.572  -2.041   1.092  0.00  0.00     0.170 HD
ENDROOT
BRANCH   1   7
ATOM      7  C   UNL d   1       0.916  -3.222   0.373  0.00  0.00     0.126 A 
ATOM      8  N   UNL d   1       1.497  -4.478   0.268  0.00  0.00    -0.281 N 
ATOM      9  N   UNL d   1       2.854  -4.411   0.183  0.00  0.00    -0.308 N 
ATOM     10  C   UNL d   1       0.991  -5.820   0.416  0.00  0.00     0.179 C 
ATOM     11  C   UNL d   1       3.140  -3.123   0.323  0.00  0.00     0.111 A 
ATOM     12  HN  UNL d   1       3.508  -5.182   0.042  1.00  0.00     0.186 HD
ATOM     13  C   UNL d   1       1.986  -2.348   0.469  0.00  0.00     0.068 A 
ENDBRANCH   1   7
BRANCH   3  14
ATOM     14  C   UNL d   1      -4.005  -3.276   0.254  0.00  0.00     0.037 A 
ATOM     15  C   UNL d   1      -4.378  -4.104  -0.809  0.00  0.00     0.053 A 
ATOM     16  C   UNL d   1      -5.668  -4.633  -0.861  0.00  0.00     0.036 A 
ATOM     17 CL   UNL d   1      -6.131  -5.634  -2.183  0.00  0.00    -0.084 Cl
ATOM     18  C   UNL d   1      -6.590  -4.360   0.148  0.00  0.00     0.024 A 
ATOM     19  C   UNL d   1      -6.230  -3.516   1.197  0.00  0.00     0.004 A 
ATOM     20  C   UNL d   1      -4.952  -2.951   1.234  0.00  0.00     0.029 A 
ENDBRANCH   3  14
TORSDOF 2
