REMARK  8 active torsions:
REMARK  status: ('A' for Active; 'I' for Inactive)
REMARK    1  A    between atoms: S_2  and  C_1 
REMARK    2  A    between atoms: N_8  and  S_2 
REMARK    3  A    between atoms: C_7  and  C_3 
REMARK    4  A    between atoms: C_11  and  N_4 
REMARK    5  A    between atoms: C_12  and  C_5 
REMARK    6  A    between atoms: O_16  and  C_7 
REMARK    7  A    between atoms: C_15  and  N_8 
REMARK    8  A    between atoms: C_21  and  O_16 
ROOT
ATOM      1  C   UNL d   1      -0.265  -1.235  -0.132  0.00  0.00     0.121 A 
ATOM      2  C   UNL d   1       1.071  -0.737  -0.119  0.00  0.00     0.087 A 
ATOM      3  N   UNL d   1      -0.365   1.012  -0.018  0.00  0.00    -0.312 N 
ATOM      4  C   UNL d   1      -1.151  -0.157  -0.021  0.00  0.00     0.074 A 
ATOM      5  C   UNL d   1       0.980   0.646  -0.028  0.00  0.00     0.031 A 
ATOM      6  C   UNL d   1       2.110   1.620   0.121  0.00  0.00     0.070 C 
ENDROOT
BRANCH   1   7
ATOM      7  S   UNL d   1      -0.666  -2.917  -0.355  0.00  0.00     0.249 S 
ATOM      8  O   UNL d   1       0.437  -3.449  -1.132  0.00  0.00    -0.205 OA
ATOM      9  O   UNL d   1      -0.999  -3.384   0.968  0.00  0.00    -0.205 OA
BRANCH   7  10
ATOM     10  N   UNL d   1      -2.018  -3.010  -1.379  0.00  0.00    -0.181 NA
ATOM     11  H   UNL d   1      -1.770  -2.559  -2.260  0.00  0.00     0.146 HD
BRANCH  10  12
ATOM     12  C   UNL d   1      -2.510  -4.336  -1.600  0.00  0.00     0.022 A 
ATOM     13  C   UNL d   1      -3.675  -4.735  -0.950  0.00  0.00     0.024 A 
ATOM     14  C   UNL d   1      -4.206  -6.003  -1.193  0.00  0.00     0.002 A 
ATOM     15  C   UNL d   1      -3.561  -6.876  -2.070  0.00  0.00     0.000 A 
ATOM     16  C   UNL d   1      -2.375  -6.488  -2.695  0.00  0.00     0.002 A 
ATOM     17  C   UNL d   1      -1.847  -5.217  -2.459  0.00  0.00     0.024 A 
ENDBRANCH  10  12
ENDBRANCH   7  10
ENDBRANCH   1   7
BRANCH   2  18
ATOM     18  C   UNL d   1       2.336  -1.467  -0.234  0.00  0.00     0.296 C 
ATOM     19  O   UNL d   1       3.264  -1.054  -0.922  0.00  0.00    -0.259 OA
BRANCH  18  20
ATOM     20  O   UNL d   1       2.370  -2.607   0.506  0.00  0.00    -0.318 OA
BRANCH  20  21
ATOM     21  C   UNL d   1       3.434  -3.521   0.191  0.00  0.00     0.174 C 
ATOM     22  C   UNL d   1       4.388  -3.642   1.361  0.00  0.00     0.034 C 
ENDBRANCH  20  21
ENDBRANCH  18  20
ENDBRANCH   2  18
BRANCH   4  23
ATOM     23  C   UNL d   1      -2.630  -0.172  -0.034  0.00  0.00    -0.007 A 
ATOM     24  C   UNL d   1      -3.361   0.612  -0.942  0.00  0.00     0.014 A 
ATOM     25  C   UNL d   1      -4.756   0.668  -0.885  0.00  0.00     0.001 A 
ATOM     26  C   UNL d   1      -5.447  -0.107   0.042  0.00  0.00     0.000 A 
ATOM     27  C   UNL d   1      -4.741  -0.931   0.915  0.00  0.00     0.001 A 
ATOM     28  C   UNL d   1      -3.343  -0.953   0.887  0.00  0.00     0.014 A 
ENDBRANCH   4  23
BRANCH   3  29
ATOM     29  C   UNL d   1      -0.836   2.365  -0.041  0.00  0.00     0.040 A 
ATOM     30  C   UNL d   1      -1.886   2.779   0.788  0.00  0.00     0.030 A 
ATOM     31  C   UNL d   1      -2.373   4.087   0.698  0.00  0.00     0.002 A 
ATOM     32  C   UNL d   1      -1.807   4.989  -0.202  0.00  0.00     0.000 A 
ATOM     33  C   UNL d   1      -0.753   4.588  -1.018  0.00  0.00     0.002 A 
ATOM     34  C   UNL d   1      -0.270   3.280  -0.943  0.00  0.00     0.030 A 
ENDBRANCH   3  29
TORSDOF 8
