REMARK  5 active torsions:
REMARK  status: ('A' for Active; 'I' for Inactive)
REMARK    1  A    between atoms: C_14  and  C_1 
REMARK    2  A    between atoms: C_2  and  C_3 
REMARK    3  A    between atoms: C_15  and  C_4 
REMARK    4  A    between atoms: N_23  and  C_5 
REMARK    5  A    between atoms: C_11  and  N_19 
REMARK       I    between atoms: N_19  and  C_20 
REMARK       I    between atoms: C_20  and  N_23 
ROOT
ATOM      1  C   UNL d   1       1.454   1.438   0.180  0.00  0.00     0.107 C 
ATOM      2  S   UNL d   1       1.227  -0.035   1.061  0.00  0.00    -0.032 SA
ATOM      3  C   UNL d   1       2.338  -0.777   0.011  0.00  0.00     0.169 C 
ATOM      4  N   UNL d   1       2.328   1.306  -0.800  0.00  0.00    -0.291 N 
ATOM      5  HN  UNL d   1       2.548   2.048  -1.464  1.00  0.00     0.187 HD
ATOM      6  N   UNL d   1       2.918   0.044  -0.830  0.00  0.00    -0.279 N 
ATOM      7  HN  UNL d   1       3.703  -0.210  -1.431  1.00  0.00     0.189 HD
ENDROOT
BRANCH   3   8
ATOM      8  N   UNL d   1       2.563  -2.126   0.116  0.00  0.00    -0.292 N 
ATOM      9  C   UNL d   1       1.590  -3.090  -0.049  0.00  0.00     0.304 C 
ATOM     10  N   UNL d   1       0.308  -2.612  -0.281  0.00  0.00    -0.206 NA
ATOM     11  O   UNL d   1       1.889  -4.277  -0.051  0.00  0.00    -0.253 OA
ATOM     12  H   UNL d   1       0.384  -1.790  -0.870  0.00  0.00     0.138 HD
ATOM     13  H   UNL d   1       3.468  -2.456  -0.196  0.00  0.00     0.172 HD
BRANCH  10  14
ATOM     14  C   UNL d   1      -0.689  -3.432  -0.795  0.00  0.00     0.078 A 
ATOM     15  C   UNL d   1      -0.941  -3.881  -2.139  0.00  0.00     0.092 A 
ATOM     16  N   UNL d   1      -2.182  -4.404  -2.191  0.00  0.00    -0.258 N 
ATOM     17  O   UNL d   1      -2.698  -4.366  -0.921  0.00  0.00    -0.240 OA
ATOM     18  HN  UNL d   1      -2.651  -4.763  -3.023  1.00  0.00     0.195 HD
ATOM     19  C   UNL d   1      -1.818  -3.759  -0.081  0.00  0.00     0.096 A 
ATOM     20  C   UNL d   1      -2.304  -3.531   1.289  0.00  0.00     0.081 C 
BRANCH  15  21
ATOM     21  C   UNL d   1      -0.100  -3.831  -3.357  0.00  0.00     0.038 A 
ATOM     22  C   UNL d   1      -0.080  -4.902  -4.286  0.00  0.00     0.048 A 
ATOM     23 CL   UNL d   1      -1.070  -6.323  -4.167  0.00  0.00    -0.083 Cl
ATOM     24  C   UNL d   1       0.766  -4.882  -5.410  0.00  0.00     0.025 A 
ATOM     25  C   UNL d   1       1.653  -3.835  -5.613  0.00  0.00     0.003 A 
ATOM     26  C   UNL d   1       1.634  -2.759  -4.738  0.00  0.00     0.025 A 
ATOM     27  C   UNL d   1       0.725  -2.729  -3.666  0.00  0.00     0.048 A 
ATOM     28 CL   UNL d   1       0.572  -1.182  -2.903  0.00  0.00    -0.083 Cl
ENDBRANCH  15  21
ENDBRANCH  10  14
ENDBRANCH   3   8
BRANCH   1  29
ATOM     29  C   UNL d   1       0.767   2.726   0.540  0.00  0.00     0.060 A 
ATOM     30  C   UNL d   1       1.020   4.095   0.152  0.00  0.00     0.084 A 
ATOM     31  N   UNL d   1       0.187   4.898   0.843  0.00  0.00    -0.259 N 
ATOM     32  O   UNL d   1      -0.655   4.108   1.562  0.00  0.00    -0.241 OA
ATOM     33  HN  UNL d   1       0.189   5.918   0.830  1.00  0.00     0.195 HD
ATOM     34  C   UNL d   1      -0.319   2.810   1.398  0.00  0.00     0.088 A 
ATOM     35  C   UNL d   1      -1.183   1.868   2.142  0.00  0.00     0.080 C 
BRANCH  30  36
ATOM     36  C   UNL d   1       1.995   4.767  -0.733  0.00  0.00     0.037 A 
ATOM     37  C   UNL d   1       1.586   5.857  -1.553  0.00  0.00     0.048 A 
ATOM     38 CL   UNL d   1      -0.071   6.346  -1.763  0.00  0.00    -0.083 Cl
ATOM     39  C   UNL d   1       2.514   6.639  -2.264  0.00  0.00     0.025 A 
ATOM     40  C   UNL d   1       3.862   6.318  -2.242  0.00  0.00     0.003 A 
ATOM     41  C   UNL d   1       4.286   5.235  -1.481  0.00  0.00     0.025 A 
ATOM     42  C   UNL d   1       3.377   4.498  -0.697  0.00  0.00     0.048 A 
ATOM     43 CL   UNL d   1       4.114   3.390   0.411  0.00  0.00    -0.083 Cl
ENDBRANCH  30  36
ENDBRANCH   1  29
TORSDOF 5
