REMARK  3 active torsions:
REMARK  status: ('A' for Active; 'I' for Inactive)
REMARK    1  A    between atoms: N_8  and  C_1 
REMARK       I    between atoms: C_9  and  N_8 
REMARK    2  A    between atoms: C_13  and  C_9 
REMARK    3  A    between atoms: C_15  and  C_16 
ROOT
ATOM      1  N   UNL d   1       4.606   1.397   1.273  0.00  0.00    -0.303 N 
ATOM      2  C   UNL d   1       4.520   0.804   0.012  0.00  0.00     0.257 C 
ATOM      3  O   UNL d   1       4.242   1.373  -1.036  0.00  0.00    -0.267 OA
ATOM      4  H   UNL d   1       4.724   0.784   2.066  0.00  0.00     0.171 HD
ENDROOT
BRANCH   1   5
ATOM      5  C   UNL d   1       4.602   2.722   1.674  0.00  0.00     0.155 C 
ATOM      6  S   UNL d   1       4.374   3.927   0.444  0.00  0.00    -0.010 SA
ATOM      7  C   UNL d   1       5.297   5.223   1.156  0.00  0.00     0.235 C 
ATOM      8  O   UNL d   1       5.913   6.015   0.450  0.00  0.00    -0.279 OA
ATOM      9  C   UNL d   1       5.169   5.277   2.576  0.00  0.00     0.089 A 
ATOM     10  C   UNL d   1       4.868   4.221   3.391  0.00  0.00     0.056 A 
ATOM     11  S   UNL d   1       5.384   6.721   3.449  0.00  0.00    -0.095 SA
ATOM     12  N   UNL d   1       4.761   2.898   2.950  0.00  0.00    -0.335 N 
ATOM     13  C   UNL d   1       4.761   4.591   4.755  0.00  0.00     0.038 A 
ATOM     14  HN  UNL d   1       4.806   2.112   3.598  1.00  0.00     0.168 HD
ATOM     15  C   UNL d   1       5.005   5.939   4.928  0.00  0.00     0.053 A 
ENDBRANCH   1   5
BRANCH   2  16
ATOM     16  C   UNL d   1       4.712  -0.672  -0.013  0.00  0.00     0.032 A 
ATOM     17  C   UNL d   1       4.017  -1.425  -0.964  0.00  0.00     0.017 A 
ATOM     18  C   UNL d   1       4.096  -2.822  -0.952  0.00  0.00     0.009 A 
ATOM     19  C   UNL d   1       4.873  -3.502   0.004  0.00  0.00    -0.051 A 
ATOM     20  C   UNL d   1       5.630  -2.719   0.894  0.00  0.00     0.009 A 
ATOM     21  C   UNL d   1       5.557  -1.322   0.886  0.00  0.00     0.017 A 
BRANCH  19  22
ATOM     22  C   UNL d   1       4.850  -5.040   0.080  0.00  0.00    -0.024 C 
ATOM     23  C   UNL d   1       5.740  -5.607   1.209  0.00  0.00     0.019 C 
ATOM     24  C   UNL d   1       3.406  -5.516   0.358  0.00  0.00     0.019 C 
ATOM     25  C   UNL d   1       5.334  -5.661  -1.246  0.00  0.00     0.019 C 
ENDBRANCH  19  22
ENDBRANCH   2  16
TORSDOF 3
