REMARK  5 active torsions:
REMARK  status: ('A' for Active; 'I' for Inactive)
REMARK    1  A    between atoms: C_5  and  C_1 
REMARK    2  A    between atoms: C_6  and  C_2 
REMARK       I    between atoms: N_7  and  C_5 
REMARK    3  A    between atoms: C_11  and  N_10 
REMARK    4  A    between atoms: C_18  and  C_11 
REMARK    5  A    between atoms: C_19  and  C_11 
ROOT
ATOM      1  C   UNL d   1       0.344  -2.680   0.333  0.00  0.00     0.258 C 
ATOM      2  N   UNL d   1      -0.404  -3.801  -0.063  0.00  0.00    -0.344 N 
ATOM      3  N   UNL d   1      -3.017  -5.204  -0.053  0.00  0.00     0.105 N 
ATOM      4  O   UNL d   1       0.385  -1.699  -0.405  0.00  0.00    -0.267 OA
ATOM      5  C   UNL d   1      -1.277  -3.714  -1.241  0.00  0.00     0.156 C 
ATOM      6  C   UNL d   1      -0.544  -5.084   0.619  0.00  0.00     0.156 C 
ATOM      7  C   UNL d   1      -2.022  -5.285   1.045  0.00  0.00     0.293 C 
ATOM      8  C   UNL d   1      -2.748  -3.973  -0.844  0.00  0.00     0.293 C 
ENDROOT
BRANCH   1   9
ATOM      9  C   UNL d   1       1.065  -2.663   1.608  0.00  0.00     0.092 C 
ATOM     10  C   UNL d   1       2.361  -2.081   1.933  0.00  0.00     0.085 C 
ATOM     11  N   UNL d   1       2.620  -2.254   3.244  0.00  0.00    -0.259 N 
ATOM     12  O   UNL d   1       1.544  -2.865   3.792  0.00  0.00    -0.241 OA
ATOM     13  HN  UNL d   1       3.471  -1.975   3.733  1.00  0.00     0.195 HD
ATOM     14  C   UNL d   1       0.585  -3.030   2.860  0.00  0.00     0.090 C 
ATOM     15  C   UNL d   1      -0.692  -3.479   3.448  0.00  0.00     0.080 C 
BRANCH  10  16
ATOM     16  C   UNL d   1       3.343  -1.275   1.179  0.00  0.00     0.015 A 
ATOM     17  C   UNL d   1       4.735  -1.369   1.419  0.00  0.00     0.046 A 
ATOM     18 CL   UNL d   1       5.470  -2.661   2.316  0.00  0.00    -0.083 Cl
ATOM     19  C   UNL d   1       5.620  -0.399   0.924  0.00  0.00     0.025 A 
ATOM     20  C   UNL d   1       5.151   0.649   0.138  0.00  0.00     0.002 A 
ATOM     21  C   UNL d   1       3.798   0.721  -0.165  0.00  0.00     0.001 A 
ATOM     22  C   UNL d   1       2.902  -0.218   0.365  0.00  0.00     0.015 A 
ENDBRANCH  10  16
ENDBRANCH   1   9
BRANCH   3  23
ATOM     23  C   UNL d   1      -3.082  -6.473  -0.828  0.00  0.00     0.289 C 
BRANCH  23  24
ATOM     24  C   UNL d   1      -3.481  -7.660   0.071  0.00  0.00    -0.021 A 
ATOM     25  C   UNL d   1      -4.696  -7.668   0.776  0.00  0.00     0.010 A 
ATOM     26  C   UNL d   1      -5.050  -8.746   1.590  0.00  0.00     0.001 A 
ATOM     27  C   UNL d   1      -4.187  -9.832   1.718  0.00  0.00     0.000 A 
ATOM     28  C   UNL d   1      -2.969  -9.835   1.039  0.00  0.00     0.001 A 
ATOM     29  C   UNL d   1      -2.618  -8.760   0.219  0.00  0.00     0.010 A 
ENDBRANCH  23  24
BRANCH  23  30
ATOM     30  C   UNL d   1      -3.997  -6.440  -2.057  0.00  0.00    -0.021 A 
ATOM     31  C   UNL d   1      -3.637  -7.182  -3.197  0.00  0.00     0.010 A 
ATOM     32  C   UNL d   1      -4.438  -7.170  -4.338  0.00  0.00     0.001 A 
ATOM     33  C   UNL d   1      -5.615  -6.422  -4.359  0.00  0.00     0.000 A 
ATOM     34  C   UNL d   1      -6.004  -5.709  -3.227  0.00  0.00     0.001 A 
ATOM     35  C   UNL d   1      -5.211  -5.732  -2.079  0.00  0.00     0.010 A 
ENDBRANCH  23  30
ENDBRANCH   3  23
TORSDOF 5
