REMARK  7 active torsions:
REMARK  status: ('A' for Active; 'I' for Inactive)
REMARK    1  A    between atoms: N_2  and  C_1 
REMARK    2  A    between atoms: O_8  and  C_3 
REMARK    3  A    between atoms: C_7  and  C_5 
REMARK    4  A    between atoms: O_17  and  C_6 
REMARK    5  A    between atoms: C_9  and  O_8 
REMARK    6  A    between atoms: C_16  and  C_9 
REMARK    7  A    between atoms: C_18  and  C_16 
ROOT
ATOM      1  C   UNL d   1       1.507  -0.032   0.322  0.00  0.00     0.140 A 
ATOM      2  C   UNL d   1       0.750  -1.221   0.250  0.00  0.00     0.145 A 
ATOM      3  C   UNL d   1       0.911   1.233   0.243  0.00  0.00     0.048 A 
ATOM      4  C   UNL d   1      -0.478   1.343   0.125  0.00  0.00    -0.029 A 
ATOM      5  C   UNL d   1      -0.636  -1.123   0.084  0.00  0.00     0.105 A 
ATOM      6  C   UNL d   1      -1.224   0.156   0.021  0.00  0.00     0.049 A 
ENDROOT
BRANCH   2   7
ATOM      7  O   UNL d   1       1.330  -2.467   0.549  0.00  0.00    -0.273 OA
BRANCH   7   8
ATOM      8  C   UNL d   1       2.421  -2.882  -0.221  0.00  0.00     0.268 C 
ATOM      9  O   UNL d   1       2.701  -2.445  -1.327  0.00  0.00    -0.265 OA
BRANCH   8  10
ATOM     10  C   UNL d   1       3.240  -3.865   0.582  0.00  0.00     0.150 C 
BRANCH  10  11
ATOM     11  C   UNL d   1       3.171  -5.282   0.084  0.00  0.00    -0.049 A 
ATOM     12  C   UNL d   1       3.691  -5.622  -1.171  0.00  0.00     0.007 A 
ATOM     13  C   UNL d   1       3.665  -6.946  -1.609  0.00  0.00     0.001 A 
ATOM     14  C   UNL d   1       3.121  -7.940  -0.797  0.00  0.00     0.000 A 
ATOM     15  C   UNL d   1       2.602  -7.612   0.453  0.00  0.00     0.001 A 
ATOM     16  C   UNL d   1       2.626  -6.289   0.893  0.00  0.00     0.007 A 
ENDBRANCH  10  11
ENDBRANCH   8  10
ENDBRANCH   7   8
ENDBRANCH   2   7
BRANCH   1  17
ATOM     17  N   UNL d   1       2.929  -0.054   0.625  0.00  0.00    -0.113 N 
ATOM     18  O   UNL d   1       3.297  -0.744   1.586  0.00  0.00    -0.532 OA
ATOM     19  O   UNL d   1       3.673   0.647  -0.076  0.00  0.00    -0.532 OA
ENDBRANCH   1  17
BRANCH   5  20
ATOM     20  O   UNL d   1      -1.577  -2.113   0.024  0.00  0.00    -0.353 OA
ATOM     21  C   UNL d   1      -1.175  -3.473   0.015  0.00  0.00     0.210 C 
ENDBRANCH   5  20
BRANCH   4  22
ATOM     22  C   UNL d   1      -1.190   2.676   0.230  0.00  0.00     0.141 C 
ATOM     23  S   UNL d   1      -0.593   3.927  -0.941  0.00  0.00    -0.148 SA
ATOM     24  C   UNL d   1      -1.019   5.344   0.098  0.00  0.00     0.085 C 
ATOM     25  C   UNL d   1      -0.544   5.025   1.502  0.00  0.00     0.085 C 
ATOM     26  S   UNL d   1      -1.078   3.344   1.935  0.00  0.00    -0.148 SA
ENDBRANCH   4  22
TORSDOF 7
