REMARK  2 active torsions:
REMARK  status: ('A' for Active; 'I' for Inactive)
REMARK    1  A    between atoms: C_5  and  C_1 
REMARK    2  A    between atoms: C_8  and  C_6 
ROOT
ATOM      1  C   UNL d   1      -0.111   1.032   0.022  0.00  0.00     0.161 A 
ATOM      2  N   UNL d   1      -1.245   0.361  -0.068  0.00  0.00    -0.343 N 
ATOM      3  HN  UNL d   1      -2.193   0.734  -0.117  1.00  0.00     0.167 HD
ATOM      4  O   UNL d   1       1.002   0.235   0.061  0.00  0.00    -0.291 OA
ATOM      5  C   UNL d   1       0.519  -1.046   0.001  0.00  0.00     0.103 A 
ATOM      6  C   UNL d   1      -0.852  -0.953  -0.082  0.00  0.00     0.128 A 
ENDROOT
BRANCH   1   7
ATOM      7  C   UNL d   1       0.083   2.474   0.130  0.00  0.00     0.054 A 
ATOM      8  C   UNL d   1       1.345   3.077   0.142  0.00  0.00     0.130 A 
ATOM      9  F   UNL d   1       2.465   2.347   0.029  0.00  0.00    -0.205 F 
ATOM     10  C   UNL d   1       1.486   4.460   0.271  0.00  0.00     0.043 A 
ATOM     11  C   UNL d   1       0.357   5.269   0.389  0.00  0.00     0.003 A 
ATOM     12  C   UNL d   1      -0.910   4.692   0.371  0.00  0.00     0.001 A 
ATOM     13  C   UNL d   1      -1.045   3.306   0.241  0.00  0.00     0.019 A 
ENDBRANCH   1   7
BRANCH   5  14
ATOM     14  C   UNL d   1       1.489  -2.131   0.064  0.00  0.00    -0.001 A 
ATOM     15  C   UNL d   1       2.870  -1.878   0.071  0.00  0.00     0.016 A 
ATOM     16  C   UNL d   1       3.792  -2.928   0.161  0.00  0.00     0.024 A 
ATOM     17  C   UNL d   1       3.341  -4.241   0.245  0.00  0.00     0.034 A 
ATOM     18  C   UNL d   1       1.976  -4.516   0.231  0.00  0.00     0.024 A 
ATOM     19 CL   UNL d   1       4.471  -5.531   0.374  0.00  0.00    -0.084 Cl
ATOM     20  C   UNL d   1       1.056  -3.465   0.139  0.00  0.00     0.016 A 
ENDBRANCH   5  14
TORSDOF 2
