REMARK  6 active torsions:
REMARK  status: ('A' for Active; 'I' for Inactive)
REMARK    1  A    between atoms: N_3  and  C_2 
REMARK    2  A    between atoms: O_22  and  C_9 
REMARK    3  A    between atoms: O_23  and  C_10 
REMARK    4  A    between atoms: C_11  and  C_17 
REMARK    5  A    between atoms: O_21  and  C_11 
REMARK    6  A    between atoms: C_24  and  O_21 
ROOT
ATOM      1  C   UNL d   1      -1.810   0.423  -0.667  0.00  0.00     0.037 A 
ATOM      2  C   UNL d   1      -1.249   1.455   0.126  0.00  0.00     0.117 A 
ATOM      3  C   UNL d   1      -1.845  -0.861  -0.116  0.00  0.00     0.050 A 
ATOM      4  C   UNL d   1      -2.409   0.624  -1.929  0.00  0.00     0.057 A 
ATOM      5  N   UNL d   1      -0.736   1.186   1.341  0.00  0.00    -0.338 N 
ATOM      6  HN  UNL d   1      -0.325   1.918   1.921  1.00  0.00     0.168 HD
ATOM      7  C   UNL d   1      -2.518  -1.865  -0.826  0.00  0.00     0.070 A 
ATOM      8  C   UNL d   1      -3.045  -0.384  -2.660  0.00  0.00     0.102 A 
ATOM      9  C   UNL d   1      -3.135  -1.644  -2.078  0.00  0.00     0.103 A 
ATOM     10  N   UNL d   1      -1.320  -1.126   1.088  0.00  0.00    -0.351 N 
ATOM     11  HN  UNL d   1      -1.322  -2.069   1.478  1.00  0.00     0.166 HD
ATOM     12  C   UNL d   1      -0.789  -0.089   1.756  0.00  0.00     0.182 A 
ENDROOT
BRANCH   2  13
ATOM     13  N   UNL d   1      -1.328   2.793  -0.278  0.00  0.00    -0.366 N 
ATOM     14  C   UNL d   1      -1.314   3.788   0.796  0.00  0.00     0.125 C 
ATOM     15  C   UNL d   1      -1.961   5.071   0.258  0.00  0.00     0.034 C 
ATOM     16  C   UNL d   1      -1.337   5.548  -1.067  0.00  0.00     0.088 C 
ATOM     17  C   UNL d   1      -1.247   4.382  -2.070  0.00  0.00     0.034 C 
ATOM     18  C   UNL d   1      -0.530   3.181  -1.440  0.00  0.00     0.125 C 
BRANCH  16  19
ATOM     19  C   UNL d   1       0.040   6.185  -0.925  0.00  0.00     0.263 C 
ATOM     20  O   UNL d   1       0.855   6.229  -1.832  0.00  0.00    -0.265 OA
BRANCH  19  21
ATOM     21  O   UNL d   1       0.228   6.731   0.304  0.00  0.00    -0.322 OA
BRANCH  21  22
ATOM     22  C   UNL d   1       1.509   7.345   0.507  0.00  0.00     0.174 C 
ATOM     23  C   UNL d   1       2.545   6.292   0.861  0.00  0.00     0.034 C 
ENDBRANCH  21  22
ENDBRANCH  19  21
ENDBRANCH  16  19
ENDBRANCH   2  13
BRANCH   8  24
ATOM     24  O   UNL d   1      -3.535   0.126  -3.822  0.00  0.00    -0.353 OA
ATOM     25  C   UNL d   1      -4.151  -0.693  -4.788  0.00  0.00     0.210 C 
ENDBRANCH   8  24
BRANCH   9  26
ATOM     26  O   UNL d   1      -4.005  -2.615  -2.497  0.00  0.00    -0.353 OA
ATOM     27  C   UNL d   1      -3.530  -3.445  -3.551  0.00  0.00     0.210 C 
ENDBRANCH   9  26
TORSDOF 6
