REMARK  1 active torsions:
REMARK  status: ('A' for Active; 'I' for Inactive)
REMARK    1  A    between atoms: N_2  and  C_1 
REMARK       I    between atoms: C_3  and  N_2 
ROOT
ATOM      1  C   UNL d   1       0.907   1.118  -0.018  0.00  0.00     0.041 A 
ATOM      2  C   UNL d   1       1.482  -0.163  -0.075  0.00  0.00    -0.035 A 
ATOM      3  C   UNL d   1      -0.502   1.225  -0.015  0.00  0.00     0.037 A 
ATOM      4  C   UNL d   1       0.633  -1.290  -0.028  0.00  0.00     0.009 A 
ATOM      5  C   UNL d   1      -1.337   0.100   0.001  0.00  0.00    -0.060 A 
ATOM      6  C   UNL d   1      -0.755  -1.163   0.010  0.00  0.00     0.007 A 
ATOM      7  C   UNL d   1       2.948  -0.451  -0.225  0.00  0.00     0.050 C 
ATOM      8  C   UNL d   1      -2.829   0.240   0.013  0.00  0.00     0.048 C 
ENDROOT
BRANCH   1   9
ATOM      9  N   UNL d   1       1.582   2.363  -0.004  0.00  0.00    -0.327 N 
ATOM     10  C   UNL d   1       2.861   2.667   0.418  0.00  0.00     0.218 C 
ATOM     11  O   UNL d   1       3.682   1.915   0.929  0.00  0.00    -0.274 OA
ATOM     12  C   UNL d   1       3.203   4.124   0.204  0.00  0.00     0.117 C 
ATOM     13  H   UNL d   1       0.983   3.165  -0.148  0.00  0.00     0.169 HD
ENDBRANCH   1   9
TORSDOF 1
