REMARK  4 active torsions:
REMARK  status: ('A' for Active; 'I' for Inactive)
REMARK    1  A    between atoms: C_6  and  C_1 
REMARK    2  A    between atoms: C_8  and  C_2 
REMARK    3  A    between atoms: S_14  and  C_5 
REMARK    4  A    between atoms: O_17  and  C_8 
ROOT
ATOM      1  C   UNL d   1      -0.069  -1.413  -0.039  0.00  0.00     0.027 A 
ATOM      2  C   UNL d   1       1.321  -1.324  -0.027  0.00  0.00     0.094 A 
ATOM      3  C   UNL d   1      -0.682  -0.101  -0.047  0.00  0.00     0.081 A 
ATOM      4  S   UNL d   1       1.844   0.310   0.030  0.00  0.00    -0.075 SA
ATOM      5  C   UNL d   1       0.250   0.918  -0.025  0.00  0.00     0.063 A 
ATOM      6  C   UNL d   1      -2.092   0.166  -0.004  0.00  0.00     0.102 C 
ATOM      7  N   UNL d   1      -3.227   0.408   0.022  0.00  0.00    -0.191 NA
ENDROOT
BRANCH   1   8
ATOM      8  C   UNL d   1      -0.824  -2.733  -0.028  0.00  0.00     0.019 A 
ATOM      9  S   UNL d   1      -2.367  -2.967  -0.744  0.00  0.00    -0.082 SA
ATOM     10  C   UNL d   1      -2.404  -4.597  -0.302  0.00  0.00     0.052 A 
ATOM     11 BR   UNL d   1      -3.829  -5.740  -0.714  0.00  0.00    -0.043 Br
ATOM     12  C   UNL d   1      -1.292  -4.992   0.392  0.00  0.00     0.028 A 
ATOM     13  C   UNL d   1      -0.380  -3.905   0.561  0.00  0.00     0.021 A 
ENDBRANCH   1   8
BRANCH   5  14
ATOM     14  S   UNL d   1      -0.018   2.663   0.053  0.00  0.00    -0.126 SA
ATOM     15  C   UNL d   1      -0.842   2.991  -1.524  0.00  0.00     0.096 C 
ENDBRANCH   5  14
BRANCH   2  16
ATOM     16  C   UNL d   1       2.318  -2.374  -0.162  0.00  0.00     0.300 C 
ATOM     17  O   UNL d   1       2.180  -3.397  -0.825  0.00  0.00    -0.259 OA
BRANCH  16  18
ATOM     18  O   UNL d   1       3.426  -2.107   0.590  0.00  0.00    -0.322 OA
ATOM     19  C   UNL d   1       4.408  -3.147   0.563  0.00  0.00     0.213 C 
ENDBRANCH  16  18
ENDBRANCH   2  16
TORSDOF 4
