REMARK  7 active torsions:
REMARK  status: ('A' for Active; 'I' for Inactive)
REMARK    1  A    between atoms: N_2  and  C_1 
REMARK    2  A    between atoms: C_5  and  C_4 
REMARK       I    between atoms: N_7  and  C_5 
REMARK    3  A    between atoms: C_10  and  C_6 
REMARK    4  A    between atoms: C_8  and  N_7 
REMARK       I    between atoms: N_18  and  C_10 
REMARK    5  A    between atoms: C_20  and  N_18 
REMARK    6  A    between atoms: C_25  and  C_20 
REMARK    7  A    between atoms: C_21  and  C_25 
ROOT
ATOM      1  C   UNL d   1      -2.935  -0.540  -0.941  0.00  0.00     0.058 A 
ATOM      2  C   UNL d   1      -3.090  -1.589  -0.006  0.00  0.00     0.050 A 
ATOM      3  C   UNL d   1      -3.951   0.432  -1.052  0.00  0.00     0.019 A 
ATOM      4  C   UNL d   1      -4.245  -1.624   0.794  0.00  0.00     0.030 A 
ATOM      5  C   UNL d   1      -5.074   0.398  -0.224  0.00  0.00     0.001 A 
ATOM      6  C   UNL d   1      -5.222  -0.632   0.696  0.00  0.00     0.002 A 
ENDROOT
BRANCH   1   7
ATOM      7  C   UNL d   1      -1.781  -0.525  -1.901  0.00  0.00     0.253 C 
ATOM      8  O   UNL d   1      -1.118  -1.540  -2.094  0.00  0.00    -0.268 OA
ATOM      9  N   UNL d   1      -1.504   0.670  -2.538  0.00  0.00    -0.356 N 
ATOM     10  H   UNL d   1      -1.963   1.519  -2.241  0.00  0.00     0.162 HD
BRANCH   9  11
ATOM     11  C   UNL d   1      -0.476   0.771  -3.563  0.00  0.00     0.127 C 
BRANCH  11  12
ATOM     12  C   UNL d   1      -0.301   2.212  -4.047  0.00  0.00     0.058 C 
BRANCH  12  13
ATOM     13  C   UNL d   1       0.746   2.362  -5.119  0.00  0.00    -0.054 A 
ATOM     14  C   UNL d   1       0.406   2.266  -6.471  0.00  0.00     0.024 A 
ATOM     15  C   UNL d   1       1.402   2.434  -7.423  0.00  0.00     0.088 A 
ATOM     16  N   UNL d   1       2.694   2.681  -7.123  0.00  0.00    -0.375 N 
ATOM     17  C   UNL d   1       3.005   2.758  -5.811  0.00  0.00     0.088 A 
ATOM     18  HN  UNL d   1       3.400   2.804  -7.849  1.00  0.00     0.164 HD
ATOM     19  C   UNL d   1       2.083   2.603  -4.788  0.00  0.00     0.024 A 
ENDBRANCH  12  13
ENDBRANCH  11  12
ENDBRANCH   9  11
ENDBRANCH   1   7
BRANCH   2  20
ATOM     20  N   UNL d   1      -2.080  -2.569   0.179  0.00  0.00    -0.320 N 
ATOM     21  C   UNL d   1      -2.339  -3.912   0.390  0.00  0.00     0.280 C 
ATOM     22  O   UNL d   1      -3.470  -4.396   0.369  0.00  0.00    -0.265 OA
ATOM     23  H   UNL d   1      -1.163  -2.366  -0.211  0.00  0.00     0.169 HD
BRANCH  21  24
ATOM     24  C   UNL d   1      -1.171  -4.754   0.572  0.00  0.00     0.146 A 
ATOM     25  O   UNL d   1       0.056  -4.202   0.847  0.00  0.00    -0.283 OA
ATOM     26  C   UNL d   1       0.914  -5.255   1.011  0.00  0.00     0.215 A 
ATOM     27  C   UNL d   1       0.291  -6.454   0.827  0.00  0.00     0.066 A 
ATOM     28  C   UNL d   1      -1.065  -6.138   0.559  0.00  0.00     0.047 A 
BRANCH  26  29
ATOM     29  N   UNL d   1       2.275  -4.945   1.329  0.00  0.00    -0.090 N 
ATOM     30  O   UNL d   1       3.062  -5.896   1.372  0.00  0.00    -0.530 OA
ATOM     31  O   UNL d   1       2.554  -3.758   1.547  0.00  0.00    -0.530 OA
ENDBRANCH  26  29
ENDBRANCH  21  24
ENDBRANCH   2  20
TORSDOF 7
