REMARK  5 active torsions:
REMARK  status: ('A' for Active; 'I' for Inactive)
REMARK    1  A    between atoms: C_5  and  C_1 
REMARK       I    between atoms: N_9  and  C_1 
REMARK    2  A    between atoms: C_3  and  C_11 
REMARK    3  A    between atoms: O_13  and  C_5 
REMARK    4  A    between atoms: N_6  and  O_13 
REMARK    5  A    between atoms: N_15  and  N_9 
ROOT
ATOM      1  N   UNL d   1       0.649  -1.102  -3.419  0.00  0.00    -0.277 N 
ATOM      2  HN  UNL d   1      -0.367  -1.052  -3.492  1.00  0.00     0.193 HD
ATOM      3  C   UNL d   1       1.454  -1.349  -4.400  0.00  0.00     0.127 C 
ENDROOT
BRANCH   1   4
ATOM      4  O   UNL d   1       1.384  -0.914  -2.239  0.00  0.00    -0.272 OA
BRANCH   4   5
ATOM      5  C   UNL d   1       0.515  -1.171  -1.140  0.00  0.00     0.305 C 
BRANCH   5   6
ATOM      6  C   UNL d   1       1.170  -0.927   0.212  0.00  0.00     0.257 C 
ATOM      7  O   UNL d   1       0.596  -1.165   1.279  0.00  0.00    -0.270 OA
ATOM      8  N   UNL d   1       2.456  -0.410   0.159  0.00  0.00    -0.292 N 
ATOM      9  H   UNL d   1       2.931  -0.367  -0.743  0.00  0.00     0.183 HD
BRANCH   8  10
ATOM     10  N   UNL d   1       3.197  -0.249   1.350  0.00  0.00    -0.247 NA
ATOM     11  H   UNL d   1       2.648  -0.693   2.102  0.00  0.00     0.143 HD
ATOM     12  H   UNL d   1       3.183   0.744   1.595  0.00  0.00     0.143 HD
ENDBRANCH   8  10
ENDBRANCH   5   6
ENDBRANCH   4   5
ENDBRANCH   1   4
BRANCH   3  13
ATOM     13  C   UNL d   1       0.969  -1.668  -5.756  0.00  0.00     0.003 A 
ATOM     14  C   UNL d   1      -0.198  -1.139  -6.326  0.00  0.00     0.047 A 
ATOM     15  C   UNL d   1      -0.613  -1.574  -7.590  0.00  0.00     0.048 A 
ATOM     16 CL   UNL d   1      -1.146   0.098  -5.579  0.00  0.00    -0.083 Cl
ATOM     17  C   UNL d   1       0.136  -2.524  -8.281  0.00  0.00     0.035 A 
ATOM     18  C   UNL d   1       1.310  -3.034  -7.734  0.00  0.00     0.025 A 
ATOM     19 CL   UNL d   1      -0.393  -3.071  -9.823  0.00  0.00    -0.084 Cl
ATOM     20  C   UNL d   1       1.731  -2.604  -6.473  0.00  0.00     0.016 A 
ENDBRANCH   3  13
TORSDOF 5
