REMARK  4 active torsions:
REMARK  status: ('A' for Active; 'I' for Inactive)
REMARK    1  A    between atoms: C_3  and  C_1 
REMARK    2  A    between atoms: C_2  and  C_7 
REMARK    3  A    between atoms: O_15  and  C_3 
REMARK    4  A    between atoms: C_12  and  C_4 
ROOT
ATOM      1  C   UNL d   1       1.118   1.707  -1.097  0.00  0.00     0.120 C 
ATOM      2  C   UNL d   1       0.282   0.678  -0.852  0.00  0.00     0.040 C 
ATOM      3  C   UNL d   1       0.661   3.018  -1.409  0.00  0.00     0.105 C 
ATOM      4  N   UNL d   1       0.270   4.081  -1.660  0.00  0.00    -0.191 NA
ENDROOT
BRANCH   1   5
ATOM      5  C   UNL d   1       2.574   1.414  -1.045  0.00  0.00     0.303 C 
ATOM      6  O   UNL d   1       3.043   0.315  -0.785  0.00  0.00    -0.258 OA
BRANCH   5   7
ATOM      7  O   UNL d   1       3.304   2.522  -1.333  0.00  0.00    -0.322 OA
ATOM      8  C   UNL d   1       4.718   2.310  -1.326  0.00  0.00     0.213 C 
ENDBRANCH   5   7
ENDBRANCH   1   5
BRANCH   2   9
ATOM      9  C   UNL d   1      -1.180   0.755  -0.893  0.00  0.00    -0.035 A 
ATOM     10  C   UNL d   1      -1.856   0.502  -2.091  0.00  0.00     0.012 A 
ATOM     11  C   UNL d   1      -3.251   0.549  -2.135  0.00  0.00     0.017 A 
ATOM     12  C   UNL d   1      -3.993   0.846  -0.982  0.00  0.00     0.048 A 
ATOM     13  C   UNL d   1      -3.305   1.110   0.214  0.00  0.00     0.017 A 
ATOM     14  C   UNL d   1      -1.909   1.067   0.258  0.00  0.00     0.012 A 
BRANCH  12  15
ATOM     15  C   UNL d   1      -5.502   0.873  -1.011  0.00  0.00     0.417 C 
ATOM     16  F   UNL d   1      -6.028   0.605  -2.239  0.00  0.00    -0.166 F 
ATOM     17  F   UNL d   1      -6.053  -0.042  -0.165  0.00  0.00    -0.166 F 
ATOM     18  F   UNL d   1      -6.012   2.079  -0.640  0.00  0.00    -0.166 F 
ENDBRANCH  12  15
ENDBRANCH   2   9
TORSDOF 4
