REMARK  7 active torsions:
REMARK  status: ('A' for Active; 'I' for Inactive)
REMARK    1  A    between atoms: C_7  and  C_1 
REMARK    2  A    between atoms: O_20  and  C_8 
REMARK    3  A    between atoms: C_18  and  C_9 
REMARK    4  A    between atoms: O_21  and  C_10 
REMARK    5  A    between atoms: O_22  and  C_11 
REMARK    6  A    between atoms: C_14  and  O_16 
REMARK    7  A    between atoms: O_16  and  C_19 
ROOT
ATOM      1  C   UNL d   1       1.205   1.168   0.021  0.00  0.00     0.162 A 
ATOM      2  N   UNL d   1       1.570  -0.070   0.109  0.00  0.00    -0.331 N 
ATOM      3  HN  UNL d   1       2.515  -0.451   0.157  1.00  0.00     0.168 HD
ATOM      4  C   UNL d   1       0.373  -0.745   0.121  0.00  0.00     0.111 A 
ATOM      5  O   UNL d   1      -0.121   1.432  -0.002  0.00  0.00    -0.255 OA
ATOM      6  C   UNL d   1      -0.759   0.228   0.074  0.00  0.00     0.316 A 
ATOM      7  C   UNL d   1       0.286  -2.081   0.126  0.00  0.00     0.047 C 
ATOM      8  O   UNL d   1      -1.959   0.048   0.097  0.00  0.00    -0.257 OA
ENDROOT
BRANCH   1   9
ATOM      9  C   UNL d   1       2.095   2.339  -0.075  0.00  0.00     0.021 A 
ATOM     10  C   UNL d   1       3.479   2.135  -0.068  0.00  0.00     0.055 A 
ATOM     11  C   UNL d   1       4.372   3.211  -0.188  0.00  0.00     0.105 A 
ATOM     12  C   UNL d   1       3.868   4.528  -0.301  0.00  0.00     0.135 A 
ATOM     13  C   UNL d   1       2.466   4.720  -0.331  0.00  0.00     0.105 A 
ATOM     14  C   UNL d   1       1.594   3.630  -0.201  0.00  0.00     0.055 A 
BRANCH  11  15
ATOM     15  O   UNL d   1       5.731   3.033  -0.209  0.00  0.00    -0.353 OA
ATOM     16  C   UNL d   1       6.259   1.717  -0.104  0.00  0.00     0.210 C 
ENDBRANCH  11  15
BRANCH  12  17
ATOM     17  O   UNL d   1       4.611   5.679  -0.357  0.00  0.00    -0.351 OA
ATOM     18  C   UNL d   1       6.026   5.637  -0.294  0.00  0.00     0.210 C 
ENDBRANCH  12  17
BRANCH  13  19
ATOM     19  O   UNL d   1       1.799   5.919  -0.424  0.00  0.00    -0.353 OA
ATOM     20  C   UNL d   1       2.397   6.929  -1.230  0.00  0.00     0.210 C 
ENDBRANCH  13  19
ENDBRANCH   1   9
BRANCH   7  21
ATOM     21  C   UNL d   1      -0.947  -2.862   0.024  0.00  0.00    -0.034 A 
ATOM     22  C   UNL d   1      -1.405  -3.245  -1.242  0.00  0.00     0.014 A 
ATOM     23  C   UNL d   1      -2.578  -3.991  -1.377  0.00  0.00     0.038 A 
ATOM     24  C   UNL d   1      -3.284  -4.375  -0.241  0.00  0.00     0.079 A 
ATOM     25  C   UNL d   1      -2.841  -3.994   1.028  0.00  0.00     0.038 A 
ATOM     26  C   UNL d   1      -1.670  -3.239   1.161  0.00  0.00     0.014 A 
BRANCH  24  27
ATOM     27  O   UNL d   1      -4.504  -5.085  -0.286  0.00  0.00    -0.279 OA
BRANCH  27  28
ATOM     28  C   UNL d   1      -4.811  -5.979  -1.313  0.00  0.00     0.260 C 
ATOM     29  O   UNL d   1      -4.083  -6.318  -2.236  0.00  0.00    -0.265 OA
ATOM     30  C   UNL d   1      -6.199  -6.517  -1.118  0.00  0.00     0.126 C 
ENDBRANCH  27  28
ENDBRANCH  24  27
ENDBRANCH   7  21
TORSDOF 7
