REMARK  6 active torsions:
REMARK  status: ('A' for Active; 'I' for Inactive)
REMARK    1  A    between atoms: C_10  and  N_6 
REMARK    2  A    between atoms: C_9  and  N_16 
REMARK    3  A    between atoms: N_12  and  C_9 
REMARK    4  A    between atoms: C_11  and  C_10 
REMARK       I    between atoms: N_17  and  C_11 
REMARK    5  A    between atoms: C_13  and  N_12 
REMARK    6  A    between atoms: N_16  and  N_17 
ROOT
ATOM      1  C   UNL d   1       2.888   0.739  -0.076  0.00  0.00     0.257 C 
ATOM      2  N   UNL d   1       2.974  -0.535  -0.569  0.00  0.00    -0.266 N 
ATOM      3  O   UNL d   1       3.930   1.321   0.247  0.00  0.00    -0.270 OA
ATOM      4  H   UNL d   1       3.915  -0.873  -0.771  0.00  0.00     0.190 HD
ENDROOT
BRANCH   2   5
ATOM      5  N   UNL d   1       1.918  -1.317  -1.078  0.00  0.00    -0.273 N 
ATOM      6  H   UNL d   1       0.960  -0.997  -0.922  0.00  0.00     0.189 HD
BRANCH   5   7
ATOM      7  C   UNL d   1       2.125  -1.995  -2.275  0.00  0.00     0.191 C 
ATOM      8  S   UNL d   1       3.256  -1.523  -3.425  0.00  0.00    -0.039 SA
BRANCH   7   9
ATOM      9  N   UNL d   1       1.340  -3.137  -2.358  0.00  0.00    -0.330 N 
ATOM     10  H   UNL d   1       0.353  -3.057  -2.142  0.00  0.00     0.168 HD
BRANCH   9  11
ATOM     11  C   UNL d   1       1.799  -4.419  -2.753  0.00  0.00     0.073 A 
ATOM     12  C   UNL d   1       0.870  -5.386  -3.163  0.00  0.00     0.145 A 
ATOM     13  C   UNL d   1       1.280  -6.660  -3.550  0.00  0.00     0.086 A 
ATOM     14  F   UNL d   1      -0.436  -5.080  -3.205  0.00  0.00    -0.204 F 
ATOM     15  C   UNL d   1       2.629  -6.978  -3.496  0.00  0.00     0.119 A 
ATOM     16  C   UNL d   1       3.566  -6.056  -3.048  0.00  0.00     0.044 A 
ATOM     17  F   UNL d   1       3.038  -8.199  -3.864  0.00  0.00    -0.206 F 
ATOM     18  C   UNL d   1       3.148  -4.780  -2.670  0.00  0.00     0.036 A 
ENDBRANCH   9  11
ENDBRANCH   7   9
ENDBRANCH   5   7
ENDBRANCH   2   5
BRANCH   1  19
ATOM     19  C   UNL d   1       1.546   1.371   0.153  0.00  0.00     0.272 C 
BRANCH  19  20
ATOM     20  N   UNL d   1       0.876   1.607  -1.095  0.00  0.00    -0.194 N 
ATOM     21  N   UNL d   1       0.016   0.705  -1.617  0.00  0.00    -0.115 N 
ATOM     22  C   UNL d   1      -0.175   1.247  -2.829  0.00  0.00     0.709 A 
ATOM     23  HN  UNL d   1      -0.376  -0.143  -1.206  1.00  0.00     0.207 HD
ATOM     24  N   UNL d   1       0.483   2.444  -2.982  0.00  0.00    -0.113 N 
ATOM     25  N   UNL d   1      -0.907   0.728  -3.827  0.00  0.00    -0.215 N 
ATOM     26  N   UNL d   1       1.142   2.674  -1.857  0.00  0.00     0.011 NA
ATOM     27  HN  UNL d   1       0.466   3.043  -3.808  1.00  0.00     0.203 HD
ATOM     28  C   UNL d   1      -0.863   1.248  -5.179  0.00  0.00     0.141 C 
ATOM     29  C   UNL d   1      -1.581  -0.551  -3.747  0.00  0.00     0.141 C 
ATOM     30  C   UNL d   1      -2.022   0.529  -5.857  0.00  0.00     0.022 C 
ATOM     31  C   UNL d   1      -2.035  -0.834  -5.180  0.00  0.00     0.022 C 
ENDBRANCH  19  20
ENDBRANCH   1  19
TORSDOF 6
