REMARK  5 active torsions:
REMARK  status: ('A' for Active; 'I' for Inactive)
REMARK    1  A    between atoms: C_2  and  C_1 
REMARK    2  A    between atoms: S_4  and  C_1 
REMARK    3  A    between atoms: O_5  and  C_3 
REMARK    4  A    between atoms: C_9  and  S_4 
REMARK    5  A    between atoms: C_10  and  O_5 
ROOT
ATOM      1  C   UNL d   1       0.238   1.048   0.451  0.00  0.00     0.073 A 
ATOM      2  C   UNL d   1      -0.615   0.728   1.504  0.00  0.00     0.162 A 
ATOM      3  N   UNL d   1      -1.340   1.663   2.176  0.00  0.00    -0.346 N 
ATOM      4  HN  UNL d   1      -1.998   1.392   2.907  1.00  0.00     0.167 HD
ATOM      5  C   UNL d   1       0.403   2.409   0.141  0.00  0.00     0.022 A 
ATOM      6  C   UNL d   1      -1.164   2.955   1.848  0.00  0.00     0.090 A 
ATOM      7  C   UNL d   1      -0.295   3.375   0.861  0.00  0.00     0.018 A 
ENDROOT
BRANCH   1   8
ATOM      8  C   UNL d   1       0.895  -0.010  -0.347  0.00  0.00     0.228 C 
ATOM      9  O   UNL d   1       0.311  -1.041  -0.646  0.00  0.00    -0.279 OA
BRANCH   8  10
ATOM     10  S   UNL d   1       2.567   0.266  -0.830  0.00  0.00    -0.048 SA
BRANCH  10  11
ATOM     11  C   UNL d   1       2.470   0.591  -2.588  0.00  0.00     0.008 A 
ATOM     12  C   UNL d   1       3.478   1.391  -3.151  0.00  0.00     0.021 A 
ATOM     13  C   UNL d   1       3.501   1.664  -4.525  0.00  0.00     0.025 A 
ATOM     14  C   UNL d   1       2.514   1.133  -5.348  0.00  0.00     0.034 A 
ATOM     15  C   UNL d   1       1.508   0.335  -4.809  0.00  0.00     0.025 A 
ATOM     16 CL   UNL d   1       2.545   1.452  -7.038  0.00  0.00    -0.084 Cl
ATOM     17  C   UNL d   1       1.490   0.061  -3.433  0.00  0.00     0.021 A 
ENDBRANCH  10  11
ENDBRANCH   8  10
ENDBRANCH   1   8
BRANCH   2  18
ATOM     18  O   UNL d   1      -0.701  -0.594   1.931  0.00  0.00    -0.293 OA
BRANCH  18  19
ATOM     19  C   UNL d   1      -1.106  -0.816   3.232  0.00  0.00     0.077 A 
ATOM     20  C   UNL d   1      -2.042  -1.828   3.448  0.00  0.00     0.037 A 
ATOM     21  C   UNL d   1      -2.515  -2.075   4.739  0.00  0.00     0.003 A 
ATOM     22  C   UNL d   1      -2.044  -1.321   5.815  0.00  0.00     0.000 A 
ATOM     23  C   UNL d   1      -1.074  -0.343   5.608  0.00  0.00     0.003 A 
ATOM     24  C   UNL d   1      -0.587  -0.107   4.321  0.00  0.00     0.037 A 
ENDBRANCH  18  19
ENDBRANCH   2  18
TORSDOF 5
