REMARK  3 active torsions:
REMARK  status: ('A' for Active; 'I' for Inactive)
REMARK    1  A    between atoms: C_8  and  N_1 
REMARK    2  A    between atoms: C_2  and  C_9 
REMARK    3  A    between atoms: C_11  and  C_6 
ROOT
ATOM      1  C   UNL d   1      -1.653  -3.709  -3.640  0.00  0.00     0.158 A 
ATOM      2  N   UNL d   1      -2.108  -4.912  -3.346  0.00  0.00    -0.343 N 
ATOM      3  HN  UNL d   1      -2.062  -5.401  -2.453  1.00  0.00     0.167 HD
ATOM      4  O   UNL d   1      -1.867  -3.332  -4.938  0.00  0.00    -0.291 OA
ATOM      5  C   UNL d   1      -2.523  -4.392  -5.506  0.00  0.00     0.103 A 
ATOM      6  C   UNL d   1      -2.661  -5.349  -4.525  0.00  0.00     0.128 A 
ENDROOT
BRANCH   1   7
ATOM      7  C   UNL d   1      -0.975  -2.738  -2.785  0.00  0.00     0.015 A 
ATOM      8  C   UNL d   1      -0.738  -3.042  -1.434  0.00  0.00     0.018 A 
ATOM      9  C   UNL d   1      -0.091  -2.130  -0.594  0.00  0.00     0.037 A 
ATOM     10  C   UNL d   1       0.324  -0.895  -1.107  0.00  0.00     0.102 A 
ATOM     11  C   UNL d   1       0.096  -0.572  -2.449  0.00  0.00     0.037 A 
ATOM     12  C   UNL d   1      -0.551  -1.493  -3.279  0.00  0.00     0.018 A 
BRANCH  10  13
ATOM     13  N   UNL d   1       1.003   0.070  -0.233  0.00  0.00    -0.116 N 
ATOM     14  O   UNL d   1       1.350   1.151  -0.730  0.00  0.00    -0.532 OA
ATOM     15  O   UNL d   1       1.188  -0.253   0.949  0.00  0.00    -0.532 OA
ENDBRANCH  10  13
ENDBRANCH   1   7
BRANCH   5  16
ATOM     16  C   UNL d   1      -2.909  -4.256  -6.904  0.00  0.00    -0.001 A 
ATOM     17  C   UNL d   1      -2.608  -3.092  -7.631  0.00  0.00     0.016 A 
ATOM     18  C   UNL d   1      -3.012  -2.950  -8.963  0.00  0.00     0.024 A 
ATOM     19  C   UNL d   1      -3.719  -3.975  -9.582  0.00  0.00     0.034 A 
ATOM     20  C   UNL d   1      -4.017  -5.143  -8.885  0.00  0.00     0.024 A 
ATOM     21 CL   UNL d   1      -4.231  -3.798 -11.214  0.00  0.00    -0.084 Cl
ATOM     22  C   UNL d   1      -3.612  -5.282  -7.552  0.00  0.00     0.016 A 
ENDBRANCH   5  16
TORSDOF 3
