REMARK  1 active torsions:
REMARK  status: ('A' for Active; 'I' for Inactive)
REMARK    1  A    between atoms: C_7  and  N_4 
ROOT
ATOM      1  C   UNL d   1      -0.719  -1.230   1.729  0.00  0.00     0.218 C 
ATOM      2  C   UNL d   1       0.027  -2.439   2.191  0.00  0.00    -0.076 C 
ATOM      3  C   UNL d   1       0.644  -3.404   2.564  0.00  0.00     0.015 C 
ATOM      4  C   UNL d   1      -0.142  -0.009   2.474  0.00  0.00     0.063 C 
ATOM      5  C   UNL d   1      -2.177  -1.427   2.220  0.00  0.00     0.063 C 
ENDROOT
BRANCH   1   6
ATOM      6  N   UNL d   1      -0.690  -1.164   0.250  0.00  0.00     0.143 N 
ATOM      7  C   UNL d   1      -1.438  -0.102  -0.394  0.00  0.00     0.401 C 
ATOM      8  N   UNL d   1      -0.704   1.126  -0.368  0.00  0.00    -0.342 N 
ATOM      9  C   UNL d   1       0.645   1.174  -0.466  0.00  0.00     0.170 C 
ATOM     10  H   UNL d   1      -1.196   1.999  -0.505  0.00  0.00     0.163 HD
ATOM     11  N   UNL d   1       1.290  -0.008  -0.349  0.00  0.00    -0.342 N 
ATOM     12  S   UNL d   1       1.462   2.605  -0.644  0.00  0.00    -0.041 SA
ATOM     13  C   UNL d   1       0.608  -1.265  -0.391  0.00  0.00     0.401 C 
ATOM     14  H   UNL d   1       2.294   0.009  -0.465  0.00  0.00     0.163 HD
ENDBRANCH   1   6
TORSDOF 1
