REMARK  9 active torsions:
REMARK  status: ('A' for Active; 'I' for Inactive)
REMARK    1  A    between atoms: N_2  and  C_1 
REMARK    2  A    between atoms: C_3  and  C_1 
REMARK    3  A    between atoms: C_4  and  C_1 
REMARK    4  A    between atoms: N_7  and  C_1 
REMARK       I    between atoms: C_5  and  N_2 
REMARK    5  A    between atoms: C_6  and  C_5 
REMARK    6  A    between atoms: C_16  and  N_7 
REMARK    7  A    between atoms: O_21  and  C_9 
REMARK    8  A    between atoms: O_24  and  C_17 
REMARK    9  A    between atoms: C_26  and  O_21 
ROOT
ATOM      1  C   UNL d   1       1.319  -0.423  -0.401  0.00  0.00     0.306 C 
ENDROOT
BRANCH   1   2
ATOM      2  N   UNL d   1       0.665   0.210   0.752  0.00  0.00    -0.315 N 
ATOM      3  C   UNL d   1      -0.679   0.079   0.989  0.00  0.00     0.256 C 
ATOM      4  O   UNL d   1      -1.346  -0.571   0.192  0.00  0.00    -0.267 OA
ATOM      5  H   UNL d   1       1.315   0.572   1.432  0.00  0.00     0.165 HD
BRANCH   3   6
ATOM      6  C   UNL d   1      -1.271   0.737   2.211  0.00  0.00     0.065 A 
ATOM      7  C   UNL d   1      -2.671   0.707   2.429  0.00  0.00     0.084 A 
ATOM      8  C   UNL d   1      -3.209   1.339   3.556  0.00  0.00     0.038 A 
ATOM      9  C   UNL d   1      -2.381   1.990   4.471  0.00  0.00     0.003 A 
ATOM     10  C   UNL d   1      -1.008   2.022   4.266  0.00  0.00     0.001 A 
ATOM     11  C   UNL d   1      -0.454   1.407   3.142  0.00  0.00     0.020 A 
BRANCH   7  12
ATOM     12  O   UNL d   1      -3.428   0.015   1.528  0.00  0.00    -0.350 OA
BRANCH  12  13
ATOM     13  C   UNL d   1      -4.842   0.148   1.465  0.00  0.00     0.171 C 
ATOM     14  C   UNL d   1      -5.242   1.399   0.705  0.00  0.00     0.034 C 
ENDBRANCH  12  13
ENDBRANCH   7  12
ENDBRANCH   3   6
ENDBRANCH   1   2
BRANCH   1  15
ATOM     15  C   UNL d   1       0.831   0.046  -1.817  0.00  0.00     0.441 C 
ATOM     16  F   UNL d   1      -0.452  -0.188  -2.133  0.00  0.00    -0.166 F 
ATOM     17  F   UNL d   1       1.021   1.397  -1.930  0.00  0.00    -0.166 F 
ATOM     18  F   UNL d   1       1.593  -0.503  -2.801  0.00  0.00    -0.166 F 
ENDBRANCH   1  15
BRANCH   1  19
ATOM     19  C   UNL d   1       1.173  -1.971  -0.494  0.00  0.00     0.441 C 
ATOM     20  F   UNL d   1       1.139  -2.540   0.742  0.00  0.00    -0.166 F 
ATOM     21  F   UNL d   1       0.061  -2.389  -1.137  0.00  0.00    -0.166 F 
ATOM     22  F   UNL d   1       2.217  -2.541  -1.148  0.00  0.00    -0.166 F 
ENDBRANCH   1  19
BRANCH   1  23
ATOM     23  N   UNL d   1       2.695   0.167  -0.184  0.00  0.00    -0.349 N 
ATOM     24  H   UNL d   1       2.831   0.949  -0.827  0.00  0.00     0.162 HD
BRANCH  23  25
ATOM     25  C   UNL d   1       3.887  -0.396   0.212  0.00  0.00     0.030 A 
ATOM     26  C   UNL d   1       4.026  -1.492   1.063  0.00  0.00     0.032 A 
ATOM     27  C   UNL d   1       5.295  -1.933   1.483  0.00  0.00     0.039 A 
ATOM     28  C   UNL d   1       6.445  -1.264   1.071  0.00  0.00     0.068 A 
ATOM     29  C   UNL d   1       6.332  -0.185   0.209  0.00  0.00     0.039 A 
ATOM     30  C   UNL d   1       5.069   0.251  -0.194  0.00  0.00     0.032 A 
BRANCH  28  31
ATOM     31  O   UNL d   1       7.717  -1.614   1.426  0.00  0.00    -0.356 OA
ATOM     32  C   UNL d   1       7.868  -1.911   2.811  0.00  0.00     0.210 C 
ENDBRANCH  28  31
ENDBRANCH  23  25
ENDBRANCH   1  23
TORSDOF 9
