REMARK  6 active torsions:
REMARK  status: ('A' for Active; 'I' for Inactive)
REMARK    1  A    between atoms: C_8  and  C_1 
REMARK    2  A    between atoms: N_6  and  C_2 
REMARK    3  A    between atoms: C_12  and  C_4 
REMARK       I    between atoms: C_7  and  N_6 
REMARK    4  A    between atoms: C_9  and  C_7 
REMARK       I    between atoms: N_18  and  C_8 
REMARK    5  A    between atoms: O_19  and  C_11 
REMARK    6  A    between atoms: O_20  and  C_13 
ROOT
ATOM      1  C   UNL d   1      -0.019   1.152  -0.383  0.00  0.00     0.100 C 
ATOM      2  C   UNL d   1       1.300   0.843  -0.078  0.00  0.00     0.059 C 
ATOM      3  S   UNL d   1      -1.038  -0.208  -0.103  0.00  0.00    -0.082 SA
ATOM      4  C   UNL d   1       0.275  -1.301  -0.017  0.00  0.00     0.018 C 
ATOM      5  C   UNL d   1       1.455  -0.586   0.081  0.00  0.00     0.051 C 
ENDROOT
BRANCH   2   6
ATOM      6  N   UNL d   1       2.432   1.661   0.016  0.00  0.00    -0.321 N 
ATOM      7  C   UNL d   1       2.483   3.032   0.201  0.00  0.00     0.256 C 
ATOM      8  O   UNL d   1       1.525   3.787   0.285  0.00  0.00    -0.267 OA
ATOM      9  H   UNL d   1       3.299   1.151   0.049  0.00  0.00     0.169 HD
BRANCH   7  10
ATOM     10  C   UNL d   1       3.870   3.615   0.212  0.00  0.00     0.035 A 
ATOM     11  C   UNL d   1       4.045   4.921  -0.276  0.00  0.00     0.056 A 
ATOM     12  C   UNL d   1       5.328   5.449  -0.502  0.00  0.00     0.102 A 
ATOM     13  C   UNL d   1       6.451   4.655  -0.203  0.00  0.00     0.101 A 
ATOM     14  C   UNL d   1       6.265   3.401   0.395  0.00  0.00     0.040 A 
ATOM     15  C   UNL d   1       4.988   2.883   0.610  0.00  0.00     0.020 A 
BRANCH  12  16
ATOM     16  O   UNL d   1       5.545   6.699  -1.016  0.00  0.00    -0.353 OA
ATOM     17  C   UNL d   1       4.424   7.507  -1.345  0.00  0.00     0.210 C 
ENDBRANCH  12  16
BRANCH  13  18
ATOM     18  O   UNL d   1       7.777   4.929  -0.417  0.00  0.00    -0.353 OA
ATOM     19  C   UNL d   1       8.129   6.055  -1.209  0.00  0.00     0.210 C 
ENDBRANCH  13  18
ENDBRANCH   7  10
ENDBRANCH   2   6
BRANCH   1  20
ATOM     20  C   UNL d   1      -0.690   2.304  -0.952  0.00  0.00     0.258 C 
ATOM     21  O   UNL d   1      -1.851   2.642  -0.724  0.00  0.00    -0.267 OA
ATOM     22  N   UNL d   1       0.000   2.975  -1.927  0.00  0.00    -0.365 N 
ATOM     23  H   UNL d   1       1.005   2.909  -1.948  0.00  0.00     0.159 HD
ATOM     24  H   UNL d   1      -0.415   3.854  -2.200  0.00  0.00     0.159 HD
ENDBRANCH   1  20
BRANCH   4  25
ATOM     25  C   UNL d   1       0.045  -2.761  -0.038  0.00  0.00    -0.019 A 
ATOM     26  C   UNL d   1      -1.077  -3.310  -0.689  0.00  0.00     0.013 A 
ATOM     27  C   UNL d   1      -1.271  -4.694  -0.769  0.00  0.00     0.001 A 
ATOM     28  C   UNL d   1      -0.342  -5.557  -0.205  0.00  0.00     0.000 A 
ATOM     29  C   UNL d   1       0.775  -5.038   0.449  0.00  0.00     0.001 A 
ATOM     30  C   UNL d   1       0.966  -3.653   0.533  0.00  0.00     0.013 A 
ENDBRANCH   4  25
TORSDOF 6
