REMARK  3 active torsions:
REMARK  status: ('A' for Active; 'I' for Inactive)
REMARK    1  A    between atoms: N_4  and  S_1 
REMARK    2  A    between atoms: C_9  and  S_1 
REMARK    3  A    between atoms: C_2  and  N_5 
ROOT
ATOM      1  N   UNL d   1       0.216   1.613  -0.073  0.00  0.00    -0.304 N 
ATOM      2  N   UNL d   1      -0.039   4.476   0.085  0.00  0.00    -0.373 N 
ATOM      3  C   UNL d   1      -0.001   2.403  -1.303  0.00  0.00     0.155 C 
ATOM      4  C   UNL d   1      -0.152   2.262   1.210  0.00  0.00     0.155 C 
ATOM      5  C   UNL d   1       0.468   3.865  -1.160  0.00  0.00     0.143 C 
ATOM      6  C   UNL d   1       0.371   3.706   1.278  0.00  0.00     0.143 C 
ENDROOT
BRANCH   2   7
ATOM      7  C   UNL d   1      -0.823   5.641   0.123  0.00  0.00     0.104 A 
ATOM      8  C   UNL d   1      -1.795   5.888   1.258  0.00  0.00     0.213 A 
ATOM      9  C   UNL d   1      -2.527   7.171   1.251  0.00  0.00     0.050 A 
ATOM     10  O   UNL d   1      -2.017   5.070   2.145  0.00  0.00    -0.285 OA
ATOM     11  C   UNL d   1      -3.393   7.512   2.296  0.00  0.00     0.018 A 
ATOM     12  C   UNL d   1      -2.362   8.037   0.177  0.00  0.00     0.089 A 
ATOM     13  C   UNL d   1      -4.090   8.721   2.255  0.00  0.00     0.001 A 
ATOM     14  C   UNL d   1      -3.926   9.585   1.171  0.00  0.00     0.003 A 
ATOM     15  C   UNL d   1      -3.061   9.244   0.131  0.00  0.00     0.038 A 
ATOM     16  O   UNL d   1      -1.530   7.760  -0.872  0.00  0.00    -0.319 OA
ATOM     17  C   UNL d   1      -0.803   6.599  -0.821  0.00  0.00     0.176 A 
ENDBRANCH   2   7
BRANCH   1  18
ATOM     18  S   UNL d   1       0.828   0.060  -0.132  0.00  0.00     0.260 S 
ATOM     19  O   UNL d   1       0.438  -0.539  -1.392  0.00  0.00    -0.200 OA
ATOM     20  O   UNL d   1       0.572  -0.600   1.129  0.00  0.00    -0.200 OA
BRANCH  18  21
ATOM     21  C   UNL d   1       2.583   0.365  -0.221  0.00  0.00     0.079 A 
ATOM     22  C   UNL d   1       3.324   0.458   0.962  0.00  0.00     0.027 A 
ATOM     23  C   UNL d   1       4.696   0.711   0.896  0.00  0.00     0.025 A 
ATOM     24  C   UNL d   1       5.316   0.862  -0.345  0.00  0.00     0.034 A 
ATOM     25  C   UNL d   1       4.585   0.725  -1.526  0.00  0.00     0.025 A 
ATOM     26 CL   UNL d   1       6.997   1.223  -0.419  0.00  0.00    -0.084 Cl
ATOM     27  C   UNL d   1       3.214   0.461  -1.466  0.00  0.00     0.027 A 
ENDBRANCH  18  21
ENDBRANCH   1  18
TORSDOF 3
