REMARK  3 active torsions:
REMARK  status: ('A' for Active; 'I' for Inactive)
REMARK    1  A    between atoms: C_6  and  N_1 
REMARK    2  A    between atoms: C_9  and  C_2 
REMARK    3  A    between atoms: C_5  and  C_8 
ROOT
ATOM      1  N   UNL d   1      -0.609  -1.177   0.204  0.00  0.00    -0.298 N 
ATOM      2  C   UNL d   1       0.800  -1.339  -0.144  0.00  0.00     0.205 C 
ATOM      3  S   UNL d   1       1.534   0.321  -0.065  0.00  0.00    -0.128 SA
ATOM      4  C   UNL d   1      -1.119   0.118   0.123  0.00  0.00     0.235 C 
ATOM      5  C   UNL d   1      -0.061   1.129  -0.260  0.00  0.00     0.179 C 
ATOM      6  O   UNL d   1      -2.295   0.446   0.266  0.00  0.00    -0.272 OA
ENDROOT
BRANCH   1   7
ATOM      7  C   UNL d   1      -1.438  -2.306   0.454  0.00  0.00     0.038 A 
ATOM      8  C   UNL d   1      -1.245  -3.507  -0.238  0.00  0.00     0.030 A 
ATOM      9  C   UNL d   1      -2.025  -4.630   0.051  0.00  0.00     0.018 A 
ATOM     10  C   UNL d   1      -2.993  -4.584   1.063  0.00  0.00     0.048 A 
ATOM     11  C   UNL d   1      -3.184  -3.384   1.759  0.00  0.00     0.018 A 
ATOM     12  C   UNL d   1      -2.426  -2.250   1.444  0.00  0.00     0.030 A 
BRANCH  10  13
ATOM     13  C   UNL d   1      -3.811  -5.813   1.375  0.00  0.00     0.417 C 
ATOM     14  F   UNL d   1      -4.601  -5.679   2.476  0.00  0.00    -0.166 F 
ATOM     15  F   UNL d   1      -4.645  -6.154   0.354  0.00  0.00    -0.166 F 
ATOM     16  F   UNL d   1      -3.036  -6.910   1.605  0.00  0.00    -0.166 F 
ENDBRANCH  10  13
ENDBRANCH   1   7
BRANCH   2  17
ATOM     17  C   UNL d   1       1.554  -2.347   0.720  0.00  0.00     0.042 A 
ATOM     18  N   UNL d   1       2.151  -3.384   0.070  0.00  0.00    -0.367 N 
ATOM     19  C   UNL d   1       2.717  -4.355   0.822  0.00  0.00     0.088 A 
ATOM     20  HN  UNL d   1       2.171  -3.427  -0.949  1.00  0.00     0.165 HD
ATOM     21  C   UNL d   1       2.724  -4.353   2.205  0.00  0.00     0.017 A 
ATOM     22  C   UNL d   1       2.126  -3.284   2.863  0.00  0.00     0.003 A 
ATOM     23  C   UNL d   1       1.540  -2.267   2.116  0.00  0.00     0.028 A 
ENDBRANCH   2  17
TORSDOF 3
