REMARK  7 active torsions:
REMARK  status: ('A' for Active; 'I' for Inactive)
REMARK    1  A    between atoms: N_6  and  C_5 
REMARK    2  A    between atoms: C_10  and  N_6 
REMARK    3  A    between atoms: O_7  and  C_12 
REMARK    4  A    between atoms: C_9  and  O_7 
REMARK    5  A    between atoms: C_8  and  C_10 
REMARK    6  A    between atoms: C_12  and  C_8 
REMARK    7  A    between atoms: O_18  and  C_8 
ROOT
ATOM      1  C   UNL d   1       6.034   1.115   0.412  0.00  0.00     0.170 C 
ENDROOT
BRANCH   1   2
ATOM      2  C   UNL d   1       4.604   1.136  -0.173  0.00  0.00     0.303 C 
BRANCH   2   3
ATOM      3  N   UNL d   1       3.748   0.051   0.315  0.00  0.00     0.091 N 
ATOM      4  H   UNL d   1       4.134  -0.856   0.063  0.00  0.00     0.316 HD
BRANCH   3   5
ATOM      5  C   UNL d   1       2.381   0.127  -0.217  0.00  0.00     0.229 C 
ATOM      6  C   UNL d   1       1.613   1.425   0.130  0.00  0.00     0.075 C 
ATOM      7  C   UNL d   1       0.196   0.948   0.103  0.00  0.00    -0.050 A 
ATOM      8  C   UNL d   1       0.132  -0.443   0.218  0.00  0.00    -0.050 A 
ATOM      9  C   UNL d   1      -0.954   1.717   0.042  0.00  0.00     0.007 A 
ATOM     10  C   UNL d   1       1.504  -1.033   0.323  0.00  0.00     0.075 C 
ATOM     11  C   UNL d   1      -1.085  -1.099   0.281  0.00  0.00     0.007 A 
ATOM     12  C   UNL d   1      -2.252  -0.333   0.211  0.00  0.00     0.001 A 
ATOM     13  C   UNL d   1      -2.186   1.063   0.090  0.00  0.00     0.001 A 
ENDBRANCH   3   5
ENDBRANCH   2   3
ENDBRANCH   1   2
BRANCH   1  14
ATOM     14  C   UNL d   1       6.766  -0.192   0.068  0.00  0.00     0.209 C 
BRANCH  14  15
ATOM     15  O   UNL d   1       8.084  -0.183   0.624  0.00  0.00    -0.349 OA
BRANCH  15  16
ATOM     16  C   UNL d   1       8.841  -1.289   0.343  0.00  0.00     0.069 A 
ATOM     17  C   UNL d   1      10.223  -1.084   0.367  0.00  0.00     0.038 A 
ATOM     18  C   UNL d   1      11.099  -2.138   0.096  0.00  0.00     0.026 A 
ATOM     19  C   UNL d   1      10.592  -3.403  -0.185  0.00  0.00     0.034 A 
ATOM     20  C   UNL d   1       9.216  -3.624  -0.187  0.00  0.00     0.026 A 
ATOM     21 CL   UNL d   1      11.664  -4.705  -0.519  0.00  0.00    -0.084 Cl
ATOM     22  C   UNL d   1       8.341  -2.567   0.078  0.00  0.00     0.038 A 
ENDBRANCH  15  16
ENDBRANCH  14  15
ENDBRANCH   1  14
BRANCH   1  23
ATOM     23  O   UNL d   1       6.744   2.255  -0.097  0.00  0.00    -0.392 OA
ATOM     24  H   UNL d   1       6.921   2.109  -1.041  0.00  0.00     0.210 HD
ENDBRANCH   1  23
TORSDOF 7
