REMARK  1 active torsions:
REMARK  status: ('A' for Active; 'I' for Inactive)
REMARK    1  A    between atoms: C_10  and  C_5 
ROOT
ATOM      1  N   UNL d   1       0.782   0.275  -1.135  0.00  0.00    -0.347 N 
ATOM      2  HN  UNL d   1       1.159   0.452  -2.066  1.00  0.00     0.167 HD
ATOM      3  C   UNL d   1      -0.291  -0.445  -0.877  0.00  0.00     0.111 A 
ATOM      4  C   UNL d   1      -1.075  -1.061  -1.907  0.00  0.00     0.134 A 
ATOM      5  C   UNL d   1       1.324   0.758   0.049  0.00  0.00     0.050 A 
ATOM      6  S   UNL d   1      -0.690  -0.611   0.784  0.00  0.00    -0.079 SA
ATOM      7  C   UNL d   1       0.667   0.350   1.194  0.00  0.00     0.082 A 
ATOM      8  N   UNL d   1      -2.737  -2.264  -2.855  0.00  0.00    -0.272 N 
ATOM      9  HN  UNL d   1      -3.574  -2.834  -2.978  1.00  0.00     0.194 HD
ATOM     10  O   UNL d   1      -2.211  -1.790  -1.665  0.00  0.00    -0.236 OA
ATOM     11  C   UNL d   1      -0.863  -1.056  -3.272  0.00  0.00     0.061 A 
ATOM     12  C   UNL d   1      -1.916  -1.817  -3.805  0.00  0.00     0.117 A 
ENDROOT
BRANCH   5  13
ATOM     13  C   UNL d   1       2.500   1.621   0.051  0.00  0.00    -0.006 A 
ATOM     14  C   UNL d   1       2.716   2.554   1.075  0.00  0.00     0.053 A 
ATOM     15  C   UNL d   1       3.828   3.403   1.052  0.00  0.00     0.102 A 
ATOM     16  O   UNL d   1       3.883   4.301   2.089  0.00  0.00    -0.348 OA
ATOM     17  C   UNL d   1       4.772   3.288   0.025  0.00  0.00     0.102 A 
ATOM     18  C   UNL d   1       4.389   5.578   1.701  0.00  0.00     0.178 C 
ATOM     19  C   UNL d   1       5.905   5.604   1.767  0.00  0.00     0.053 C 
ATOM     20  C   UNL d   1       6.521   4.347   1.175  0.00  0.00     0.178 C 
ATOM     21  O   UNL d   1       5.927   4.021  -0.082  0.00  0.00    -0.348 OA
ATOM     22  C   UNL d   1       4.551   2.378  -1.011  0.00  0.00     0.040 A 
ATOM     23  C   UNL d   1       3.423   1.551  -1.000  0.00  0.00     0.017 A 
ENDBRANCH   5  13
TORSDOF 1
