REMARK  3 active torsions:
REMARK  status: ('A' for Active; 'I' for Inactive)
REMARK    1  A    between atoms: C_2  and  N_1 
REMARK    2  A    between atoms: O_8  and  C_3 
REMARK    3  A    between atoms: C_4  and  O_8 
ROOT
ATOM      1  C   UNL d   1       0.399  -2.117   1.415  0.00  0.00     0.092 C 
ATOM      2  C   UNL d   1       1.807  -2.121   1.459  0.00  0.00     0.028 A 
ATOM      3  N   UNL d   1       1.846  -3.312  -0.635  0.00  0.00    -0.359 N 
ATOM      4  HN  UNL d   1       2.367  -3.717  -1.412  1.00  0.00     0.166 HD
ATOM      5  C   UNL d   1       2.486  -2.672   0.355  0.00  0.00     0.045 A 
ATOM      6  C   UNL d   1      -0.267  -2.776   0.385  0.00  0.00     0.062 C 
ATOM      7  C   UNL d   1       0.495  -3.410  -0.586  0.00  0.00     0.008 C 
ATOM      8  C   UNL d   1       2.546  -1.592   2.539  0.00  0.00     0.058 A 
ATOM      9  C   UNL d   1       3.870  -2.535   0.297  0.00  0.00     0.033 A 
ATOM     10  C   UNL d   1       3.928  -1.527   2.474  0.00  0.00     0.117 A 
ATOM     11  C   UNL d   1       4.598  -1.955   1.340  0.00  0.00     0.044 A 
ATOM     12  F   UNL d   1       4.618  -1.038   3.511  0.00  0.00    -0.206 F 
ATOM     13  C   UNL d   1      -0.166  -4.214  -1.666  0.00  0.00     0.068 C 
ENDROOT
BRANCH   1  14
ATOM     14  O   UNL d   1      -0.216  -1.323   2.363  0.00  0.00    -0.290 OA
BRANCH  14  15
ATOM     15  C   UNL d   1      -1.573  -1.407   2.557  0.00  0.00     0.181 A 
ATOM     16  C   UNL d   1      -2.338  -0.252   2.571  0.00  0.00     0.154 A 
ATOM     17  C   UNL d   1      -3.668  -0.299   2.984  0.00  0.00     0.042 A 
ATOM     18  C   UNL d   1      -4.191  -1.526   3.374  0.00  0.00     0.020 A 
ATOM     19  C   UNL d   1      -3.364  -2.642   3.330  0.00  0.00     0.090 A 
ATOM     20  N   UNL d   1      -2.068  -2.610   2.940  0.00  0.00    -0.345 N 
ATOM     21  HN  UNL d   1      -1.492  -3.451   2.934  1.00  0.00     0.167 HD
BRANCH  16  22
ATOM     22  N   UNL d   1      -1.768   0.995   2.138  0.00  0.00    -0.111 N 
ATOM     23  O   UNL d   1      -1.336   1.052   0.981  0.00  0.00    -0.532 OA
ATOM     24  O   UNL d   1      -1.812   1.940   2.941  0.00  0.00    -0.532 OA
ENDBRANCH  16  22
ENDBRANCH  14  15
ENDBRANCH   1  14
TORSDOF 3
