REMARK  4 active torsions:
REMARK  status: ('A' for Active; 'I' for Inactive)
REMARK    1  A    between atoms: S_2  and  C_1 
REMARK    2  A    between atoms: C_3  and  S_2 
REMARK    3  A    between atoms: O_8  and  C_3 
REMARK    4  A    between atoms: C_13  and  O_8 
ROOT
ATOM      1  C   UNL d   1      -0.232  -1.446   0.293  0.00  0.00     0.154 A 
ATOM      2  N   UNL d   1       0.899  -0.740   0.135  0.00  0.00    -0.340 N 
ATOM      3  HN  UNL d   1       1.816  -1.182   0.196  1.00  0.00     0.167 HD
ATOM      4  N   UNL d   1      -1.470  -0.918   0.221  0.00  0.00    -0.340 N 
ATOM      5  HN  UNL d   1      -2.299  -1.497   0.352  1.00  0.00     0.167 HD
ATOM      6  C   UNL d   1       0.768   0.583  -0.109  0.00  0.00     0.009 A 
ATOM      7  C   UNL d   1      -1.571   0.402  -0.030  0.00  0.00     0.009 A 
ATOM      8  C   UNL d   1      -0.462   1.204  -0.196  0.00  0.00     0.049 A 
ATOM      9  C   UNL d   1       2.023   1.397  -0.217  0.00  0.00     0.068 C 
ATOM     10  C   UNL d   1      -2.946   1.001  -0.049  0.00  0.00     0.068 C 
ENDROOT
BRANCH   1  11
ATOM     11  S   UNL d   1      -0.138  -3.107   0.887  0.00  0.00     0.015 SA
BRANCH  11  12
ATOM     12  C   UNL d   1       1.091  -3.777  -0.162  0.00  0.00     0.330 C 
ATOM     13  O   UNL d   1       0.791  -4.648  -0.966  0.00  0.00    -0.251 OA
BRANCH  12  14
ATOM     14  O   UNL d   1       2.368  -3.364   0.078  0.00  0.00    -0.302 OA
BRANCH  14  15
ATOM     15  C   UNL d   1       3.497  -3.978  -0.596  0.00  0.00     0.060 C 
ATOM     16  C   UNL d   1       3.384  -3.905  -2.123  0.00  0.00     0.046 C 
ATOM     17  C   UNL d   1       4.713  -3.144  -0.162  0.00  0.00     0.046 C 
ATOM     18  C   UNL d   1       3.695  -5.419  -0.111  0.00  0.00     0.046 C 
ENDBRANCH  14  15
ENDBRANCH  12  14
ENDBRANCH  11  12
ENDBRANCH   1  11
TORSDOF 4
