REMARK  5 active torsions:
REMARK  status: ('A' for Active; 'I' for Inactive)
REMARK    1  A    between atoms: N_2  and  C_1 
REMARK    2  A    between atoms: C_3  and  C_8 
REMARK    3  A    between atoms: O_7  and  C_4 
REMARK    4  A    between atoms: C_6  and  O_7 
REMARK    5  A    between atoms: C_10  and  C_6 
ROOT
ATOM      1  C   UNL d   1       1.203   0.194  -0.129  0.00  0.00     0.137 A 
ATOM      2  C   UNL d   1       0.635  -1.080  -0.212  0.00  0.00     0.112 A 
ATOM      3  C   UNL d   1       0.430   1.352  -0.056  0.00  0.00     0.055 A 
ATOM      4  C   UNL d   1      -0.965   1.235  -0.034  0.00  0.00     0.050 A 
ATOM      5  C   UNL d   1      -0.750  -1.209  -0.196  0.00  0.00     0.041 A 
ATOM      6  C   UNL d   1      -1.543  -0.052  -0.096  0.00  0.00     0.019 A 
ENDROOT
BRANCH   2   7
ATOM      7  O   UNL d   1       1.532  -2.159  -0.378  0.00  0.00    -0.272 OA
BRANCH   7   8
ATOM      8  C   UNL d   1       1.324  -3.524  -0.231  0.00  0.00     0.298 C 
ATOM      9  O   UNL d   1       0.311  -4.070   0.157  0.00  0.00    -0.259 OA
BRANCH   8  10
ATOM     10  C   UNL d   1       2.599  -4.212  -0.601  0.00  0.00     0.040 A 
ATOM     11  C   UNL d   1       2.751  -5.569  -0.286  0.00  0.00     0.019 A 
ATOM     12  C   UNL d   1       3.939  -6.238  -0.609  0.00  0.00     0.025 A 
ATOM     13  C   UNL d   1       4.974  -5.554  -1.248  0.00  0.00     0.034 A 
ATOM     14  C   UNL d   1       4.831  -4.208  -1.573  0.00  0.00     0.025 A 
ATOM     15 CL   UNL d   1       6.433  -6.373  -1.642  0.00  0.00    -0.084 Cl
ATOM     16  C   UNL d   1       3.646  -3.539  -1.254  0.00  0.00     0.019 A 
ENDBRANCH   8  10
ENDBRANCH   7   8
ENDBRANCH   2   7
BRANCH   1  17
ATOM     17  N   UNL d   1       2.637   0.321  -0.036  0.00  0.00    -0.113 N 
ATOM     18  O   UNL d   1       3.106   0.489   1.096  0.00  0.00    -0.532 OA
ATOM     19  O   UNL d   1       3.280   0.253  -1.091  0.00  0.00    -0.532 OA
ENDBRANCH   1  17
BRANCH   4  20
ATOM     20  C   UNL d   1      -1.831   2.467   0.105  0.00  0.00     0.417 C 
ATOM     21  F   UNL d   1      -1.128   3.628  -0.017  0.00  0.00    -0.166 F 
ATOM     22  F   UNL d   1      -2.817   2.527  -0.828  0.00  0.00    -0.166 F 
ATOM     23  F   UNL d   1      -2.446   2.528   1.317  0.00  0.00    -0.166 F 
ENDBRANCH   4  20
TORSDOF 5
