REMARK  10 active torsions:
REMARK  status: ('A' for Active; 'I' for Inactive)
REMARK       I    between atoms: N_2  and  C_1 
REMARK    1  A    between atoms: C_6  and  C_1 
REMARK    2  A    between atoms: C_4  and  N_2 
REMARK    3  A    between atoms: C_3  and  C_6 
REMARK    4  A    between atoms: C_7  and  C_3 
REMARK    5  A    between atoms: C_5  and  C_4 
REMARK    6  A    between atoms: C_9  and  C_4 
REMARK    7  A    between atoms: O_13  and  C_5 
REMARK    8  A    between atoms: N_12  and  C_6 
REMARK    9  A    between atoms: O_14  and  C_7 
REMARK   10  A    between atoms: C_15  and  C_9 
ROOT
ATOM      1  C   UNL d   1       1.054   0.168  -0.528  0.00  0.00     0.252 C 
ATOM      2  N   UNL d   1       0.443  -1.058  -0.630  0.00  0.00    -0.345 N 
ATOM      3  O   UNL d   1       2.194   0.378  -0.924  0.00  0.00    -0.271 OA
ATOM      4  H   UNL d   1      -0.437  -1.183  -0.131  0.00  0.00     0.163 HD
ENDROOT
BRANCH   2   5
ATOM      5  C   UNL d   1       1.113  -2.180  -1.274  0.00  0.00     0.188 C 
BRANCH   5   6
ATOM      6  C   UNL d   1       1.861  -2.985  -0.208  0.00  0.00     0.281 C 
ATOM      7  O   UNL d   1       1.340  -3.526   0.758  0.00  0.00    -0.263 OA
BRANCH   6   8
ATOM      8  O   UNL d   1       3.202  -2.969  -0.472  0.00  0.00    -0.325 OA
ATOM      9  C   UNL d   1       4.033  -3.587   0.513  0.00  0.00     0.213 C 
ENDBRANCH   6   8
ENDBRANCH   5   6
BRANCH   5  10
ATOM     10  C   UNL d   1       0.135  -3.089  -2.029  0.00  0.00     0.074 C 
BRANCH  10  11
ATOM     11  C   UNL d   1      -0.615  -2.399  -3.153  0.00  0.00    -0.056 A 
ATOM     12  C   UNL d   1       0.065  -1.809  -4.229  0.00  0.00     0.007 A 
ATOM     13  C   UNL d   1      -0.642  -1.242  -5.293  0.00  0.00     0.001 A 
ATOM     14  C   UNL d   1      -2.035  -1.252  -5.292  0.00  0.00     0.000 A 
ATOM     15  C   UNL d   1      -2.722  -1.813  -4.218  0.00  0.00     0.001 A 
ATOM     16  C   UNL d   1      -2.017  -2.383  -3.155  0.00  0.00     0.007 A 
ENDBRANCH  10  11
ENDBRANCH   5  10
ENDBRANCH   2   5
BRANCH   1  17
ATOM     17  C   UNL d   1       0.194   1.262   0.139  0.00  0.00     0.318 C 
BRANCH  17  18
ATOM     18  C   UNL d   1       0.638   2.618  -0.424  0.00  0.00     0.155 C 
BRANCH  18  19
ATOM     19  C   UNL d   1      -0.098   3.782   0.179  0.00  0.00     0.141 C 
ATOM     20  O   UNL d   1      -0.941   3.698   1.058  0.00  0.00    -0.650 OA
BRANCH  19  21
ATOM     21  O   UNL d   1       0.241   4.964  -0.383  0.00  0.00    -0.776 OA
ATOM     22  H   UNL d   1       0.920   4.889  -1.079  0.00  0.00     0.167 HD
ENDBRANCH  19  21
ENDBRANCH  18  19
ENDBRANCH  17  18
BRANCH  17  23
ATOM     23  N   UNL d   1      -1.243   0.975  -0.093  0.00  0.00     0.092 N 
ATOM     24  H   UNL d   1      -1.449   1.080  -1.089  0.00  0.00     0.313 HD
ATOM     25  H   UNL d   1      -1.783   1.710   0.378  0.00  0.00     0.313 HD
ENDBRANCH  17  23
ENDBRANCH   1  17
TORSDOF 10
