REMARK  3 active torsions:
REMARK  status: ('A' for Active; 'I' for Inactive)
REMARK    1  A    between atoms: O_4  and  C_1 
REMARK    2  A    between atoms: C_2  and  O_4 
REMARK    3  A    between atoms: C_7  and  C_2 
ROOT
ATOM      1  O   UNL d   1      -0.363   3.161   0.064  0.00  0.00    -0.279 OA
ENDROOT
BRANCH   1   2
ATOM      2  C   UNL d   1      -1.503   3.897   0.225  0.00  0.00     0.298 C 
ATOM      3  O   UNL d   1      -2.642   3.571  -0.069  0.00  0.00    -0.259 OA
BRANCH   2   4
ATOM      4  C   UNL d   1      -1.202   5.198   0.888  0.00  0.00     0.040 A 
ATOM      5  C   UNL d   1      -2.285   6.031   1.210  0.00  0.00     0.019 A 
ATOM      6  C   UNL d   1      -2.081   7.230   1.905  0.00  0.00     0.025 A 
ATOM      7  C   UNL d   1      -0.791   7.598   2.278  0.00  0.00     0.034 A 
ATOM      8  C   UNL d   1       0.292   6.792   1.945  0.00  0.00     0.025 A 
ATOM      9 CL   UNL d   1      -0.541   9.046   3.173  0.00  0.00    -0.084 Cl
ATOM     10  C   UNL d   1       0.093   5.591   1.249  0.00  0.00     0.019 A 
ENDBRANCH   2   4
ENDBRANCH   1   2
BRANCH   1  11
ATOM     11  C   UNL d   1      -0.331   1.768  -0.255  0.00  0.00     0.061 C 
ATOM     12  C   UNL d   1      -1.413   0.977  -0.326  0.00  0.00     0.083 C 
ATOM     13  C   UNL d   1      -1.284  -0.483  -0.537  0.00  0.00     0.152 C 
ATOM     14  O   UNL d   1      -2.303  -1.163  -0.643  0.00  0.00    -0.293 OA
ATOM     15  C   UNL d   1       0.090  -1.098  -0.663  0.00  0.00     0.092 C 
ATOM     16  C   UNL d   1       1.219  -0.260  -0.035  0.00  0.00    -0.035 C 
ATOM     17  C   UNL d   1       1.070   1.230  -0.421  0.00  0.00     0.074 C 
ATOM     18  C   UNL d   1       2.565  -0.795  -0.560  0.00  0.00     0.015 C 
ATOM     19  C   UNL d   1       1.214  -0.411   1.501  0.00  0.00     0.015 C 
ENDBRANCH   1  11
TORSDOF 3
