REMARK  2 active torsions:
REMARK  status: ('A' for Active; 'I' for Inactive)
REMARK    1  A    between atoms: N_2  and  C_1 
REMARK    2  A    between atoms: C_5  and  N_4 
ROOT
ATOM      1  N   UNL d   1       3.661  -1.460   0.176  0.00  0.00    -0.381 N 
ATOM      2  N   UNL d   1       5.680  -3.267   1.144  0.00  0.00    -0.378 N 
ATOM      3  C   UNL d   1       4.102  -2.594  -0.667  0.00  0.00     0.142 C 
ATOM      4  C   UNL d   1       4.737  -0.985   1.081  0.00  0.00     0.142 C 
ATOM      5  C   UNL d   1       5.250  -2.130   1.980  0.00  0.00     0.143 C 
ATOM      6  C   UNL d   1       4.639  -3.750   0.212  0.00  0.00     0.143 C 
ENDROOT
BRANCH   1   7
ATOM      7  C   UNL d   1       2.459  -0.769  -0.001  0.00  0.00     0.008 C 
ATOM      8  C   UNL d   1       1.836  -0.116   0.999  0.00  0.00     0.037 C 
ATOM      9  C   UNL d   1       0.572   0.599   0.804  0.00  0.00    -0.028 A 
ATOM     10  C   UNL d   1      -0.181   1.020   1.905  0.00  0.00     0.012 A 
ATOM     11  C   UNL d   1       0.132   0.893  -0.496  0.00  0.00    -0.048 A 
ATOM     12  C   UNL d   1      -1.363   1.735   1.715  0.00  0.00     0.001 A 
ATOM     13  C   UNL d   1      -1.793   2.041   0.425  0.00  0.00     0.001 A 
ATOM     14  C   UNL d   1      -1.046   1.627  -0.680  0.00  0.00     0.008 A 
ATOM     15  C   UNL d   1       0.985   0.486  -1.668  0.00  0.00     0.045 C 
ATOM     16  C   UNL d   1       1.814  -0.773  -1.379  0.00  0.00     0.061 C 
ENDBRANCH   1   7
BRANCH   2  17
ATOM     17  C   UNL d   1       6.895  -3.892   1.308  0.00  0.00     0.032 A 
ATOM     18  C   UNL d   1       7.553  -4.505   0.232  0.00  0.00     0.054 A 
ATOM     19  C   UNL d   1       8.811  -5.108   0.376  0.00  0.00     0.058 A 
ATOM     20 CL   UNL d   1       9.530  -5.809  -1.031  0.00  0.00    -0.082 Cl
ATOM     21  C   UNL d   1       9.442  -5.113   1.619  0.00  0.00     0.055 A 
ATOM     22  C   UNL d   1       8.809  -4.518   2.707  0.00  0.00     0.028 A 
ATOM     23 CL   UNL d   1      10.993  -5.825   1.875  0.00  0.00    -0.083 Cl
ATOM     24  C   UNL d   1       7.553  -3.919   2.547  0.00  0.00     0.031 A 
ENDBRANCH   2  17
TORSDOF 2
