REMARK  3 active torsions:
REMARK  status: ('A' for Active; 'I' for Inactive)
REMARK       I    between atoms: N_3  and  C_1 
REMARK       I    between atoms: N_6  and  C_1 
REMARK    1  A    between atoms: C_2  and  N_3 
REMARK    2  A    between atoms: C_8  and  C_4 
REMARK    3  A    between atoms: C_13  and  N_6 
ROOT
ATOM      1  C   UNL d   1       1.035   0.138  -0.094  0.00  0.00     0.325 C 
ATOM      2  N   UNL d   1       0.416  -0.026   1.135  0.00  0.00    -0.307 N 
ATOM      3  N   UNL d   1       0.169  -0.183  -1.122  0.00  0.00    -0.309 N 
ATOM      4  O   UNL d   1       2.204   0.483  -0.236  0.00  0.00    -0.247 OA
ATOM      5  H   UNL d   1      -0.241  -0.798   1.147  0.00  0.00     0.170 HD
ATOM      6  H   UNL d   1      -0.800   0.048  -0.958  0.00  0.00     0.170 HD
ENDROOT
BRANCH   2   7
ATOM      7  C   UNL d   1       1.098   0.191   2.360  0.00  0.00     0.059 A 
ATOM      8  C   UNL d   1       1.920   1.313   2.544  0.00  0.00     0.046 A 
ATOM      9  C   UNL d   1       2.599   1.495   3.755  0.00  0.00     0.011 A 
ATOM     10  C   UNL d   1       2.448   0.554   4.783  0.00  0.00     0.017 A 
ATOM     11  C   UNL d   1       1.623  -0.558   4.609  0.00  0.00     0.027 A 
ATOM     12  C   UNL d   1       0.937  -0.730   3.408  0.00  0.00     0.060 A 
ATOM     13 CL   UNL d   1      -0.062  -2.128   3.219  0.00  0.00    -0.082 Cl
BRANCH   9  14
ATOM     14  C   UNL d   1       3.469   2.676   4.020  0.00  0.00     0.155 C 
ATOM     15  O   UNL d   1       3.643   3.040   5.181  0.00  0.00    -0.293 OA
ATOM     16  C   UNL d   1       4.138   3.393   2.876  0.00  0.00     0.096 C 
ENDBRANCH   9  14
ENDBRANCH   2   7
BRANCH   3  17
ATOM     17  C   UNL d   1       0.547  -0.509  -2.439  0.00  0.00     0.036 A 
ATOM     18  C   UNL d   1       1.828  -0.968  -2.763  0.00  0.00     0.031 A 
ATOM     19  C   UNL d   1       2.141  -1.339  -4.074  0.00  0.00     0.026 A 
ATOM     20  C   UNL d   1       1.172  -1.245  -5.068  0.00  0.00     0.034 A 
ATOM     21  C   UNL d   1      -0.108  -0.791  -4.760  0.00  0.00     0.026 A 
ATOM     22 CL   UNL d   1       1.554  -1.701  -6.682  0.00  0.00    -0.084 Cl
ATOM     23  C   UNL d   1      -0.424  -0.434  -3.444  0.00  0.00     0.031 A 
ENDBRANCH   3  17
TORSDOF 3
