REMARK  5 active torsions:
REMARK  status: ('A' for Active; 'I' for Inactive)
REMARK    1  A    between atoms: C_2  and  C_1 
REMARK    2  A    between atoms: O_7  and  C_2 
REMARK    3  A    between atoms: C_16  and  O_7 
REMARK    4  A    between atoms: C_8  and  C_11 
REMARK    5  A    between atoms: O_17  and  N_9 
ROOT
ATOM      1  C   UNL d   1       2.846   4.442  -0.975  0.00  0.00    -0.012 A 
ATOM      2  C   UNL d   1       2.533   3.256  -1.651  0.00  0.00     0.016 A 
ATOM      3  C   UNL d   1       4.103   5.032  -1.170  0.00  0.00     0.016 A 
ATOM      4  C   UNL d   1       4.679   3.309  -2.761  0.00  0.00     0.079 A 
ATOM      5  C   UNL d   1       5.014   4.472  -2.068  0.00  0.00     0.038 A 
ATOM      6  C   UNL d   1       3.444   2.695  -2.556  0.00  0.00     0.038 A 
ENDROOT
BRANCH   4   7
ATOM      7  O   UNL d   1       5.616   2.882  -3.731  0.00  0.00    -0.273 OA
BRANCH   7   8
ATOM      8  C   UNL d   1       5.771   1.548  -4.110  0.00  0.00     0.322 C 
ATOM      9  O   UNL d   1       5.197   0.592  -3.598  0.00  0.00    -0.257 OA
BRANCH   8  10
ATOM     10  C   UNL d   1       6.717   1.447  -5.199  0.00  0.00     0.152 A 
ATOM     11  O   UNL d   1       7.299   2.574  -5.722  0.00  0.00    -0.297 OA
ATOM     12  C   UNL d   1       8.126   2.175  -6.725  0.00  0.00     0.122 A 
ATOM     13 BR   UNL d   1       9.154   3.332  -7.766  0.00  0.00    -0.023 Br
ATOM     14  C   UNL d   1       8.092   0.806  -6.862  0.00  0.00     0.048 A 
ATOM     15  C   UNL d   1       7.185   0.337  -5.880  0.00  0.00     0.047 A 
ENDBRANCH   8  10
ENDBRANCH   7   8
ENDBRANCH   4   7
BRANCH   1  16
ATOM     16  C   UNL d   1       1.867   5.117  -0.069  0.00  0.00     0.038 C 
ATOM     17  N   UNL d   1       2.319   5.823   0.929  0.00  0.00    -0.273 N 
ATOM     18  HN  UNL d   1       3.309   5.939   1.148  1.00  0.00     0.193 HD
ATOM     19  C   UNL d   1       0.386   4.987  -0.371  0.00  0.00     0.071 C 
BRANCH  17  20
ATOM     20  O   UNL d   1       1.277   6.402   1.662  0.00  0.00    -0.290 OA
ATOM     21  H   UNL d   1       1.756   6.899   2.351  0.00  0.00     0.244 HD
ENDBRANCH  17  20
ENDBRANCH   1  16
TORSDOF 5
