REMARK  5 active torsions:
REMARK  status: ('A' for Active; 'I' for Inactive)
REMARK    1  A    between atoms: C_8  and  C_1 
REMARK    2  A    between atoms: C_9  and  C_2 
REMARK    3  A    between atoms: C_3  and  C_10 
REMARK       I    between atoms: N_11  and  C_8 
REMARK    4  A    between atoms: O_16  and  C_9 
REMARK    5  A    between atoms: C_10  and  N_11 
ROOT
ATOM      1  C   UNL d   1       0.510   2.155  -1.301  0.00  0.00     0.223 C 
ATOM      2  N   UNL d   1       1.648   2.927  -1.462  0.00  0.00    -0.356 N 
ATOM      3  O   UNL d   1      -0.354   2.065  -2.167  0.00  0.00    -0.273 OA
ATOM      4  H   UNL d   1       2.257   3.098  -0.667  0.00  0.00     0.162 HD
ENDROOT
BRANCH   1   5
ATOM      5  C   UNL d   1       0.425   1.436   0.046  0.00  0.00     0.096 C 
ATOM      6  C   UNL d   1       1.508   0.355   0.147  0.00  0.00     0.101 C 
ATOM      7  C   UNL d   1       1.083  -1.105  -0.045  0.00  0.00     0.050 C 
ATOM      8  C   UNL d   1      -0.382  -1.445   0.095  0.00  0.00    -0.081 C 
ATOM      9  C   UNL d   1      -1.329  -0.501   0.264  0.00  0.00    -0.081 C 
ATOM     10  C   UNL d   1      -0.646  -2.931  -0.018  0.00  0.00     0.043 C 
ATOM     11  C   UNL d   1      -0.999   0.971   0.386  0.00  0.00     0.049 C 
ATOM     12  C   UNL d   1      -2.815  -0.768   0.344  0.00  0.00     0.043 C 
BRANCH   6  13
ATOM     13  C   UNL d   1       2.279   0.584   1.429  0.00  0.00     0.144 C 
ATOM     14  O   UNL d   1       3.277   1.286   1.478  0.00  0.00    -0.650 OA
BRANCH  13  15
ATOM     15  O   UNL d   1       1.725   0.045   2.535  0.00  0.00    -0.776 OA
ATOM     16  H   UNL d   1       0.898  -0.452   2.384  0.00  0.00     0.167 HD
ENDBRANCH  13  15
ENDBRANCH   6  13
ENDBRANCH   1   5
BRANCH   2  17
ATOM     17  C   UNL d   1       1.792   3.766  -2.639  0.00  0.00     0.166 C 
BRANCH  17  18
ATOM     18  C   UNL d   1       3.025   4.636  -2.702  0.00  0.00     0.020 A 
ATOM     19  C   UNL d   1       3.646   5.127  -1.547  0.00  0.00     0.126 A 
ATOM     20  F   UNL d   1       3.196   4.763  -0.336  0.00  0.00    -0.205 F 
ATOM     21  C   UNL d   1       4.728   6.008  -1.598  0.00  0.00     0.043 A 
ATOM     22  C   UNL d   1       5.216   6.441  -2.827  0.00  0.00     0.005 A 
ATOM     23  C   UNL d   1       4.613   5.984  -3.995  0.00  0.00     0.024 A 
ATOM     24  C   UNL d   1       3.526   5.099  -3.934  0.00  0.00     0.044 A 
ATOM     25 CL   UNL d   1       2.819   4.636  -5.444  0.00  0.00    -0.084 Cl
ENDBRANCH  17  18
ENDBRANCH   2  17
TORSDOF 5
