REMARK  8 active torsions:
REMARK  status: ('A' for Active; 'I' for Inactive)
REMARK    1  A    between atoms: C_6  and  C_1 
REMARK    2  A    between atoms: C_3  and  C_2 
REMARK    3  A    between atoms: S_11  and  C_3 
REMARK    4  A    between atoms: C_17  and  N_9 
REMARK    5  A    between atoms: C_16  and  S_11 
REMARK    6  A    between atoms: C_14  and  C_16 
REMARK    7  A    between atoms: O_20  and  C_14 
REMARK    8  A    between atoms: C_25  and  O_20 
ROOT
ATOM      1  C   UNL d   1       0.201  -2.437   0.061  0.00  0.00     0.086 C 
ATOM      2  N   UNL d   1      -0.655  -3.400  -0.097  0.00  0.00    -0.350 N 
ATOM      3  HN  UNL d   1      -0.272  -4.344  -0.145  1.00  0.00     0.166 HD
ENDROOT
BRANCH   1   4
ATOM      4  C   UNL d   1       1.599  -2.857   0.168  0.00  0.00     0.058 A 
ATOM      5  C   UNL d   1       2.696  -2.377   0.978  0.00  0.00     0.084 A 
ATOM      6  N   UNL d   1       3.786  -3.136   0.778  0.00  0.00    -0.259 N 
ATOM      7  O   UNL d   1       3.451  -4.079  -0.152  0.00  0.00    -0.241 OA
ATOM      8  HN  UNL d   1       4.692  -3.028   1.235  1.00  0.00     0.195 HD
ATOM      9  C   UNL d   1       2.151  -3.935  -0.503  0.00  0.00     0.087 A 
ATOM     10  C   UNL d   1       1.684  -4.934  -1.493  0.00  0.00     0.080 C 
BRANCH   5  11
ATOM     11  C   UNL d   1       2.771  -1.256   1.920  0.00  0.00     0.037 A 
ATOM     12  C   UNL d   1       1.830  -1.103   2.957  0.00  0.00     0.048 A 
ATOM     13 CL   UNL d   1       0.669  -2.325   3.367  0.00  0.00    -0.083 Cl
ATOM     14  C   UNL d   1       1.811   0.055   3.746  0.00  0.00     0.025 A 
ATOM     15  C   UNL d   1       2.790   1.031   3.590  0.00  0.00     0.003 A 
ATOM     16  C   UNL d   1       3.795   0.847   2.648  0.00  0.00     0.025 A 
ATOM     17  C   UNL d   1       3.779  -0.273   1.806  0.00  0.00     0.048 A 
ATOM     18 CL   UNL d   1       5.040  -0.326   0.614  0.00  0.00    -0.083 Cl
ENDBRANCH   5  11
ENDBRANCH   1   4
BRANCH   1  19
ATOM     19  S   UNL d   1      -0.183  -0.738   0.250  0.00  0.00    -0.101 SA
BRANCH  19  20
ATOM     20  C   UNL d   1       0.846   0.100  -0.959  0.00  0.00     0.191 C 
BRANCH  20  21
ATOM     21  C   UNL d   1       0.332  -0.082  -2.358  0.00  0.00     0.268 C 
ATOM     22  O   UNL d   1      -0.180   0.806  -3.029  0.00  0.00    -0.264 OA
BRANCH  21  23
ATOM     23  O   UNL d   1       0.536  -1.366  -2.772  0.00  0.00    -0.321 OA
BRANCH  23  24
ATOM     24  C   UNL d   1       0.053  -1.668  -4.091  0.00  0.00     0.174 C 
ATOM     25  C   UNL d   1      -1.430  -1.978  -4.043  0.00  0.00     0.034 C 
ENDBRANCH  23  24
ENDBRANCH  21  23
ENDBRANCH  20  21
ENDBRANCH  19  20
ENDBRANCH   1  19
BRANCH   2  26
ATOM     26  C   UNL d   1      -2.048  -3.285  -0.209  0.00  0.00     0.032 A 
ATOM     27  C   UNL d   1      -2.680  -4.130  -1.132  0.00  0.00     0.029 A 
ATOM     28  C   UNL d   1      -4.062  -4.082  -1.337  0.00  0.00     0.002 A 
ATOM     29  C   UNL d   1      -4.838  -3.189  -0.607  0.00  0.00     0.000 A 
ATOM     30  C   UNL d   1      -4.238  -2.392   0.364  0.00  0.00     0.002 A 
ATOM     31  C   UNL d   1      -2.858  -2.471   0.585  0.00  0.00     0.029 A 
ENDBRANCH   2  26
TORSDOF 8
