REMARK  1 active torsions:
REMARK  status: ('A' for Active; 'I' for Inactive)
REMARK    1  A    between atoms: C_3  and  N_1 
ROOT
ATOM      1  N   UNL d   1       0.357  -1.039  -0.008  0.00  0.00    -0.266 N 
ATOM      2  C   UNL d   1      -0.730  -0.188   0.059  0.00  0.00     0.148 A 
ATOM      3  C   UNL d   1       1.619  -0.453  -0.041  0.00  0.00     0.239 A 
ATOM      4  S   UNL d   1      -0.196   1.484  -0.021  0.00  0.00    -0.090 SA
ATOM      5  S   UNL d   1      -2.348  -0.556   0.281  0.00  0.00    -0.052 SA
ATOM      6  C   UNL d   1       1.546   1.048  -0.065  0.00  0.00     0.185 A 
ATOM      7  O   UNL d   1       2.691  -1.044  -0.082  0.00  0.00    -0.272 OA
ENDROOT
BRANCH   1   8
ATOM      8  C   UNL d   1       0.248  -2.457  -0.018  0.00  0.00     0.045 A 
ATOM      9  C   UNL d   1       0.856  -3.218   0.988  0.00  0.00     0.049 A 
ATOM     10  C   UNL d   1       0.722  -4.606   0.984  0.00  0.00     0.013 A 
ATOM     11 BR   UNL d   1       1.476  -5.624   2.388  0.00  0.00    -0.051 Br
ATOM     12  C   UNL d   1       0.025  -5.251  -0.036  0.00  0.00     0.019 A 
ATOM     13  C   UNL d   1      -0.553  -4.500  -1.059  0.00  0.00     0.004 A 
ATOM     14  C   UNL d   1      -0.452  -3.107  -1.046  0.00  0.00     0.030 A 
ENDBRANCH   1   8
TORSDOF 1
