REMARK  7 active torsions:
REMARK  status: ('A' for Active; 'I' for Inactive)
REMARK    1  A    between atoms: C_7  and  C_1 
REMARK    2  A    between atoms: N_8  and  C_4 
REMARK    3  A    between atoms: N_18  and  C_5 
REMARK    4  A    between atoms: C_6  and  N_8 
REMARK    5  A    between atoms: N_17  and  C_26 
REMARK    6  A    between atoms: C_27  and  N_18 
REMARK    7  A    between atoms: C_26  and  C_27 
ROOT
ATOM      1  C   UNL d   1       2.349   7.053   0.292  0.00  0.00     0.137 C 
ENDROOT
BRANCH   1   2
ATOM      2  N   UNL d   1       1.903   8.446   0.190  0.00  0.00    -0.366 N 
ATOM      3  C   UNL d   1       2.425   9.432  -0.592  0.00  0.00     0.172 C 
ATOM      4  S   UNL d   1       3.852   9.331  -1.456  0.00  0.00    -0.041 SA
ATOM      5  H   UNL d   1       1.259   8.750   0.908  0.00  0.00     0.161 HD
BRANCH   3   6
ATOM      6  N   UNL d   1       1.749  10.619  -0.643  0.00  0.00    -0.333 N 
ATOM      7  H   UNL d   1       2.324  11.354  -1.034  0.00  0.00     0.168 HD
BRANCH   6   8
ATOM      8  C   UNL d   1       0.384  10.936  -0.443  0.00  0.00     0.041 A 
ATOM      9  C   UNL d   1      -0.601   9.939  -0.378  0.00  0.00     0.053 A 
ATOM     10  C   UNL d   1      -1.943  10.264  -0.184  0.00  0.00     0.036 A 
ATOM     11 CL   UNL d   1      -3.123   9.013  -0.102  0.00  0.00    -0.084 Cl
ATOM     12  C   UNL d   1      -2.337  11.589  -0.069  0.00  0.00     0.024 A 
ATOM     13  C   UNL d   1      -1.380  12.595  -0.178  0.00  0.00     0.011 A 
ATOM     14  C   UNL d   1      -0.020  12.290  -0.391  0.00  0.00    -0.035 A 
ATOM     15  C   UNL d   1       0.918  13.465  -0.491  0.00  0.00     0.050 C 
ENDBRANCH   6   8
ENDBRANCH   3   6
ENDBRANCH   1   2
BRANCH   1  16
ATOM     16  C   UNL d   1       3.563   6.847   1.212  0.00  0.00     0.114 C 
BRANCH  16  17
ATOM     17  N   UNL d   1       3.275   7.375   2.538  0.00  0.00    -0.263 NA
ATOM     18  H   UNL d   1       2.955   8.338   2.545  0.00  0.00     0.130 HD
BRANCH  17  19
ATOM     19  C   UNL d   1       4.347   7.336   3.416  0.00  0.00     0.157 A 
ATOM     20  N   UNL d   1       4.364   8.304   4.338  0.00  0.00    -0.329 N 
ATOM     21  C   UNL d   1       5.383   8.308   5.238  0.00  0.00     0.120 A 
ATOM     22  HN  UNL d   1       3.635   9.018   4.364  1.00  0.00     0.168 HD
ATOM     23  C   UNL d   1       6.385   7.360   5.204  0.00  0.00     0.051 A 
ATOM     24  C   UNL d   1       6.288   6.416   4.213  0.00  0.00     0.093 A 
ATOM     25  N   UNL d   1       5.283   6.385   3.320  0.00  0.00    -0.343 N 
ATOM     26  HN  UNL d   1       5.236   5.665   2.598  1.00  0.00     0.167 HD
BRANCH  21  27
ATOM     27  C   UNL d   1       5.407   9.370   6.321  0.00  0.00     0.432 C 
ATOM     28  F   UNL d   1       4.417  10.300   6.224  0.00  0.00    -0.165 F 
ATOM     29  F   UNL d   1       6.578  10.076   6.327  0.00  0.00    -0.165 F 
ATOM     30  F   UNL d   1       5.301   8.838   7.573  0.00  0.00    -0.165 F 
ENDBRANCH  21  27
ENDBRANCH  17  19
ENDBRANCH  16  17
ENDBRANCH   1  16
TORSDOF 7
