REMARK  10 active torsions:
REMARK  status: ('A' for Active; 'I' for Inactive)
REMARK    1  A    between atoms: C_3  and  C_1 
REMARK    2  A    between atoms: N_4  and  C_2 
REMARK    3  A    between atoms: O_17  and  C_3 
REMARK       I    between atoms: C_9  and  N_4 
REMARK    4  A    between atoms: C_5  and  C_6 
REMARK    5  A    between atoms: O_18  and  C_5 
REMARK    6  A    between atoms: C_20  and  C_9 
REMARK    7  A    between atoms: C_10  and  C_21 
REMARK    8  A    between atoms: O_19  and  C_10 
REMARK    9  A    between atoms: S_16  and  C_20 
REMARK   10  A    between atoms: C_21  and  S_16 
ROOT
ATOM      1  C   UNL d   1       1.493  -0.279  -0.000  0.00  0.00     0.066 A 
ATOM      2  C   UNL d   1       0.627  -1.390  -0.045  0.00  0.00     0.052 A 
ATOM      3  C   UNL d   1      -1.297   0.120  -0.012  0.00  0.00     0.041 A 
ATOM      4  C   UNL d   1      -0.765  -1.180  -0.007  0.00  0.00     0.048 A 
ATOM      5  C   UNL d   1       0.950   1.018   0.012  0.00  0.00     0.021 A 
ATOM      6  C   UNL d   1      -0.430   1.216  -0.004  0.00  0.00     0.019 A 
ENDROOT
BRANCH   2   7
ATOM      7  N   UNL d   1       1.046  -2.738  -0.140  0.00  0.00    -0.326 N 
ATOM      8  C   UNL d   1       2.022  -3.170  -1.024  0.00  0.00     0.231 C 
ATOM      9  O   UNL d   1       2.529  -2.487  -1.915  0.00  0.00    -0.272 OA
ATOM     10  H   UNL d   1       0.372  -3.452   0.122  0.00  0.00     0.169 HD
BRANCH   8  11
ATOM     11  C   UNL d   1       2.321  -4.654  -0.919  0.00  0.00     0.177 C 
BRANCH  11  12
ATOM     12  S   UNL d   1       1.066  -5.609  -1.833  0.00  0.00    -0.149 SA
BRANCH  12  13
ATOM     13  C   UNL d   1       1.271  -4.936  -3.520  0.00  0.00     0.184 C 
BRANCH  13  14
ATOM     14  C   UNL d   1       2.674  -5.113  -4.054  0.00  0.00     0.149 C 
ATOM     15  O   UNL d   1       3.086  -6.146  -4.563  0.00  0.00    -0.649 OA
BRANCH  14  16
ATOM     16  O   UNL d   1       3.469  -4.028  -3.898  0.00  0.00    -0.776 OA
ATOM     17  H   UNL d   1       3.075  -3.261  -3.414  0.00  0.00     0.167 HD
ENDBRANCH  14  16
ENDBRANCH  13  14
ENDBRANCH  12  13
ENDBRANCH  11  12
ENDBRANCH   8  11
ENDBRANCH   2   7
BRANCH   1  18
ATOM     18  C   UNL d   1       2.969  -0.336   0.154  0.00  0.00     0.295 C 
ATOM     19  O   UNL d   1       3.716   0.532  -0.275  0.00  0.00    -0.259 OA
BRANCH  18  20
ATOM     20  O   UNL d   1       3.326  -1.355   0.976  0.00  0.00    -0.322 OA
ATOM     21  C   UNL d   1       4.711  -1.347   1.335  0.00  0.00     0.213 C 
ENDBRANCH  18  20
ENDBRANCH   1  18
BRANCH   3  22
ATOM     22  C   UNL d   1      -2.759   0.397  -0.065  0.00  0.00     0.293 C 
ATOM     23  O   UNL d   1      -3.225   1.525  -0.032  0.00  0.00    -0.259 OA
BRANCH  22  24
ATOM     24  O   UNL d   1      -3.468  -0.751  -0.185  0.00  0.00    -0.323 OA
ATOM     25  C   UNL d   1      -4.878  -0.535  -0.313  0.00  0.00     0.213 C 
ENDBRANCH  22  24
ENDBRANCH   3  22
TORSDOF 10
