REMARK  2 active torsions:
REMARK  status: ('A' for Active; 'I' for Inactive)
REMARK    1  A    between atoms: C_10  and  C_4 
REMARK    2  A    between atoms: C_8  and  C_11 
ROOT
ATOM      1  N   UNL d   1       1.247  -1.419  -0.019  0.00  0.00    -0.334 N 
ATOM      2  HN  UNL d   1       1.269  -2.438  -0.040  1.00  0.00     0.168 HD
ATOM      3  C   UNL d   1       0.016   0.659   0.001  0.00  0.00     0.068 A 
ATOM      4  C   UNL d   1       2.338  -0.732   0.005  0.00  0.00     0.162 A 
ATOM      5  C   UNL d   1       0.035  -0.727  -0.015  0.00  0.00     0.068 A 
ATOM      6  C   UNL d   1       1.306   1.363   0.020  0.00  0.00     0.302 A 
ATOM      7  O   UNL d   1       2.434   0.613   0.025  0.00  0.00    -0.257 OA
ATOM      8  C   UNL d   1      -1.190  -1.409  -0.019  0.00  0.00     0.039 A 
ATOM      9  C   UNL d   1      -1.190   1.374   0.006  0.00  0.00     0.026 A 
ATOM     10  O   UNL d   1       1.351   2.588   0.034  0.00  0.00    -0.259 OA
ATOM     11  C   UNL d   1      -2.403  -0.709  -0.012  0.00  0.00     0.028 A 
ATOM     12  C   UNL d   1      -2.412   0.690  -0.002  0.00  0.00    -0.060 A 
ATOM     13 BR   UNL d   1      -1.258  -3.308  -0.029  0.00  0.00    -0.049 Br
ATOM     14  C   UNL d   1      -3.703   1.452   0.002  0.00  0.00     0.048 C 
ENDROOT
BRANCH   4  15
ATOM     15  C   UNL d   1       3.678  -1.375   0.022  0.00  0.00     0.016 A 
ATOM     16  C   UNL d   1       4.865  -0.632   0.096  0.00  0.00     0.032 A 
ATOM     17  C   UNL d   1       6.112  -1.280   0.145  0.00  0.00     0.048 A 
ATOM     18  C   UNL d   1       6.155  -2.683   0.107  0.00  0.00     0.016 A 
ATOM     19  C   UNL d   1       4.979  -3.427   0.024  0.00  0.00     0.002 A 
ATOM     20  C   UNL d   1       3.746  -2.776  -0.017  0.00  0.00     0.016 A 
BRANCH  17  21
ATOM     21  C   UNL d   1       7.398  -0.496   0.253  0.00  0.00     0.417 C 
ATOM     22  F   UNL d   1       7.212   0.853   0.272  0.00  0.00    -0.166 F 
ATOM     23  F   UNL d   1       8.090  -0.793   1.387  0.00  0.00    -0.166 F 
ATOM     24  F   UNL d   1       8.247  -0.743  -0.781  0.00  0.00    -0.166 F 
ENDBRANCH  17  21
ENDBRANCH   4  15
TORSDOF 2
