REMARK  4 active torsions:
REMARK  status: ('A' for Active; 'I' for Inactive)
REMARK    1  A    between atoms: N_7  and  C_1 
REMARK    2  A    between atoms: C_8  and  C_4 
REMARK    3  A    between atoms: C_16  and  N_7 
REMARK    4  A    between atoms: C_9  and  C_10 
ROOT
ATOM      1  C   UNL d   1      -1.550   0.286  -0.083  0.00  0.00     0.150 A 
ATOM      2  N   UNL d   1      -1.380  -1.011   0.040  0.00  0.00    -0.335 N 
ATOM      3  HN  UNL d   1      -2.143  -1.681   0.136  1.00  0.00     0.168 HD
ATOM      4  C   UNL d   1      -0.037  -1.355   0.024  0.00  0.00     0.057 A 
ATOM      5  S   UNL d   1      -0.085   1.175  -0.214  0.00  0.00    -0.057 SA
ATOM      6  C   UNL d   1       0.830  -0.277  -0.078  0.00  0.00     0.010 A 
ATOM      7  C   UNL d   1       2.317  -0.204  -0.125  0.00  0.00     0.059 C 
ENDROOT
BRANCH   4   8
ATOM      8  C   UNL d   1       0.331  -2.771   0.057  0.00  0.00    -0.008 A 
ATOM      9  C   UNL d   1      -0.524  -3.712  -0.532  0.00  0.00     0.014 A 
ATOM     10  C   UNL d   1      -0.214  -5.081  -0.527  0.00  0.00     0.013 A 
ATOM     11  C   UNL d   1       0.970  -5.563   0.059  0.00  0.00    -0.023 A 
ATOM     12  C   UNL d   1       1.812  -4.606   0.651  0.00  0.00     0.013 A 
ATOM     13  C   UNL d   1       1.492  -3.240   0.669  0.00  0.00     0.014 A 
BRANCH  11  14
ATOM     14  C   UNL d   1       1.314  -7.007   0.058  0.00  0.00     0.013 A 
ATOM     15  C   UNL d   1       2.016  -7.616   1.116  0.00  0.00     0.127 A 
ATOM     16  F   UNL d   1       2.378  -6.907   2.197  0.00  0.00    -0.205 F 
ATOM     17  C   UNL d   1       2.357  -8.970   1.104  0.00  0.00     0.043 A 
ATOM     18  C   UNL d   1       1.989  -9.769   0.028  0.00  0.00     0.003 A 
ATOM     19  C   UNL d   1       1.285  -9.207  -1.032  0.00  0.00     0.001 A 
ATOM     20  C   UNL d   1       0.959  -7.844  -1.019  0.00  0.00     0.015 A 
ENDBRANCH  11  14
ENDBRANCH   4   8
BRANCH   1  21
ATOM     21  N   UNL d   1      -2.739   0.929  -0.158  0.00  0.00    -0.337 N 
ATOM     22  H   UNL d   1      -2.739   1.899  -0.438  0.00  0.00     0.168 HD
BRANCH  21  23
ATOM     23  C   UNL d   1      -3.964   0.472   0.358  0.00  0.00     0.034 A 
ATOM     24  C   UNL d   1      -4.051  -0.458   1.404  0.00  0.00     0.029 A 
ATOM     25  C   UNL d   1      -5.287  -0.907   1.872  0.00  0.00     0.002 A 
ATOM     26  C   UNL d   1      -6.461  -0.460   1.274  0.00  0.00     0.000 A 
ATOM     27  C   UNL d   1      -6.397   0.441   0.213  0.00  0.00     0.002 A 
ATOM     28  C   UNL d   1      -5.158   0.906  -0.237  0.00  0.00     0.029 A 
ENDBRANCH  21  23
ENDBRANCH   1  21
TORSDOF 4
