REMARK  2 active torsions:
REMARK  status: ('A' for Active; 'I' for Inactive)
REMARK    1  A    between atoms: C_16  and  N_8 
REMARK    2  A    between atoms: C_13  and  C_16 
ROOT
ATOM      1  C   UNL d   1       0.066  -0.741   0.077  0.00  0.00     0.101 A 
ATOM      2  C   UNL d   1       0.016   0.604   0.055  0.00  0.00     0.077 A 
ATOM      3  N   UNL d   1       1.283  -1.383  -0.055  0.00  0.00    -0.293 N 
ATOM      4  N   UNL d   1       2.441   0.675  -0.035  0.00  0.00    -0.270 N 
ATOM      5  C   UNL d   1       2.503  -0.708  -0.111  0.00  0.00     0.332 A 
ATOM      6  C   UNL d   1       1.263   1.391   0.011  0.00  0.00     0.262 A 
ATOM      7  N   UNL d   1      -1.127  -1.440   0.232  0.00  0.00    -0.252 NA
ATOM      8  N   UNL d   1      -2.465   0.548  -0.295  0.00  0.00     0.106 N 
ATOM      9  C   UNL d   1      -1.284   1.371   0.064  0.00  0.00     0.321 C 
ATOM     10  C   UNL d   1      -2.364  -0.702   0.443  0.00  0.00     0.368 C 
ATOM     11  O   UNL d   1       3.573  -1.313  -0.212  0.00  0.00    -0.246 OA
ATOM     12  O   UNL d   1       1.214   2.621   0.036  0.00  0.00    -0.267 OA
ATOM     13  C   UNL d   1       1.371  -2.836  -0.087  0.00  0.00     0.162 C 
ATOM     14  C   UNL d   1       3.678   1.431  -0.013  0.00  0.00     0.164 C 
ATOM     15  H   UNL d   1      -1.233  -2.120  -0.516  0.00  0.00     0.130 HD
ENDROOT
BRANCH   8  16
ATOM     16  C   UNL d   1      -3.706   1.282  -0.043  0.00  0.00     0.279 C 
BRANCH  16  17
ATOM     17  C   UNL d   1      -4.914   0.482  -0.448  0.00  0.00     0.014 A 
ATOM     18  C   UNL d   1      -6.298   1.049  -0.247  0.00  0.00     0.007 A 
ATOM     19  C   UNL d   1      -5.833  -0.101   0.600  0.00  0.00     0.007 A 
ENDBRANCH  16  17
ENDBRANCH   8  16
TORSDOF 2
