REMARK  2 active torsions:
REMARK  status: ('A' for Active; 'I' for Inactive)
REMARK    1  A    between atoms: C_12  and  C_3 
REMARK    2  A    between atoms: O_17  and  N_14 
ROOT
ATOM      1  N   UNL d   1      -0.287  -0.702  -0.069  0.00  0.00    -0.241 N 
ATOM      2  C   UNL d   1      -0.183   0.653  -0.341  0.00  0.00     0.143 A 
ATOM      3  C   UNL d   1       2.031  -0.847  -0.226  0.00  0.00     0.096 A 
ATOM      4  C   UNL d   1       0.869  -1.490   0.025  0.00  0.00     0.062 A 
ATOM      5  N   UNL d   1       2.073   0.511  -0.518  0.00  0.00    -0.295 N 
ATOM      6  HN  UNL d   1       2.975   0.947  -0.708  1.00  0.00     0.187 HD
ATOM      7  N   UNL d   1       1.033   1.220  -0.557  0.00  0.00    -0.283 N 
ATOM      8  HN  UNL d   1       1.104   2.220  -0.750  1.00  0.00     0.188 HD
ATOM      9  N   UNL d   1      -1.585  -1.073   0.102  0.00  0.00    -0.297 N 
ATOM     10  HN  UNL d   1      -1.943  -2.006   0.306  1.00  0.00     0.187 HD
ATOM     11  C   UNL d   1      -1.459   1.161  -0.311  0.00  0.00     0.077 A 
ATOM     12  C   UNL d   1      -2.290   0.052  -0.056  0.00  0.00     0.026 A 
ATOM     13  C   UNL d   1       0.682  -2.921   0.427  0.00  0.00     0.073 C 
ATOM     14  C   UNL d   1      -3.769   0.037   0.050  0.00  0.00     0.070 C 
ENDROOT
BRANCH   3  15
ATOM     15  C   UNL d   1       3.385  -1.508  -0.109  0.00  0.00     0.058 C 
ATOM     16  N   UNL d   1       3.800  -2.623  -0.629  0.00  0.00    -0.271 N 
ATOM     17  HN  UNL d   1       4.723  -3.018  -0.452  1.00  0.00     0.194 HD
ATOM     18  C   UNL d   1       4.428  -0.736   0.682  0.00  0.00     0.072 C 
BRANCH  16  19
ATOM     19  O   UNL d   1       2.848  -3.223  -1.455  0.00  0.00    -0.290 OA
ATOM     20  H   UNL d   1       3.288  -4.058  -1.705  0.00  0.00     0.244 HD
ENDBRANCH  16  19
ENDBRANCH   3  15
TORSDOF 2
