REMARK  1 active torsions:
REMARK  status: ('A' for Active; 'I' for Inactive)
REMARK    1  A    between atoms: C_2  and  C_1 
ROOT
ATOM      1  C   UNL d   1       0.470   2.370  -0.046  0.00  0.00     0.054 C 
ATOM      2  C   UNL d   1       0.140   3.062   1.062  0.00  0.00     0.126 C 
ATOM      3  N   UNL d   1       0.168   2.035   3.434  0.00  0.00    -0.191 NA
ATOM      4  N   UNL d   1      -0.551   5.537   0.790  0.00  0.00    -0.191 NA
ATOM      5  C   UNL d   1       0.156   2.493   2.368  0.00  0.00     0.111 C 
ATOM      6  C   UNL d   1      -0.243   4.427   0.929  0.00  0.00     0.111 C 
ENDROOT
BRANCH   1   7
ATOM      7  C   UNL d   1       0.856   1.002  -0.021  0.00  0.00     0.024 A 
ATOM      8  C   UNL d   1       0.093  -0.142  -0.145  0.00  0.00     0.028 A 
ATOM      9  C   UNL d   1       0.844  -1.344  -0.090  0.00  0.00     0.027 A 
ATOM     10 BR   UNL d   1      -1.784  -0.185  -0.375  0.00  0.00    -0.050 Br
ATOM     11  C   UNL d   1       2.188  -1.089   0.063  0.00  0.00     0.052 A 
ATOM     12  S   UNL d   1       2.522   0.588   0.132  0.00  0.00    -0.101 SA
ENDBRANCH   1   7
TORSDOF 1
