REMARK  4 active torsions:
REMARK  status: ('A' for Active; 'I' for Inactive)
REMARK    1  A    between atoms: N_8  and  C_2 
REMARK    2  A    between atoms: C_5  and  N_8 
REMARK    3  A    between atoms: N_10  and  C_5 
REMARK    4  A    between atoms: C_12  and  N_10 
ROOT
ATOM      1  C   UNL d   1       3.736   3.706  -1.310  0.00  0.00     0.168 C 
ATOM      2  S   UNL d   1       3.101   5.230  -1.499  0.00  0.00    -0.041 SA
ENDROOT
BRANCH   1   3
ATOM      3  N   UNL d   1       3.158   2.529  -1.686  0.00  0.00    -0.362 N 
ATOM      4  H   UNL d   1       3.717   1.708  -1.567  0.00  0.00     0.162 HD
BRANCH   3   5
ATOM      5  C   UNL d   1       1.859   2.261  -2.309  0.00  0.00     0.089 C 
ATOM      6  C   UNL d   1       1.733   0.734  -2.590  0.00  0.00     0.017 C 
ATOM      7  C   UNL d   1       0.270   0.406  -2.951  0.00  0.00     0.018 A 
ATOM      8  C   UNL d   1       2.449   0.620  -3.945  0.00  0.00     0.012 C 
ATOM      9  C   UNL d   1       0.108   1.064  -4.344  0.00  0.00     0.001 A 
ATOM     10  C   UNL d   1      -0.001  -1.045  -3.210  0.00  0.00    -0.025 A 
ATOM     11  C   UNL d   1      -0.324  -0.043  -5.315  0.00  0.00     0.032 A 
ATOM     12  C   UNL d   1       1.523   1.632  -4.618  0.00  0.00    -0.007 C 
ATOM     13  C   UNL d   1      -0.327  -1.282  -4.484  0.00  0.00    -0.030 A 
ATOM     14  C   UNL d   1       1.731   2.866  -3.721  0.00  0.00     0.030 C 
ENDBRANCH   3   5
ENDBRANCH   1   3
BRANCH   1  15
ATOM     15  N   UNL d   1       4.963   3.571  -0.698  0.00  0.00    -0.363 N 
ATOM     16  H   UNL d   1       5.362   4.458  -0.405  0.00  0.00     0.162 HD
BRANCH  15  17
ATOM     17  C   UNL d   1       5.380   2.379   0.024  0.00  0.00     0.085 C 
ATOM     18  C   UNL d   1       6.312   2.657   1.209  0.00  0.00     0.034 C 
ATOM     19  C   UNL d   1       6.487   1.381   2.079  0.00  0.00    -0.045 C 
ATOM     20  C   UNL d   1       7.618   1.616   3.097  0.00  0.00     0.015 C 
ATOM     21  C   UNL d   1       5.192   1.114   2.877  0.00  0.00     0.015 C 
ATOM     22  C   UNL d   1       6.851   0.142   1.206  0.00  0.00     0.013 C 
ATOM     23  C   UNL d   1       6.028  -0.000  -0.089  0.00  0.00    -0.016 C 
ATOM     24  C   UNL d   1       6.046   1.321  -0.864  0.00  0.00     0.029 C 
ATOM     25  C   UNL d   1       6.528  -1.150  -0.957  0.00  0.00     0.010 C 
ENDBRANCH  15  17
ENDBRANCH   1  15
TORSDOF 4
