REMARK  5 active torsions:
REMARK  status: ('A' for Active; 'I' for Inactive)
REMARK    1  A    between atoms: C_8  and  N_3 
REMARK    2  A    between atoms: C_9  and  C_8 
REMARK       I    between atoms: N_12  and  C_9 
REMARK    3  A    between atoms: C_11  and  N_13 
REMARK    4  A    between atoms: N_16  and  C_11 
REMARK    5  A    between atoms: N_13  and  N_12 
ROOT
ATOM      1  N   UNL d   1      -0.153  -0.729   1.203  0.00  0.00    -0.115 N 
ATOM      2  HN  UNL d   1      -0.040  -1.215   2.092  1.00  0.00     0.207 HD
ATOM      3  N   UNL d   1       0.754  -0.487   0.231  0.00  0.00    -0.189 N 
ATOM      4  C   UNL d   1      -1.240  -0.154   0.675  0.00  0.00     0.709 A 
ATOM      5  N   UNL d   1      -0.985   0.415  -0.551  0.00  0.00    -0.113 N 
ATOM      6  HN  UNL d   1      -1.654   0.915  -1.136  1.00  0.00     0.203 HD
ATOM      7  N   UNL d   1       0.290   0.192  -0.829  0.00  0.00     0.012 NA
ATOM      8  N   UNL d   1      -2.482  -0.160   1.199  0.00  0.00    -0.211 N 
ATOM      9  O   UNL d   1      -5.119  -0.838   1.993  0.00  0.00    -0.388 OA
ATOM     10  C   UNL d   1      -3.624   0.432   0.506  0.00  0.00     0.167 C 
ATOM     11  C   UNL d   1      -2.744  -0.554   2.580  0.00  0.00     0.167 C 
ATOM     12  C   UNL d   1      -3.984  -1.461   2.621  0.00  0.00     0.188 C 
ATOM     13  C   UNL d   1      -4.825  -0.522   0.621  0.00  0.00     0.188 C 
ENDROOT
BRANCH   3  14
ATOM     14  C   UNL d   1       2.036  -1.168   0.179  0.00  0.00     0.215 C 
ATOM     15  C   UNL d   1       1.856  -2.643  -0.169  0.00  0.00     0.046 C 
BRANCH  14  16
ATOM     16  C   UNL d   1       2.865  -1.002   1.444  0.00  0.00     0.262 C 
ATOM     17  N   UNL d   1       2.200  -0.887   2.647  0.00  0.00    -0.266 N 
ATOM     18  H   UNL d   1       1.193  -0.691   2.696  0.00  0.00     0.190 HD
ATOM     19  O   UNL d   1       4.100  -1.067   1.407  0.00  0.00    -0.269 OA
BRANCH  17  20
ATOM     20  N   UNL d   1       2.955  -0.645   3.808  0.00  0.00    -0.274 N 
ATOM     21  H   UNL d   1       3.961  -0.754   3.681  0.00  0.00     0.189 HD
BRANCH  20  22
ATOM     22  C   UNL d   1       2.493   0.213   4.800  0.00  0.00     0.186 C 
ATOM     23  S   UNL d   1       0.997   0.965   4.758  0.00  0.00    -0.040 SA
BRANCH  22  24
ATOM     24  N   UNL d   1       3.414   0.318   5.825  0.00  0.00    -0.370 N 
ATOM     25  C   UNL d   1       3.260   1.037   7.078  0.00  0.00     0.148 C 
ATOM     26  H   UNL d   1       4.186  -0.334   5.795  0.00  0.00     0.161 HD
ENDBRANCH  22  24
ENDBRANCH  20  22
ENDBRANCH  17  20
ENDBRANCH  14  16
ENDBRANCH   3  14
TORSDOF 5
