REMARK  7 active torsions:
REMARK  status: ('A' for Active; 'I' for Inactive)
REMARK    1  A    between atoms: C_3  and  C_1 
REMARK       I    between atoms: C_2  and  N_10 
REMARK    2  A    between atoms: C_4  and  C_2 
REMARK    3  A    between atoms: N_10  and  C_22 
REMARK    4  A    between atoms: C_21  and  C_14 
REMARK    5  A    between atoms: S_18  and  C_21 
REMARK    6  A    between atoms: C_24  and  S_18 
REMARK    7  A    between atoms: C_22  and  C_24 
ROOT
ATOM      1  C   UNL d   1       0.937  -6.183   2.396  0.00  0.00     0.093 C 
ENDROOT
BRANCH   1   2
ATOM      2  C   UNL d   1       1.341  -7.111   1.245  0.00  0.00     0.133 C 
BRANCH   2   3
ATOM      3  N   UNL d   1       1.601  -8.486   1.634  0.00  0.00    -0.356 N 
ATOM      4  C   UNL d   1       0.585  -9.358   1.961  0.00  0.00     0.251 C 
ATOM      5  O   UNL d   1      -0.567  -9.011   2.178  0.00  0.00    -0.268 OA
ATOM      6  H   UNL d   1       2.546  -8.834   1.540  0.00  0.00     0.162 HD
BRANCH   4   7
ATOM      7  C   UNL d   1       0.969 -10.793   2.055  0.00  0.00     0.032 A 
ATOM      8  C   UNL d   1       0.363 -11.590   3.034  0.00  0.00     0.018 A 
ATOM      9  C   UNL d   1       0.697 -12.944   3.141  0.00  0.00     0.025 A 
ATOM     10  C   UNL d   1       1.622 -13.502   2.259  0.00  0.00     0.034 A 
ATOM     11  C   UNL d   1       2.209 -12.721   1.263  0.00  0.00     0.025 A 
ATOM     12 CL   UNL d   1       2.034 -15.166   2.392  0.00  0.00    -0.084 Cl
ATOM     13  C   UNL d   1       1.883 -11.366   1.158  0.00  0.00     0.018 A 
ENDBRANCH   4   7
ENDBRANCH   2   3
ENDBRANCH   1   2
BRANCH   1  14
ATOM     14  S   UNL d   1       0.814  -4.480   1.739  0.00  0.00    -0.163 SA
BRANCH  14  15
ATOM     15  C   UNL d   1       0.280  -3.604   3.242  0.00  0.00     0.112 C 
BRANCH  15  16
ATOM     16  C   UNL d   1       0.053  -2.138   2.949  0.00  0.00    -0.048 A 
ATOM     17  C   UNL d   1       1.113  -1.217   3.031  0.00  0.00     0.024 A 
ATOM     18  C   UNL d   1       0.919   0.141   2.727  0.00  0.00     0.048 A 
ATOM     19  C   UNL d   1      -0.354   0.573   2.326  0.00  0.00     0.016 A 
ATOM     20  C   UNL d   1      -1.411  -0.334   2.233  0.00  0.00     0.001 A 
ATOM     21  C   UNL d   1      -1.207  -1.679   2.541  0.00  0.00     0.008 A 
BRANCH  18  22
ATOM     22  C   UNL d   1       2.052   1.133   2.818  0.00  0.00     0.417 C 
ATOM     23  F   UNL d   1       3.226   0.587   3.244  0.00  0.00    -0.166 F 
ATOM     24  F   UNL d   1       1.783   2.151   3.683  0.00  0.00    -0.166 F 
ATOM     25  F   UNL d   1       2.329   1.726   1.623  0.00  0.00    -0.166 F 
ENDBRANCH  18  22
ENDBRANCH  15  16
ENDBRANCH  14  15
ENDBRANCH   1  14
TORSDOF 7
