REMARK  7 active torsions:
REMARK  status: ('A' for Active; 'I' for Inactive)
REMARK    1  A    between atoms: O_6  and  C_1 
REMARK    2  A    between atoms: S_13  and  C_4 
REMARK    3  A    between atoms: C_10  and  O_6 
REMARK    4  A    between atoms: C_9  and  C_12 
REMARK    5  A    between atoms: C_14  and  C_10 
REMARK    6  A    between atoms: C_12  and  S_13 
REMARK    7  A    between atoms: C_17  and  C_18 
ROOT
ATOM      1  C   UNL d   1      -0.664   0.830  -0.257  0.00  0.00     0.161 A 
ATOM      2  N   UNL d   1      -1.299  -0.329  -0.519  0.00  0.00    -0.317 N 
ATOM      3  HN  UNL d   1      -2.301  -0.374  -0.705  1.00  0.00     0.170 HD
ATOM      4  C   UNL d   1      -0.522  -1.415  -0.519  0.00  0.00     0.146 A 
ATOM      5  C   UNL d   1       0.692   0.967  -0.012  0.00  0.00     0.012 A 
ATOM      6  N   UNL d   1       0.801  -1.410  -0.263  0.00  0.00    -0.340 N 
ATOM      7  HN  UNL d   1       1.338  -2.277  -0.255  1.00  0.00     0.167 HD
ATOM      8  C   UNL d   1       1.394  -0.224  -0.017  0.00  0.00     0.017 A 
ATOM      9  C   UNL d   1       1.367   2.298   0.105  0.00  0.00     0.055 C 
ATOM     10  C   UNL d   1       2.890  -0.261   0.107  0.00  0.00     0.069 C 
ENDROOT
BRANCH   1  11
ATOM     11  O   UNL d   1      -1.335   1.985  -0.694  0.00  0.00    -0.257 OA
BRANCH  11  12
ATOM     12  C   UNL d   1      -2.289   2.583   0.096  0.00  0.00     0.299 C 
ATOM     13  O   UNL d   1      -2.595   2.307   1.242  0.00  0.00    -0.259 OA
BRANCH  12  14
ATOM     14  C   UNL d   1      -2.839   3.715  -0.710  0.00  0.00     0.040 A 
ATOM     15  C   UNL d   1      -3.679   4.662  -0.126  0.00  0.00     0.018 A 
ATOM     16  C   UNL d   1      -4.215   5.702  -0.906  0.00  0.00     0.009 A 
ATOM     17  C   UNL d   1      -3.938   5.809  -2.287  0.00  0.00    -0.051 A 
ATOM     18  C   UNL d   1      -3.049   4.880  -2.837  0.00  0.00     0.009 A 
ATOM     19  C   UNL d   1      -2.519   3.844  -2.069  0.00  0.00     0.018 A 
BRANCH  17  20
ATOM     20  C   UNL d   1      -4.638   6.863  -3.163  0.00  0.00    -0.024 C 
ATOM     21  C   UNL d   1      -4.297   6.738  -4.669  0.00  0.00     0.019 C 
ATOM     22  C   UNL d   1      -6.166   6.682  -3.035  0.00  0.00     0.019 C 
ATOM     23  C   UNL d   1      -4.246   8.285  -2.721  0.00  0.00     0.019 C 
ENDBRANCH  17  20
ENDBRANCH  12  14
ENDBRANCH  11  12
ENDBRANCH   1  11
BRANCH   4  24
ATOM     24  S   UNL d   1      -1.155  -2.962  -1.128  0.00  0.00    -0.089 SA
BRANCH  24  25
ATOM     25  C   UNL d   1      -2.916  -2.627  -1.245  0.00  0.00     0.126 C 
BRANCH  25  26
ATOM     26  C   UNL d   1      -3.564  -1.920  -2.418  0.00  0.00     0.012 A 
ATOM     27  C   UNL d   1      -2.994  -1.203  -3.480  0.00  0.00     0.044 A 
ATOM     28 CL   UNL d   1      -1.302  -1.054  -3.790  0.00  0.00    -0.084 Cl
ATOM     29  C   UNL d   1      -3.811  -0.545  -4.423  0.00  0.00     0.024 A 
ATOM     30  C   UNL d   1      -5.200  -0.604  -4.349  0.00  0.00     0.005 A 
ATOM     31  C   UNL d   1      -5.787  -1.334  -3.331  0.00  0.00     0.043 A 
ATOM     32  C   UNL d   1      -4.977  -1.969  -2.391  0.00  0.00     0.125 A 
ATOM     33  F   UNL d   1      -5.590  -2.661  -1.417  0.00  0.00    -0.205 F 
ENDBRANCH  25  26
ENDBRANCH  24  25
ENDBRANCH   4  24
TORSDOF 7
