REMARK  8 active torsions:
REMARK  status: ('A' for Active; 'I' for Inactive)
REMARK    1  A    between atoms: C_6  and  C_1 
REMARK       I    between atoms: C_2  and  N_4 
REMARK    2  A    between atoms: C_10  and  C_2 
REMARK    3  A    between atoms: C_3  and  C_11 
REMARK    4  A    between atoms: N_5  and  C_7 
REMARK    5  A    between atoms: O_13  and  C_10 
REMARK    6  A    between atoms: C_30  and  O_13 
REMARK    7  A    between atoms: O_27  and  C_32 
REMARK    8  A    between atoms: C_31  and  O_27 
ROOT
ATOM      1  C   UNL d   1      -2.781   6.883   7.186  0.00  0.00     0.216 C 
ATOM      2  C   UNL d   1      -3.509   7.032   5.853  0.00  0.00     0.050 C 
ENDROOT
BRANCH   1   3
ATOM      3  C   UNL d   1      -2.229   5.443   7.354  0.00  0.00     0.249 C 
ATOM      4  N   UNL d   1      -0.998   5.084   6.836  0.00  0.00    -0.347 N 
ATOM      5  C   UNL d   1      -0.465   3.743   7.127  0.00  0.00     0.145 C 
ATOM      6  C   UNL d   1      -0.241   5.808   5.806  0.00  0.00     0.145 C 
ATOM      7  C   UNL d   1       1.049   3.751   7.437  0.00  0.00     0.144 C 
ATOM      8  N   UNL d   1       1.790   4.534   6.444  0.00  0.00    -0.364 N 
ATOM      9  C   UNL d   1       1.256   5.872   6.147  0.00  0.00     0.144 C 
ATOM     10  O   UNL d   1      -2.906   4.630   7.996  0.00  0.00    -0.270 OA
BRANCH   8  11
ATOM     11  C   UNL d   1       2.805   4.019   5.672  0.00  0.00     0.103 A 
ATOM     12  C   UNL d   1       3.686   3.054   6.160  0.00  0.00     0.049 A 
ATOM     13  C   UNL d   1       4.757   2.613   5.376  0.00  0.00     0.021 A 
ATOM     14  C   UNL d   1       4.934   3.130   4.096  0.00  0.00     0.063 A 
ATOM     15  C   UNL d   1       4.005   4.059   3.668  0.00  0.00     0.106 A 
ATOM     16  N   UNL d   1       2.971   4.507   4.423  0.00  0.00    -0.352 N 
ATOM     17  HN  UNL d   1       2.326   5.205   4.053  1.00  0.00     0.166 HD
BRANCH  14  18
ATOM     18  C   UNL d   1       6.085   2.734   3.226  0.00  0.00     0.418 C 
ATOM     19  F   UNL d   1       6.080   3.334   2.003  0.00  0.00    -0.166 F 
ATOM     20  F   UNL d   1       6.122   1.395   2.982  0.00  0.00    -0.166 F 
ATOM     21  F   UNL d   1       7.289   3.042   3.784  0.00  0.00    -0.166 F 
ENDBRANCH  14  18
ENDBRANCH   8  11
ENDBRANCH   1   3
BRANCH   1  22
ATOM     22  O   UNL d   1      -1.851   7.957   7.310  0.00  0.00    -0.337 OA
BRANCH  22  23
ATOM     23  C   UNL d   1      -1.608   8.400   8.582  0.00  0.00     0.070 A 
ATOM     24  C   UNL d   1      -1.602   7.591   9.716  0.00  0.00     0.039 A 
ATOM     25  C   UNL d   1      -1.328   8.135  10.972  0.00  0.00     0.040 A 
ATOM     26  C   UNL d   1      -1.093   9.504  11.108  0.00  0.00     0.076 A 
ATOM     27  C   UNL d   1      -1.052  10.311   9.970  0.00  0.00     0.040 A 
ATOM     28  C   UNL d   1      -1.302   9.758   8.709  0.00  0.00     0.039 A 
BRANCH  26  29
ATOM     29  O   UNL d   1      -0.825  10.117  12.310  0.00  0.00    -0.311 OA
BRANCH  29  30
ATOM     30  C   UNL d   1      -1.453   9.663  13.449  0.00  0.00     0.076 A 
ATOM     31  C   UNL d   1      -0.701   9.683  14.624  0.00  0.00     0.038 A 
ATOM     32  C   UNL d   1      -1.271   9.271  15.832  0.00  0.00     0.019 A 
ATOM     33  C   UNL d   1      -2.606   8.840  15.878  0.00  0.00     0.048 A 
ATOM     34  C   UNL d   1      -3.358   8.835  14.692  0.00  0.00     0.019 A 
ATOM     35  C   UNL d   1      -2.792   9.266  13.490  0.00  0.00     0.038 A 
BRANCH  33  36
ATOM     36  C   UNL d   1      -3.248   8.404  17.173  0.00  0.00     0.417 C 
ATOM     37  F   UNL d   1      -2.423   8.503  18.253  0.00  0.00    -0.166 F 
ATOM     38  F   UNL d   1      -4.352   9.141  17.479  0.00  0.00    -0.166 F 
ATOM     39  F   UNL d   1      -3.663   7.107  17.139  0.00  0.00    -0.166 F 
ENDBRANCH  33  36
ENDBRANCH  29  30
ENDBRANCH  26  29
ENDBRANCH  22  23
ENDBRANCH   1  22
TORSDOF 8
