REMARK  8 active torsions:
REMARK  status: ('A' for Active; 'I' for Inactive)
REMARK    1  A    between atoms: C_7  and  C_1 
REMARK    2  A    between atoms: C_9  and  C_2 
REMARK    3  A    between atoms: N_10  and  N_5 
REMARK    4  A    between atoms: N_17  and  C_8 
REMARK    5  A    between atoms: S_19  and  C_8 
REMARK    6  A    between atoms: O_20  and  C_9 
REMARK    7  A    between atoms: C_12  and  N_17 
REMARK    8  A    between atoms: C_25  and  O_20 
ROOT
ATOM      1  C   UNL d   1      -8.078  -2.050   0.235  0.00  0.00     0.135 C 
ATOM      2  C   UNL d   1      -6.741  -2.166   0.304  0.00  0.00     0.119 C 
ATOM      3  C   UNL d   1      -8.676  -0.937  -0.415  0.00  0.00     0.107 C 
ATOM      4  N   UNL d   1      -9.097   0.007  -0.940  0.00  0.00    -0.191 NA
ENDROOT
BRANCH   1   5
ATOM      5  C   UNL d   1      -9.010  -3.032   0.848  0.00  0.00     0.305 C 
ATOM      6  O   UNL d   1     -10.216  -3.025   0.644  0.00  0.00    -0.258 OA
BRANCH   5   7
ATOM      7  O   UNL d   1      -8.379  -3.853   1.729  0.00  0.00    -0.317 OA
BRANCH   7   8
ATOM      8  C   UNL d   1      -9.233  -4.545   2.657  0.00  0.00     0.174 C 
ATOM      9  C   UNL d   1      -9.511  -5.968   2.214  0.00  0.00     0.034 C 
ENDBRANCH   7   8
ENDBRANCH   5   7
ENDBRANCH   1   5
BRANCH   2  10
ATOM     10  N   UNL d   1      -5.759  -1.295  -0.150  0.00  0.00    -0.344 N 
ATOM     11  H   UNL d   1      -6.077  -0.368  -0.423  0.00  0.00     0.167 HD
BRANCH  10  12
ATOM     12  C   UNL d   1      -4.381  -1.390  -0.098  0.00  0.00     0.158 C 
ATOM     13  N   UNL d   1      -3.590  -2.418  -0.067  0.00  0.00    -0.280 N 
ATOM     14  HN  UNL d   1      -2.581  -2.345   0.059  1.00  0.00     0.189 HD
BRANCH  13  15
ATOM     15  N   UNL d   1      -4.255  -3.624  -0.222  0.00  0.00    -0.301 N 
ATOM     16  C   UNL d   1      -3.526  -4.700  -0.249  0.00  0.00     0.056 C 
ATOM     17  C   UNL d   1      -2.028  -4.745  -0.087  0.00  0.00     0.072 C 
ATOM     18  HN  UNL d   1      -5.271  -3.666  -0.312  1.00  0.00     0.186 HD
BRANCH  16  19
ATOM     19  C   UNL d   1      -4.240  -5.944  -0.440  0.00  0.00     0.100 A 
ATOM     20  O   UNL d   1      -3.574  -7.138  -0.375  0.00  0.00    -0.308 OA
ATOM     21  C   UNL d   1      -4.499  -8.124  -0.560  0.00  0.00     0.086 A 
ATOM     22  C   UNL d   1      -4.247  -9.493  -0.537  0.00  0.00     0.038 A 
ATOM     23  C   UNL d   1      -5.759  -7.575  -0.767  0.00  0.00     0.001 A 
ATOM     24  C   UNL d   1      -5.350 -10.335  -0.727  0.00  0.00     0.003 A 
ATOM     25  C   UNL d   1      -6.628  -9.817  -0.951  0.00  0.00     0.001 A 
ATOM     26  C   UNL d   1      -6.849  -8.434  -0.983  0.00  0.00     0.014 A 
ATOM     27  C   UNL d   1      -5.582  -6.174  -0.687  0.00  0.00     0.053 A 
ENDBRANCH  16  19
ENDBRANCH  13  15
BRANCH  12  28
ATOM     28  S   UNL d   1      -3.659   0.227  -0.102  0.00  0.00    -0.097 SA
ATOM     29  C   UNL d   1      -1.898  -0.151   0.002  0.00  0.00     0.099 C 
ENDBRANCH  12  28
ENDBRANCH  10  12
ENDBRANCH   2  10
TORSDOF 8
