REMARK  8 active torsions:
REMARK  status: ('A' for Active; 'I' for Inactive)
REMARK    1  A    between atoms: N_2  and  C_1 
REMARK    2  A    between atoms: C_3  and  C_1 
REMARK    3  A    between atoms: C_5  and  C_1 
REMARK    4  A    between atoms: N_6  and  C_1 
REMARK       I    between atoms: C_4  and  N_2 
REMARK    5  A    between atoms: C_8  and  C_4 
REMARK    6  A    between atoms: O_14  and  C_5 
REMARK    7  A    between atoms: C_13  and  N_6 
REMARK    8  A    between atoms: C_22  and  O_14 
ROOT
ATOM      1  C   UNL d   1       0.892  -0.098   0.038  0.00  0.00     0.297 C 
ENDROOT
BRANCH   1   2
ATOM      2  N   UNL d   1       0.284  -1.432   0.164  0.00  0.00    -0.315 N 
ATOM      3  C   UNL d   1       0.144  -2.071   1.366  0.00  0.00     0.254 C 
ATOM      4  O   UNL d   1       0.498  -1.583   2.433  0.00  0.00    -0.268 OA
ATOM      5  H   UNL d   1      -0.193  -1.796  -0.652  0.00  0.00     0.166 HD
BRANCH   3   6
ATOM      6  C   UNL d   1      -0.494  -3.406   1.317  0.00  0.00     0.032 A 
ATOM      7  C   UNL d   1      -0.109  -4.347   0.352  0.00  0.00     0.017 A 
ATOM      8  C   UNL d   1      -0.679  -5.621   0.358  0.00  0.00     0.001 A 
ATOM      9  C   UNL d   1      -1.638  -5.954   1.316  0.00  0.00     0.000 A 
ATOM     10  C   UNL d   1      -2.032  -5.015   2.271  0.00  0.00     0.001 A 
ATOM     11  C   UNL d   1      -1.456  -3.741   2.277  0.00  0.00     0.017 A 
ENDBRANCH   3   6
ENDBRANCH   1   2
BRANCH   1  12
ATOM     12  C   UNL d   1       0.377   0.987   1.056  0.00  0.00     0.442 C 
ATOM     13  F   UNL d   1      -0.842   0.682   1.568  0.00  0.00    -0.166 F 
ATOM     14  F   UNL d   1       1.233   1.138   2.102  0.00  0.00    -0.166 F 
ATOM     15  F   UNL d   1       0.247   2.222   0.505  0.00  0.00    -0.166 F 
ENDBRANCH   1  12
BRANCH   1  16
ATOM     16  C   UNL d   1       0.465   0.499  -1.321  0.00  0.00     0.318 C 
ATOM     17  O   UNL d   1      -0.562   0.165  -1.908  0.00  0.00    -0.260 OA
BRANCH  16  18
ATOM     18  O   UNL d   1       1.372   1.396  -1.805  0.00  0.00    -0.318 OA
BRANCH  18  19
ATOM     19  C   UNL d   1       1.117   1.943  -3.106  0.00  0.00     0.174 C 
ATOM     20  C   UNL d   1       1.474   0.947  -4.195  0.00  0.00     0.034 C 
ENDBRANCH  18  19
ENDBRANCH  16  18
ENDBRANCH   1  16
BRANCH   1  21
ATOM     21  N   UNL d   1       2.364  -0.316   0.108  0.00  0.00    -0.348 N 
ATOM     22  H   UNL d   1       2.697  -0.322   1.072  0.00  0.00     0.163 HD
BRANCH  21  23
ATOM     23  C   UNL d   1       3.154  -1.038  -0.773  0.00  0.00     0.030 A 
ATOM     24  C   UNL d   1       2.682  -1.687  -1.918  0.00  0.00     0.029 A 
ATOM     25  C   UNL d   1       3.551  -2.304  -2.826  0.00  0.00     0.009 A 
ATOM     26  C   UNL d   1       4.931  -2.270  -2.624  0.00  0.00    -0.062 A 
ATOM     27  C   UNL d   1       5.423  -1.613  -1.497  0.00  0.00     0.009 A 
ATOM     28  C   UNL d   1       5.848  -2.918  -3.617  0.00  0.00     0.048 C 
ATOM     29  C   UNL d   1       4.543  -1.006  -0.590  0.00  0.00     0.029 A 
ENDBRANCH  21  23
ENDBRANCH   1  21
TORSDOF 8
