REMARK  3 active torsions:
REMARK  status: ('A' for Active; 'I' for Inactive)
REMARK    1  A    between atoms: C_8  and  C_1 
REMARK    2  A    between atoms: O_10  and  C_1 
REMARK    3  A    between atoms: C_7  and  C_2 
ROOT
ATOM      1  C   UNL d   1      -1.265   1.539   0.039  0.00  0.00     0.125 C 
ATOM      2  C   UNL d   1      -2.495   0.675  -0.325  0.00  0.00     0.112 C 
ATOM      3  C   UNL d   1       0.025   0.702   0.116  0.00  0.00     0.003 A 
ATOM      4  N   UNL d   1      -1.218  -1.388  -0.233  0.00  0.00    -0.292 NA
ATOM      5  C   UNL d   1      -2.378  -0.701   0.319  0.00  0.00     0.108 C 
ATOM      6  C   UNL d   1      -0.011  -0.697  -0.028  0.00  0.00     0.018 A 
ATOM      7  C   UNL d   1       1.268   1.330   0.343  0.00  0.00     0.012 A 
ATOM      8  C   UNL d   1       1.193  -1.411  -0.096  0.00  0.00     0.024 A 
ATOM      9  C   UNL d   1       2.454   0.597   0.327  0.00  0.00     0.001 A 
ATOM     10  C   UNL d   1       2.418  -0.772   0.086  0.00  0.00     0.002 A 
ATOM     11  H   UNL d   1      -1.151  -2.358   0.070  0.00  0.00     0.127 HD
ENDROOT
BRANCH   1  12
ATOM     12  C   UNL d   1      -1.155   2.697  -0.975  0.00  0.00    -0.019 A 
ATOM     13  C   UNL d   1      -1.740   3.950  -0.718  0.00  0.00     0.010 A 
ATOM     14  C   UNL d   1      -1.678   4.983  -1.658  0.00  0.00     0.001 A 
ATOM     15  C   UNL d   1      -1.009   4.792  -2.863  0.00  0.00     0.000 A 
ATOM     16  C   UNL d   1      -0.411   3.566  -3.136  0.00  0.00     0.001 A 
ATOM     17  C   UNL d   1      -0.498   2.523  -2.210  0.00  0.00     0.010 A 
ENDBRANCH   1  12
BRANCH   1  18
ATOM     18  O   UNL d   1      -1.445   2.104   1.349  0.00  0.00    -0.379 OA
ATOM     19  H   UNL d   1      -1.079   1.477   1.996  0.00  0.00     0.211 HD
ENDBRANCH   1  18
BRANCH   2  20
ATOM     20  C   UNL d   1      -3.826   1.268   0.110  0.00  0.00     0.132 C 
ATOM     21  O   UNL d   1      -4.311   1.045   1.222  0.00  0.00    -0.298 OA
ATOM     22  C   UNL d   1      -4.582   2.120  -0.879  0.00  0.00     0.091 C 
ENDBRANCH   2  20
TORSDOF 3
