REMARK  6 active torsions:
REMARK  status: ('A' for Active; 'I' for Inactive)
REMARK    1  A    between atoms: C_7  and  C_1 
REMARK    2  A    between atoms: N_15  and  C_3 
REMARK    3  A    between atoms: C_9  and  C_7 
REMARK    4  A    between atoms: C_10  and  C_7 
REMARK    5  A    between atoms: N_8  and  C_10 
REMARK    6  A    between atoms: O_21  and  C_19 
ROOT
ATOM      1  C   UNL d   1      -0.046   3.107  -0.079  0.00  0.00     0.089 C 
ENDROOT
BRANCH   1   2
ATOM      2  C   UNL d   1      -0.293   1.575  -0.144  0.00  0.00     0.059 C 
ATOM      3  C   UNL d   1       0.564   0.624   0.308  0.00  0.00     0.096 C 
ATOM      4  N   UNL d   1       0.249  -0.721   0.118  0.00  0.00    -0.294 N 
ATOM      5  C   UNL d   1       1.171  -1.805   0.439  0.00  0.00     0.162 C 
ATOM      6  C   UNL d   1      -0.982  -1.163  -0.367  0.00  0.00     0.332 C 
ATOM      7  N   UNL d   1      -1.899  -0.192  -0.681  0.00  0.00    -0.270 N 
ATOM      8  O   UNL d   1      -1.229  -2.362  -0.532  0.00  0.00    -0.246 OA
ATOM      9  C   UNL d   1      -1.548   1.123  -0.808  0.00  0.00     0.261 C 
ATOM     10  C   UNL d   1      -3.173  -0.624  -1.221  0.00  0.00     0.164 C 
ATOM     11  O   UNL d   1      -2.232   1.919  -1.451  0.00  0.00    -0.267 OA
BRANCH   3  12
ATOM     12  N   UNL d   1       1.749   0.974   0.935  0.00  0.00    -0.288 NA
ATOM     13  H   UNL d   1       2.517   0.341   0.748  0.00  0.00     0.125 HD
ATOM     14  H   UNL d   1       2.058   1.928   0.795  0.00  0.00     0.125 HD
ENDBRANCH   3  12
ENDBRANCH   1   2
BRANCH   1  15
ATOM     15  C   UNL d   1       0.780   3.563  -1.296  0.00  0.00    -0.044 A 
ATOM     16  C   UNL d   1       2.027   4.195  -1.106  0.00  0.00     0.044 A 
ATOM     17  C   UNL d   1       2.793   4.611  -2.201  0.00  0.00     0.068 A 
ATOM     18  C   UNL d   1       2.318   4.393  -3.494  0.00  0.00     0.037 A 
ATOM     19  C   UNL d   1       1.085   3.783  -3.700  0.00  0.00     0.003 A 
ATOM     20  C   UNL d   1       0.318   3.381  -2.609  0.00  0.00     0.008 A 
BRANCH  17  21
ATOM     21  O   UNL d   1       4.009   5.233  -2.147  0.00  0.00    -0.356 OA
ATOM     22  C   UNL d   1       4.526   5.545  -0.861  0.00  0.00     0.210 C 
ENDBRANCH  17  21
ENDBRANCH   1  15
BRANCH   1  23
ATOM     23  C   UNL d   1      -1.272   4.042   0.157  0.00  0.00     0.165 C 
ATOM     24  C   UNL d   1      -0.962   5.543   0.208  0.00  0.00     0.040 C 
BRANCH  23  25
ATOM     25  N   UNL d   1      -1.886   3.674   1.489  0.00  0.00    -0.150 N 
ATOM     26  O   UNL d   1      -1.176   3.794   2.499  0.00  0.00    -0.536 OA
ATOM     27  O   UNL d   1      -3.059   3.284   1.485  0.00  0.00    -0.536 OA
ENDBRANCH  23  25
ENDBRANCH   1  23
TORSDOF 6
