REMARK  4 active torsions:
REMARK  status: ('A' for Active; 'I' for Inactive)
REMARK    1  A    between atoms: S_6  and  C_1 
REMARK    2  A    between atoms: N_7  and  C_1 
REMARK    3  A    between atoms: N_4  and  N_2 
REMARK    4  A    between atoms: C_9  and  C_8 
ROOT
ATOM      1  N   UNL d   1       1.095   1.348   1.858  0.00  0.00    -0.309 N 
ATOM      2  HN  UNL d   1       2.095   1.479   1.704  1.00  0.00     0.186 HD
ATOM      3  C   UNL d   1       0.454   1.817   2.882  0.00  0.00     0.118 C 
ENDROOT
BRANCH   1   4
ATOM      4  N   UNL d   1       0.254   0.640   0.988  0.00  0.00    -0.285 N 
ATOM      5  C   UNL d   1       0.890   0.254  -0.075  0.00  0.00     0.130 C 
ATOM      6  HN  UNL d   1      -0.733   0.454   1.168  1.00  0.00     0.188 HD
BRANCH   5   7
ATOM      7  S   UNL d   1       0.119  -0.703  -1.317  0.00  0.00    -0.103 SA
ATOM      8  C   UNL d   1      -1.546  -0.870  -0.652  0.00  0.00     0.098 C 
ENDBRANCH   5   7
BRANCH   5   9
ATOM      9  N   UNL d   1       2.207   0.500  -0.333  0.00  0.00    -0.282 NA
ATOM     10  H   UNL d   1       2.670   0.782   0.524  0.00  0.00     0.126 HD
ATOM     11  H   UNL d   1       2.667  -0.239  -0.845  0.00  0.00     0.126 HD
ENDBRANCH   5   9
ENDBRANCH   1   4
BRANCH   3  12
ATOM     12  C   UNL d   1       1.154   2.608   3.916  0.00  0.00    -0.019 A 
ATOM     13  C   UNL d   1       2.526   2.863   3.798  0.00  0.00     0.014 A 
ATOM     14  C   UNL d   1       3.183   3.627   4.765  0.00  0.00     0.024 A 
ATOM     15  C   UNL d   1       2.465   4.132   5.847  0.00  0.00     0.034 A 
ATOM     16  C   UNL d   1       1.099   3.874   5.974  0.00  0.00     0.024 A 
ATOM     17 CL   UNL d   1       3.271   5.087   7.030  0.00  0.00    -0.084 Cl
ATOM     18  C   UNL d   1       0.438   3.109   5.006  0.00  0.00     0.014 A 
ENDBRANCH   3  12
TORSDOF 4
