REMARK  5 active torsions:
REMARK  status: ('A' for Active; 'I' for Inactive)
REMARK    1  A    between atoms: C_2  and  S_1 
REMARK    2  A    between atoms: O_3  and  S_1 
REMARK    3  A    between atoms: C_11  and  O_3 
REMARK    4  A    between atoms: O_15  and  C_8 
REMARK    5  A    between atoms: O_20  and  C_12 
ROOT
ATOM      1  N   UNL d   1       7.746   4.292  -0.037  0.00  0.00    -0.191 NA
ATOM      2  C   UNL d   1       6.867   3.536  -0.098  0.00  0.00     0.099 C 
ATOM      3  C   UNL d   1       3.674   0.762  -0.230  0.00  0.00     0.089 A 
ATOM      4  C   UNL d   1       5.787   2.598  -0.166  0.00  0.00     0.044 A 
ATOM      5  C   UNL d   1       6.048   1.239  -0.360  0.00  0.00     0.025 A 
ATOM      6  C   UNL d   1       3.411   2.120  -0.061  0.00  0.00     0.040 A 
ATOM      7  C   UNL d   1       4.992   0.326  -0.395  0.00  0.00     0.040 A 
ATOM      8  C   UNL d   1       4.467   3.036  -0.025  0.00  0.00     0.025 A 
ENDROOT
BRANCH   3   9
ATOM      9  O   UNL d   1       2.735  -0.235  -0.241  0.00  0.00    -0.229 OA
BRANCH   9  10
ATOM     10  S   UNL d   1       1.143   0.043  -0.012  0.00  0.00     0.305 S 
ATOM     11  O   UNL d   1       0.970   0.549   1.339  0.00  0.00    -0.193 OA
ATOM     12  O   UNL d   1       0.657   0.770  -1.165  0.00  0.00    -0.193 OA
BRANCH  10  13
ATOM     13  C   UNL d   1       0.397  -1.567  -0.063  0.00  0.00     0.122 A 
ATOM     14  C   UNL d   1       1.247  -2.651  -0.380  0.00  0.00     0.065 A 
ATOM     15  C   UNL d   1       0.792  -3.965  -0.303  0.00  0.00     0.069 A 
ATOM     16  C   UNL d   1      -0.530  -4.196   0.057  0.00  0.00     0.039 A 
ATOM     17  C   UNL d   1      -1.380  -3.127   0.352  0.00  0.00     0.041 A 
ATOM     18  C   UNL d   1      -0.934  -1.798   0.299  0.00  0.00     0.092 A 
BRANCH  15  19
ATOM     19  O   UNL d   1       1.540  -5.085  -0.531  0.00  0.00    -0.356 OA
ATOM     20  C   UNL d   1       2.924  -4.899  -0.810  0.00  0.00     0.210 C 
ENDBRANCH  15  19
BRANCH  18  21
ATOM     21  O   UNL d   1      -1.881  -0.917   0.734  0.00  0.00    -0.354 OA
ATOM     22  C   UNL d   1      -2.035   0.321   0.054  0.00  0.00     0.210 C 
ENDBRANCH  18  21
ENDBRANCH  10  13
ENDBRANCH   9  10
ENDBRANCH   3   9
TORSDOF 5
