REMARK  8 active torsions:
REMARK  status: ('A' for Active; 'I' for Inactive)
REMARK    1  A    between atoms: C_2  and  S_1 
REMARK    2  A    between atoms: C_8  and  S_1 
REMARK    3  A    between atoms: O_9  and  N_3 
REMARK    4  A    between atoms: C_5  and  C_12 
REMARK    5  A    between atoms: N_23  and  C_5 
REMARK    6  A    between atoms: C_6  and  O_9 
REMARK    7  A    between atoms: C_7  and  C_6 
REMARK    8  A    between atoms: C_20  and  C_8 
ROOT
ATOM      1  C   UNL d   1      -1.281  -5.000   0.296  0.00  0.00     0.004 A 
ATOM      2  C   UNL d   1      -1.511  -3.679  -0.107  0.00  0.00     0.022 A 
ATOM      3  C   UNL d   1      -2.600  -3.354  -0.931  0.00  0.00    -0.043 A 
ATOM      4  C   UNL d   1      -2.120  -6.019  -0.169  0.00  0.00     0.015 A 
ATOM      5  C   UNL d   1      -3.195  -5.709  -1.005  0.00  0.00     0.002 A 
ATOM      6  C   UNL d   1      -3.439  -4.385  -1.376  0.00  0.00     0.008 A 
ENDROOT
BRANCH   1   7
ATOM      7  C   UNL d   1      -0.153  -5.312   1.235  0.00  0.00     0.109 C 
ATOM      8  N   UNL d   1       0.355  -6.507   1.208  0.00  0.00    -0.246 N 
ATOM      9  HN  UNL d   1       0.019  -7.254   0.600  1.00  0.00     0.196 HD
BRANCH   8  10
ATOM     10  O   UNL d   1       1.430  -6.655   2.116  0.00  0.00    -0.193 OA
BRANCH  10  11
ATOM     11  C   UNL d   1       1.927  -7.926   2.018  0.00  0.00     0.315 C 
ATOM     12  O   UNL d   1       1.494  -8.842   1.330  0.00  0.00    -0.257 OA
BRANCH  11  13
ATOM     13  C   UNL d   1       3.127  -8.111   2.886  0.00  0.00     0.043 A 
ATOM     14  C   UNL d   1       3.674  -7.098   3.685  0.00  0.00     0.043 A 
ATOM     15  C   UNL d   1       4.812  -7.353   4.463  0.00  0.00     0.056 A 
ATOM     16 CL   UNL d   1       5.431  -6.055   5.425  0.00  0.00    -0.083 Cl
ATOM     17  C   UNL d   1       5.414  -8.620   4.450  0.00  0.00     0.055 A 
ATOM     18  C   UNL d   1       4.870  -9.630   3.658  0.00  0.00     0.026 A 
ATOM     19 CL   UNL d   1       6.821  -8.993   5.378  0.00  0.00    -0.083 Cl
ATOM     20  C   UNL d   1       3.736  -9.378   2.884  0.00  0.00     0.019 A 
ENDBRANCH  11  13
ENDBRANCH  10  11
ENDBRANCH   8  10
BRANCH   7  21
ATOM     21  N   UNL d   1       0.270  -4.324   2.096  0.00  0.00    -0.286 NA
ATOM     22  H   UNL d   1       0.810  -4.694   2.868  0.00  0.00     0.125 HD
ATOM     23  H   UNL d   1      -0.457  -3.685   2.407  0.00  0.00     0.125 HD
ENDBRANCH   7  21
ENDBRANCH   1   7
BRANCH   3  24
ATOM     24  C   UNL d   1      -2.860  -1.921  -1.324  0.00  0.00     0.185 C 
BRANCH  24  25
ATOM     25  S   UNL d   1      -3.977  -1.128  -0.180  0.00  0.00     0.195 S 
ATOM     26  O   UNL d   1      -4.082   0.275  -0.549  0.00  0.00    -0.221 OA
ATOM     27  O   UNL d   1      -5.188  -1.929  -0.083  0.00  0.00    -0.221 OA
BRANCH  25  28
ATOM     28  C   UNL d   1      -3.156  -1.194   1.405  0.00  0.00     0.128 A 
ATOM     29  N   UNL d   1      -1.925  -0.616   1.425  0.00  0.00    -0.357 N 
ATOM     30  C   UNL d   1      -1.309  -0.583   2.627  0.00  0.00     0.089 A 
ATOM     31  HN  UNL d   1      -1.495  -0.230   0.585  1.00  0.00     0.166 HD
ATOM     32  C   UNL d   1      -1.841  -1.142   3.781  0.00  0.00     0.017 A 
ATOM     33  C   UNL d   1      -3.088  -1.759   3.708  0.00  0.00     0.004 A 
ATOM     34  C   UNL d   1      -3.771  -1.783   2.498  0.00  0.00     0.042 A 
ENDBRANCH  25  28
ENDBRANCH  24  25
ENDBRANCH   3  24
TORSDOF 8
