REMARK  6 active torsions:
REMARK  status: ('A' for Active; 'I' for Inactive)
REMARK    1  A    between atoms: O_8  and  C_1 
REMARK    2  A    between atoms: O_9  and  C_1 
REMARK    3  A    between atoms: S_4  and  C_2 
REMARK    4  A    between atoms: S_5  and  C_3 
REMARK    5  A    between atoms: C_6  and  O_8 
REMARK    6  A    between atoms: C_7  and  O_9 
ROOT
ATOM      1  C   UNL d   1       1.029  -0.068   0.071  0.00  0.00     0.351 C 
ENDROOT
BRANCH   1   2
ATOM      2  O   UNL d   1       0.552   0.194   1.396  0.00  0.00    -0.326 OA
BRANCH   2   3
ATOM      3  C   UNL d   1      -0.809   0.191   1.536  0.00  0.00     0.071 A 
ATOM      4  C   UNL d   1      -1.286  -0.187   2.789  0.00  0.00     0.038 A 
ATOM      5  C   UNL d   1      -2.661  -0.208   3.046  0.00  0.00     0.021 A 
ATOM      6  C   UNL d   1      -3.584   0.164   2.061  0.00  0.00    -0.000 A 
ATOM      7  C   UNL d   1      -3.095   0.559   0.813  0.00  0.00     0.021 A 
ATOM      8  C   UNL d   1      -1.718   0.576   0.551  0.00  0.00     0.038 A 
BRANCH   6   9
ATOM      9  S   UNL d   1      -5.315   0.109   2.510  0.00  0.00    -0.134 SA
ATOM     10  C   UNL d   1      -6.162   0.644   0.999  0.00  0.00     0.095 C 
ENDBRANCH   6   9
ENDBRANCH   2   3
ENDBRANCH   1   2
BRANCH   1  11
ATOM     11  O   UNL d   1       2.457  -0.175   0.082  0.00  0.00    -0.326 OA
BRANCH  11  12
ATOM     12  C   UNL d   1       3.040  -0.294  -1.151  0.00  0.00     0.071 A 
ATOM     13  C   UNL d   1       4.332   0.218  -1.259  0.00  0.00     0.038 A 
ATOM     14  C   UNL d   1       5.027   0.134  -2.470  0.00  0.00     0.021 A 
ATOM     15  C   UNL d   1       4.452  -0.479  -3.590  0.00  0.00    -0.000 A 
ATOM     16  C   UNL d   1       3.163  -1.006  -3.466  0.00  0.00     0.021 A 
ATOM     17  C   UNL d   1       2.462  -0.917  -2.255  0.00  0.00     0.038 A 
BRANCH  15  18
ATOM     18  S   UNL d   1       5.441  -0.540  -5.079  0.00  0.00    -0.134 SA
ATOM     19  C   UNL d   1       4.366  -1.381  -6.271  0.00  0.00     0.095 C 
ENDBRANCH  15  18
ENDBRANCH  11  12
ENDBRANCH   1  11
TORSDOF 6
