REMARK  8 active torsions:
REMARK  status: ('A' for Active; 'I' for Inactive)
REMARK    1  A    between atoms: C_6  and  C_1 
REMARK       I    between atoms: C_2  and  N_3 
REMARK    2  A    between atoms: C_9  and  C_2 
REMARK    3  A    between atoms: N_3  and  C_4 
REMARK    4  A    between atoms: C_5  and  O_11 
REMARK    5  A    between atoms: O_10  and  C_7 
REMARK    6  A    between atoms: C_23  and  O_10 
REMARK    7  A    between atoms: O_11  and  C_24 
REMARK    8  A    between atoms: O_32  and  C_25 
ROOT
ATOM      1  C   UNL d   1       0.222  -0.187   3.581  0.00  0.00     0.070 A 
ATOM      2  C   UNL d   1       1.081  -0.707   1.344  0.00  0.00     0.050 A 
ATOM      3  C   UNL d   1       0.096  -1.567   3.831  0.00  0.00     0.102 A 
ATOM      4  C   UNL d   1       0.704   0.221   2.326  0.00  0.00     0.048 A 
ATOM      5  C   UNL d   1       1.025  -2.071   1.643  0.00  0.00     0.019 A 
ATOM      6  C   UNL d   1       0.559  -2.497   2.885  0.00  0.00     0.040 A 
ENDROOT
BRANCH   1   7
ATOM      7  N   UNL d   1      -0.165   0.738   4.586  0.00  0.00    -0.320 N 
ATOM      8  C   UNL d   1      -0.041   2.118   4.529  0.00  0.00     0.256 C 
ATOM      9  O   UNL d   1       0.468   2.773   3.627  0.00  0.00    -0.267 OA
ATOM     10  H   UNL d   1      -0.589   0.320   5.405  0.00  0.00     0.169 HD
BRANCH   8  11
ATOM     11  C   UNL d   1      -0.619   2.877   5.669  0.00  0.00     0.032 A 
ATOM     12  C   UNL d   1      -0.522   2.435   6.991  0.00  0.00     0.020 A 
ATOM     13  C   UNL d   1      -1.077   3.204   8.020  0.00  0.00     0.038 A 
ATOM     14  C   UNL d   1      -1.751   4.393   7.732  0.00  0.00     0.078 A 
ATOM     15  C   UNL d   1      -1.799   4.864   6.421  0.00  0.00     0.038 A 
ATOM     16  C   UNL d   1      -1.234   4.108   5.393  0.00  0.00     0.020 A 
BRANCH  14  17
ATOM     17  O   UNL d   1      -2.244   5.206   8.707  0.00  0.00    -0.255 OA
BRANCH  17  18
ATOM     18  C   UNL d   1      -3.245   4.631   9.545  0.00  0.00     0.530 C 
ATOM     19  F   UNL d   1      -3.191   3.283   9.617  0.00  0.00    -0.144 F 
ATOM     20  F   UNL d   1      -3.088   5.120  10.795  0.00  0.00    -0.144 F 
ATOM     21  F   UNL d   1      -4.469   4.990   9.102  0.00  0.00    -0.144 F 
ENDBRANCH  17  18
ENDBRANCH  14  17
ENDBRANCH   8  11
ENDBRANCH   1   7
BRANCH   3  22
ATOM     22  O   UNL d   1      -0.469  -1.971   5.034  0.00  0.00    -0.309 OA
BRANCH  22  23
ATOM     23  C   UNL d   1      -1.169  -3.163   5.031  0.00  0.00     0.076 A 
ATOM     24  C   UNL d   1      -0.860  -4.103   6.014  0.00  0.00     0.040 A 
ATOM     25  C   UNL d   1      -1.475  -5.363   5.999  0.00  0.00     0.039 A 
ATOM     26  C   UNL d   1      -2.402  -5.678   5.004  0.00  0.00     0.068 A 
ATOM     27  C   UNL d   1      -2.760  -4.706   4.066  0.00  0.00     0.039 A 
ATOM     28  C   UNL d   1      -2.157  -3.446   4.085  0.00  0.00     0.040 A 
BRANCH  26  29
ATOM     29  O   UNL d   1      -3.042  -6.878   4.862  0.00  0.00    -0.356 OA
ATOM     30  C   UNL d   1      -2.388  -8.010   5.424  0.00  0.00     0.210 C 
ENDBRANCH  26  29
ENDBRANCH  22  23
ENDBRANCH   3  22
BRANCH   2  31
ATOM     31  C   UNL d   1       1.505  -0.250  -0.031  0.00  0.00     0.417 C 
ATOM     32  F   UNL d   1       1.679   1.094  -0.141  0.00  0.00    -0.166 F 
ATOM     33  F   UNL d   1       0.590  -0.586  -0.984  0.00  0.00    -0.166 F 
ATOM     34  F   UNL d   1       2.679  -0.815  -0.429  0.00  0.00    -0.166 F 
ENDBRANCH   2  31
TORSDOF 8
