REMARK  5 active torsions:
REMARK  status: ('A' for Active; 'I' for Inactive)
REMARK    1  A    between atoms: C_2  and  C_1 
REMARK       I    between atoms: N_4  and  C_2 
REMARK    2  A    between atoms: C_3  and  C_6 
REMARK    3  A    between atoms: C_5  and  N_4 
REMARK    4  A    between atoms: O_13  and  C_10 
REMARK    5  A    between atoms: C_11  and  O_13 
ROOT
ATOM      1  C   UNL d   1      -0.891  -1.354  -1.744  0.00  0.00     0.070 A 
ATOM      2  C   UNL d   1      -1.515  -3.610  -2.448  0.00  0.00     0.050 A 
ATOM      3  C   UNL d   1      -1.290  -1.664  -0.434  0.00  0.00     0.102 A 
ATOM      4  C   UNL d   1      -1.020  -2.327  -2.740  0.00  0.00     0.048 A 
ATOM      5  C   UNL d   1      -1.855  -3.919  -1.125  0.00  0.00     0.019 A 
ATOM      6  C   UNL d   1      -1.724  -2.960  -0.119  0.00  0.00     0.040 A 
ENDROOT
BRANCH   3   7
ATOM      7  O   UNL d   1      -1.225  -0.671   0.524  0.00  0.00    -0.308 OA
BRANCH   7   8
ATOM      8  C   UNL d   1      -2.297  -0.507   1.383  0.00  0.00     0.077 A 
ATOM      9  C   UNL d   1      -2.008   0.041   2.632  0.00  0.00     0.045 A 
ATOM     10  C   UNL d   1      -3.024   0.244   3.583  0.00  0.00    -0.037 A 
ATOM     11  C   UNL d   1      -2.666   0.846   4.916  0.00  0.00     0.050 C 
ATOM     12  C   UNL d   1      -4.346  -0.138   3.272  0.00  0.00     0.046 A 
ATOM     13  C   UNL d   1      -4.654  -0.679   2.010  0.00  0.00    -0.037 A 
ATOM     14 CL   UNL d   1      -5.590   0.067   4.465  0.00  0.00    -0.083 Cl
ATOM     15  C   UNL d   1      -3.622  -0.817   1.061  0.00  0.00     0.045 A 
ATOM     16  C   UNL d   1      -6.030  -1.128   1.598  0.00  0.00     0.050 C 
ENDBRANCH   7   8
ENDBRANCH   3   7
BRANCH   1  17
ATOM     17  N   UNL d   1      -0.294  -0.097  -2.009  0.00  0.00    -0.317 N 
ATOM     18  C   UNL d   1      -0.113   0.468  -3.273  0.00  0.00     0.330 C 
ATOM     19  O   UNL d   1      -0.749   0.120  -4.272  0.00  0.00    -0.263 OA
ATOM     20  H   UNL d   1      -0.003   0.440  -1.195  0.00  0.00     0.169 HD
BRANCH  18  21
ATOM     21  C   UNL d   1       0.927   1.602  -3.314  0.00  0.00     0.472 C 
ATOM     22  F   UNL d   1       1.893   1.441  -2.364  0.00  0.00    -0.162 F 
ATOM     23  F   UNL d   1       0.371   2.822  -3.082  0.00  0.00    -0.162 F 
ATOM     24  F   UNL d   1       1.574   1.683  -4.508  0.00  0.00    -0.162 F 
ENDBRANCH  18  21
ENDBRANCH   1  17
BRANCH   2  25
ATOM     25  C   UNL d   1      -1.666  -4.646  -3.536  0.00  0.00     0.417 C 
ATOM     26  F   UNL d   1      -1.190  -4.246  -4.747  0.00  0.00    -0.166 F 
ATOM     27  F   UNL d   1      -1.013  -5.803  -3.243  0.00  0.00    -0.166 F 
ATOM     28  F   UNL d   1      -2.967  -4.992  -3.739  0.00  0.00    -0.166 F 
ENDBRANCH   2  25
TORSDOF 5
