REMARK  3 active torsions:
REMARK  status: ('A' for Active; 'I' for Inactive)
REMARK       I    between atoms: C_8  and  N_1 
REMARK    1  A    between atoms: C_16  and  C_3 
REMARK    2  A    between atoms: C_12  and  C_9 
REMARK    3  A    between atoms: C_17  and  C_10 
ROOT
ATOM      1  N   UNL d   1       0.442   1.391   0.172  0.00  0.00    -0.339 N 
ATOM      2  C   UNL d   1      -1.350  -0.346  -0.004  0.00  0.00    -0.060 C 
ATOM      3  C   UNL d   1      -0.996   1.131  -0.053  0.00  0.00     0.149 C 
ATOM      4  C   UNL d   1       1.425   0.383  -0.250  0.00  0.00     0.140 C 
ATOM      5  C   UNL d   1      -0.444  -1.337  -0.021  0.00  0.00    -0.011 C 
ATOM      6  C   UNL d   1       0.777   2.711   0.470  0.00  0.00     0.216 C 
ATOM      7  C   UNL d   1       1.038  -1.095  -0.025  0.00  0.00     0.061 C 
ATOM      8  O   UNL d   1      -0.073   3.552   0.779  0.00  0.00    -0.274 OA
ATOM      9  C   UNL d   1      -2.815  -0.688   0.082  0.00  0.00     0.045 C 
ATOM     10  C   UNL d   1       2.219   3.158   0.369  0.00  0.00     0.117 C 
ENDROOT
BRANCH   7  11
ATOM     11  C   UNL d   1       1.651  -1.671   1.240  0.00  0.00    -0.033 A 
ATOM     12  C   UNL d   1       1.259  -1.253   2.513  0.00  0.00     0.018 A 
ATOM     13  C   UNL d   1       1.736  -1.903   3.667  0.00  0.00    -0.034 A 
ATOM     14  C   UNL d   1       1.185  -1.457   4.991  0.00  0.00     0.050 C 
ATOM     15  C   UNL d   1       2.647  -2.960   3.502  0.00  0.00     0.048 A 
ATOM     16  N   UNL d   1       3.073  -3.334   2.262  0.00  0.00    -0.364 N 
ATOM     17  C   UNL d   1       2.569  -2.704   1.179  0.00  0.00     0.096 A 
ATOM     18  HN  UNL d   1       3.762  -4.078   2.154  1.00  0.00     0.165 HD
BRANCH  15  19
ATOM     19  C   UNL d   1       3.160  -3.840   4.586  0.00  0.00    -0.009 A 
ATOM     20  C   UNL d   1       3.530  -3.376   5.858  0.00  0.00     0.014 A 
ATOM     21  C   UNL d   1       3.942  -4.255   6.869  0.00  0.00     0.001 A 
ATOM     22  C   UNL d   1       4.041  -5.619   6.614  0.00  0.00     0.000 A 
ATOM     23  C   UNL d   1       3.735  -6.104   5.348  0.00  0.00     0.001 A 
ATOM     24  C   UNL d   1       3.300  -5.224   4.352  0.00  0.00     0.014 A 
ENDBRANCH  15  19
ENDBRANCH   7  11
BRANCH   3  25
ATOM     25  C   UNL d   1      -1.517   1.763  -1.352  0.00  0.00    -0.031 A 
ATOM     26  C   UNL d   1      -2.452   2.807  -1.283  0.00  0.00     0.009 A 
ATOM     27  C   UNL d   1      -2.985   3.362  -2.443  0.00  0.00     0.001 A 
ATOM     28  C   UNL d   1      -2.573   2.897  -3.689  0.00  0.00     0.000 A 
ATOM     29  C   UNL d   1      -1.637   1.871  -3.774  0.00  0.00     0.001 A 
ATOM     30  C   UNL d   1      -1.106   1.308  -2.614  0.00  0.00     0.009 A 
ENDBRANCH   3  25
TORSDOF 3
