REMARK  2 active torsions:
REMARK  status: ('A' for Active; 'I' for Inactive)
REMARK       I    between atoms: N_2  and  C_1 
REMARK    1  A    between atoms: C_3  and  C_1 
REMARK    2  A    between atoms: C_4  and  N_2 
ROOT
ATOM      1  C   UNL d   1       1.245   0.051   0.018  0.00  0.00     0.261 C 
ATOM      2  N   UNL d   1       0.587  -0.935  -0.698  0.00  0.00    -0.318 N 
ATOM      3  O   UNL d   1       2.457   0.210   0.062  0.00  0.00    -0.267 OA
ATOM      4  H   UNL d   1      -0.392  -0.777  -0.925  0.00  0.00     0.169 HD
ENDROOT
BRANCH   1   5
ATOM      5  C   UNL d   1       0.391   1.065   0.684  0.00  0.00     0.092 A 
ATOM      6  C   UNL d   1       0.727   1.610   1.931  0.00  0.00     0.052 A 
ATOM      7 CL   UNL d   1       1.996   0.990   2.929  0.00  0.00    -0.083 Cl
ATOM      8  C   UNL d   1      -0.015   2.679   2.454  0.00  0.00     0.025 A 
ATOM      9  C   UNL d   1      -1.098   3.203   1.749  0.00  0.00     0.005 A 
ATOM     10  C   UNL d   1      -1.458   2.643   0.528  0.00  0.00     0.043 A 
ATOM     11  C   UNL d   1      -0.716   1.584   0.006  0.00  0.00     0.133 A 
ATOM     12  F   UNL d   1      -1.090   1.079  -1.179  0.00  0.00    -0.205 F 
ENDBRANCH   1   5
BRANCH   2  13
ATOM     13  C   UNL d   1       1.221  -1.952  -1.458  0.00  0.00     0.113 A 
ATOM     14  C   UNL d   1       2.499  -2.465  -1.217  0.00  0.00     0.146 A 
ATOM     15  F   UNL d   1       3.193  -2.141  -0.118  0.00  0.00    -0.204 F 
ATOM     16  C   UNL d   1       3.069  -3.415  -2.070  0.00  0.00     0.045 A 
ATOM     17  C   UNL d   1       2.358  -3.889  -3.171  0.00  0.00     0.006 A 
ATOM     18  C   UNL d   1       1.062  -3.432  -3.396  0.00  0.00     0.045 A 
ATOM     19  C   UNL d   1       0.505  -2.484  -2.538  0.00  0.00     0.146 A 
ATOM     20  F   UNL d   1      -0.743  -2.051  -2.781  0.00  0.00    -0.204 F 
ENDBRANCH   2  13
TORSDOF 2
