REMARK  3 active torsions:
REMARK  status: ('A' for Active; 'I' for Inactive)
REMARK    1  A    between atoms: C_15  and  C_6 
REMARK    2  A    between atoms: C_8  and  C_13 
REMARK    3  A    between atoms: O_27  and  C_25 
ROOT
ATOM      1  C   UNL d   1       1.974   1.369   0.076  0.00  0.00     0.026 C 
ATOM      2  N   UNL d   1       0.894   1.483  -0.612  0.00  0.00    -0.357 N 
ATOM      3  HN  UNL d   1       0.882   2.209  -1.328  1.00  0.00     0.166 HD
ATOM      4  C   UNL d   1       2.384   0.309   1.040  0.00  0.00     0.055 C 
ATOM      5  S   UNL d   1       0.640  -1.832   0.648  0.00  0.00    -0.117 SA
ATOM      6  C   UNL d   1       2.252  -1.081   0.455  0.00  0.00     0.095 C 
ATOM      7  C   UNL d   1       2.928   2.493   0.188  0.00  0.00    -0.007 A 
ATOM      8  C   UNL d   1      -0.282   0.701  -0.477  0.00  0.00     0.049 A 
ATOM      9  C   UNL d   1       3.274   2.798   1.528  0.00  0.00    -0.043 A 
ATOM     10  C   UNL d   1      -0.493  -0.617  -0.022  0.00  0.00     0.028 A 
ATOM     11  C   UNL d   1       1.831   0.801   2.375  0.00  0.00     0.017 C 
ATOM     12  C   UNL d   1       3.682   2.921  -0.894  0.00  0.00     0.017 A 
ATOM     13  C   UNL d   1       2.485   2.187   2.691  0.00  0.00     0.040 C 
ATOM     14  C   UNL d   1       4.440   3.531   1.762  0.00  0.00     0.044 A 
ATOM     15  C   UNL d   1       5.263   3.891   0.689  0.00  0.00     0.068 A 
ATOM     16  C   UNL d   1       4.862   3.623  -0.630  0.00  0.00     0.037 A 
ATOM     17  C   UNL d   1      -1.429   1.452  -0.826  0.00  0.00     0.031 A 
ATOM     18  C   UNL d   1      -1.816  -1.129   0.006  0.00  0.00     0.021 A 
ATOM     19  C   UNL d   1      -2.731   0.945  -0.748  0.00  0.00     0.002 A 
ATOM     20  C   UNL d   1      -2.925  -0.360  -0.346  0.00  0.00     0.002 A 
ENDROOT
BRANCH   6  21
ATOM     21  C   UNL d   1       3.410  -1.904   1.048  0.00  0.00    -0.043 A 
ATOM     22  C   UNL d   1       4.679  -1.802   0.441  0.00  0.00     0.009 A 
ATOM     23  C   UNL d   1       5.822  -2.301   1.070  0.00  0.00     0.017 A 
ATOM     24  C   UNL d   1       5.725  -2.932   2.316  0.00  0.00     0.047 A 
ATOM     25  C   UNL d   1       4.460  -3.074   2.906  0.00  0.00     0.017 A 
ATOM     26  C   UNL d   1       3.319  -2.557   2.286  0.00  0.00     0.009 A 
BRANCH  24  27
ATOM     27  C   UNL d   1       6.953  -3.446   3.026  0.00  0.00     0.417 C 
ATOM     28  F   UNL d   1       8.122  -3.063   2.440  0.00  0.00    -0.166 F 
ATOM     29  F   UNL d   1       7.030  -3.011   4.317  0.00  0.00    -0.166 F 
ATOM     30  F   UNL d   1       6.991  -4.805   3.087  0.00  0.00    -0.166 F 
ENDBRANCH  24  27
ENDBRANCH   6  21
BRANCH  15  31
ATOM     31  O   UNL d   1       6.497   4.473   0.810  0.00  0.00    -0.356 OA
ATOM     32  C   UNL d   1       7.125   4.346   2.084  0.00  0.00     0.210 C 
ENDBRANCH  15  31
TORSDOF 3
