REMARK  3 active torsions:
REMARK  status: ('A' for Active; 'I' for Inactive)
REMARK    1  A    between atoms: C_2  and  C_1 
REMARK       I    between atoms: N_3  and  C_1 
REMARK    2  A    between atoms: C_9  and  N_3 
REMARK    3  A    between atoms: C_7  and  C_8 
ROOT
ATOM      1  C   UNL d   1       1.138  -1.562  -1.573  0.00  0.00     0.261 C 
ATOM      2  N   UNL d   1       0.283  -0.539  -1.191  0.00  0.00    -0.323 N 
ATOM      3  O   UNL d   1       0.819  -2.562  -2.208  0.00  0.00    -0.267 OA
ATOM      4  H   UNL d   1       0.688   0.267  -0.725  0.00  0.00     0.169 HD
ENDROOT
BRANCH   2   5
ATOM      5  C   UNL d   1      -1.124  -0.531  -1.322  0.00  0.00     0.035 A 
ATOM      6  C   UNL d   1      -1.866  -1.639  -1.727  0.00  0.00     0.030 A 
ATOM      7  C   UNL d   1      -3.265  -1.589  -1.774  0.00  0.00     0.010 A 
ATOM      8  C   UNL d   1      -3.975  -0.429  -1.427  0.00  0.00    -0.051 A 
ATOM      9  C   UNL d   1      -3.215   0.689  -1.048  0.00  0.00     0.010 A 
ATOM     10  C   UNL d   1      -1.813   0.636  -0.986  0.00  0.00     0.030 A 
BRANCH   8  11
ATOM     11  C   UNL d   1      -5.513  -0.436  -1.451  0.00  0.00    -0.024 C 
ATOM     12  C   UNL d   1      -6.142   0.911  -1.032  0.00  0.00     0.019 C 
ATOM     13  C   UNL d   1      -6.020  -0.762  -2.873  0.00  0.00     0.019 C 
ATOM     14  C   UNL d   1      -6.043  -1.511  -0.476  0.00  0.00     0.019 C 
ENDBRANCH   8  11
ENDBRANCH   2   5
BRANCH   1  15
ATOM     15  C   UNL d   1       2.552  -1.440  -1.149  0.00  0.00     0.092 A 
ATOM     16  C   UNL d   1       2.843  -1.023   0.154  0.00  0.00     0.133 A 
ATOM     17  F   UNL d   1       1.868  -0.606   0.976  0.00  0.00    -0.205 F 
ATOM     18  C   UNL d   1       4.146  -1.037   0.649  0.00  0.00     0.043 A 
ATOM     19  C   UNL d   1       5.189  -1.478  -0.160  0.00  0.00     0.005 A 
ATOM     20  C   UNL d   1       4.923  -1.877  -1.469  0.00  0.00     0.025 A 
ATOM     21  C   UNL d   1       3.613  -1.855  -1.970  0.00  0.00     0.052 A 
ATOM     22 CL   UNL d   1       3.418  -2.297  -3.631  0.00  0.00    -0.083 Cl
ENDBRANCH   1  15
TORSDOF 3
