REMARK  2 active torsions:
REMARK  status: ('A' for Active; 'I' for Inactive)
REMARK    1  A    between atoms: C_4  and  N_1 
REMARK    2  A    between atoms: C_5  and  C_3 
ROOT
ATOM      1  N   UNL d   1       0.948   0.129  -0.025  0.00  0.00    -0.365 N 
ATOM      2  HN  UNL d   1       0.467  -0.601  -0.550  1.00  0.00     0.165 HD
ATOM      3  C   UNL d   1       0.266   1.021   0.618  0.00  0.00     0.099 C 
ENDROOT
BRANCH   1   4
ATOM      4  C   UNL d   1       2.354   0.167   0.003  0.00  0.00     0.031 A 
ATOM      5  C   UNL d   1       3.035  -1.053  -0.000  0.00  0.00     0.030 A 
ATOM      6  C   UNL d   1       4.432  -1.103  -0.022  0.00  0.00     0.009 A 
ATOM      7  C   UNL d   1       5.181   0.078  -0.043  0.00  0.00    -0.062 A 
ATOM      8  C   UNL d   1       4.507   1.304  -0.047  0.00  0.00     0.009 A 
ATOM      9  C   UNL d   1       6.679   0.017  -0.085  0.00  0.00     0.048 C 
ATOM     10  C   UNL d   1       3.107   1.346  -0.036  0.00  0.00     0.030 A 
ENDBRANCH   1   4
BRANCH   3  11
ATOM     11  C   UNL d   1      -1.212   1.008   0.635  0.00  0.00    -0.021 A 
ATOM     12  C   UNL d   1      -1.927  -0.037   0.041  0.00  0.00     0.013 A 
ATOM     13  C   UNL d   1      -3.323  -0.039   0.093  0.00  0.00     0.001 A 
ATOM     14  C   UNL d   1      -4.000   1.000   0.732  0.00  0.00     0.000 A 
ATOM     15  C   UNL d   1      -3.285   2.045   1.319  0.00  0.00     0.001 A 
ATOM     16  C   UNL d   1      -1.889   2.051   1.272  0.00  0.00     0.013 A 
ENDBRANCH   3  11
TORSDOF 2
