REMARK  8 active torsions:
REMARK  status: ('A' for Active; 'I' for Inactive)
REMARK    1  A    between atoms: O_3  and  C_1 
REMARK       I    between atoms: N_9  and  C_1 
REMARK    2  A    between atoms: C_2  and  O_3 
REMARK    3  A    between atoms: C_5  and  C_2 
REMARK    4  A    between atoms: O_14  and  C_4 
REMARK    5  A    between atoms: O_15  and  C_6 
REMARK    6  A    between atoms: C_16  and  N_9 
REMARK    7  A    between atoms: C_12  and  C_20 
REMARK    8  A    between atoms: C_20  and  C_16 
ROOT
ATOM      1  C   UNL d   1       3.427  -0.372   0.792  0.00  0.00     0.129 C 
ENDROOT
BRANCH   1   2
ATOM      2  N   UNL d   1       2.613   0.225  -0.253  0.00  0.00    -0.337 N 
ATOM      3  C   UNL d   1       2.568  -0.250  -1.532  0.00  0.00     0.361 C 
ATOM      4  O   UNL d   1       3.299  -1.108  -1.986  0.00  0.00    -0.238 OA
ATOM      5  H   UNL d   1       1.929   0.930  -0.015  0.00  0.00     0.164 HD
BRANCH   3   6
ATOM      6  O   UNL d   1       1.605   0.414  -2.224  0.00  0.00    -0.286 OA
BRANCH   6   7
ATOM      7  C   UNL d   1       1.483   0.168  -3.643  0.00  0.00     0.125 C 
ATOM      8  C   UNL d   1       0.985  -1.261  -3.929  0.00  0.00     0.055 C 
ATOM      9  C   UNL d   1       0.405   1.142  -4.155  0.00  0.00     0.055 C 
BRANCH   7  10
ATOM     10  C   UNL d   1       2.767   0.517  -4.436  0.00  0.00     0.157 C 
ATOM     11  O   UNL d   1       3.097  -0.082  -5.463  0.00  0.00    -0.295 OA
ATOM     12  C   UNL d   1       3.580   1.699  -3.962  0.00  0.00     0.094 C 
ENDBRANCH   7  10
ENDBRANCH   6   7
ENDBRANCH   3   6
ENDBRANCH   1   2
BRANCH   1  13
ATOM     13  C   UNL d   1       4.932  -0.120   0.628  0.00  0.00     0.058 C 
BRANCH  13  14
ATOM     14  C   UNL d   1       5.752  -0.647   1.788  0.00  0.00    -0.054 A 
ATOM     15  C   UNL d   1       6.474   0.228   2.620  0.00  0.00     0.046 A 
ATOM     16  C   UNL d   1       7.264  -0.250   3.683  0.00  0.00     0.102 A 
ATOM     17  C   UNL d   1       7.303  -1.632   3.931  0.00  0.00     0.101 A 
ATOM     18  C   UNL d   1       6.607  -2.505   3.087  0.00  0.00     0.040 A 
ATOM     19  C   UNL d   1       5.839  -2.022   2.027  0.00  0.00     0.010 A 
BRANCH  16  20
ATOM     20  O   UNL d   1       8.031   0.557   4.482  0.00  0.00    -0.353 OA
ATOM     21  C   UNL d   1       8.075   1.947   4.197  0.00  0.00     0.210 C 
ENDBRANCH  16  20
BRANCH  17  22
ATOM     22  O   UNL d   1       8.017  -2.282   4.907  0.00  0.00    -0.353 OA
ATOM     23  C   UNL d   1       8.205  -1.590   6.135  0.00  0.00     0.210 C 
ENDBRANCH  17  22
ENDBRANCH  13  14
ENDBRANCH   1  13
TORSDOF 8
