REMARK  2 active torsions:
REMARK  status: ('A' for Active; 'I' for Inactive)
REMARK    1  A    between atoms: N_4  and  C_1 
REMARK    2  A    between atoms: N_12  and  C_9 
ROOT
ATOM      1  C   UNL d   1      -3.130   0.256   0.032  0.00  0.00     0.150 A 
ATOM      2  N   UNL d   1      -2.375   1.335   0.021  0.00  0.00    -0.335 N 
ATOM      3  HN  UNL d   1      -2.732   2.290   0.025  1.00  0.00     0.168 HD
ATOM      4  S   UNL d   1      -2.243  -1.230   0.005  0.00  0.00    -0.052 SA
ATOM      5  C   UNL d   1      -0.758  -0.366  -0.005  0.00  0.00     0.036 A 
ATOM      6  C   UNL d   1      -1.034   1.000   0.003  0.00  0.00     0.051 A 
ATOM      7  C   UNL d   1       0.559  -0.860  -0.018  0.00  0.00     0.045 A 
ATOM      8  C   UNL d   1       0.042   1.911  -0.003  0.00  0.00     0.032 A 
ATOM      9  C   UNL d   1       1.604   0.067  -0.018  0.00  0.00     0.035 A 
ATOM     10  C   UNL d   1       1.357   1.436  -0.012  0.00  0.00     0.026 A 
ATOM     11 CL   UNL d   1       3.231  -0.498  -0.024  0.00  0.00    -0.084 Cl
ENDROOT
BRANCH   1  12
ATOM     12  N   UNL d   1      -4.485   0.172   0.065  0.00  0.00    -0.333 N 
ATOM     13  C   UNL d   1      -5.118   1.297   0.100  0.00  0.00     0.179 C 
ATOM     14  HN  UNL d   1      -4.972  -0.724   0.063  1.00  0.00     0.168 HD
BRANCH  13  15
ATOM     15  N   UNL d   1      -6.488   1.453   0.144  0.00  0.00    -0.386 N 
ATOM     16  C   UNL d   1      -7.117   2.762   0.175  0.00  0.00     0.149 C 
ATOM     17  C   UNL d   1      -7.389   0.313   0.166  0.00  0.00     0.149 C 
ENDBRANCH  13  15
ENDBRANCH   1  12
TORSDOF 2
