REMARK  4 active torsions:
REMARK  status: ('A' for Active; 'I' for Inactive)
REMARK    1  A    between atoms: C_6  and  N_1 
REMARK    2  A    between atoms: S_7  and  C_4 
REMARK    3  A    between atoms: C_9  and  S_7 
REMARK    4  A    between atoms: N_17  and  C_14 
ROOT
ATOM      1  N   UNL d   1       0.039   0.844  -0.075  0.00  0.00    -0.251 N 
ATOM      2  C   UNL d   1      -1.102   0.125   0.175  0.00  0.00     0.232 C 
ATOM      3  C   UNL d   1       1.155   0.045  -0.155  0.00  0.00     0.245 C 
ATOM      4  C   UNL d   1       0.712  -1.404  -0.186  0.00  0.00     0.154 C 
ATOM      5  C   UNL d   1      -0.760  -1.337   0.195  0.00  0.00     0.129 C 
ATOM      6  O   UNL d   1      -2.231   0.549   0.372  0.00  0.00    -0.273 OA
ATOM      7  O   UNL d   1       2.328   0.402  -0.170  0.00  0.00    -0.271 OA
ENDROOT
BRANCH   4   8
ATOM      8  S   UNL d   1       1.038  -2.038  -1.877  0.00  0.00    -0.113 SA
BRANCH   8   9
ATOM      9  C   UNL d   1       0.533  -3.755  -1.726  0.00  0.00     0.022 A 
ATOM     10  C   UNL d   1      -0.469  -4.265  -2.582  0.00  0.00     0.022 A 
ATOM     11  C   UNL d   1      -0.882  -5.592  -2.429  0.00  0.00     0.024 A 
ATOM     12  C   UNL d   1      -0.228  -6.443  -1.539  0.00  0.00     0.002 A 
ATOM     13  C   UNL d   1       0.817  -5.961  -0.756  0.00  0.00     0.001 A 
ATOM     14  C   UNL d   1       1.191  -4.618  -0.841  0.00  0.00     0.020 A 
BRANCH  10  15
ATOM     15  N   UNL d   1      -1.205  -3.414  -3.433  0.00  0.00    -0.302 NA
ATOM     16  H   UNL d   1      -0.639  -2.619  -3.729  0.00  0.00     0.124 HD
ATOM     17  H   UNL d   1      -1.622  -3.898  -4.223  0.00  0.00     0.124 HD
ENDBRANCH  10  15
ENDBRANCH   8   9
ENDBRANCH   4   8
BRANCH   1  18
ATOM     18  C   UNL d   1       0.088   2.257  -0.098  0.00  0.00     0.051 A 
ATOM     19  C   UNL d   1       0.662   2.960  -1.178  0.00  0.00    -0.033 A 
ATOM     20  C   UNL d   1       0.717   4.366  -1.129  0.00  0.00     0.028 A 
ATOM     21  C   UNL d   1       1.152   2.301  -2.440  0.00  0.00     0.050 C 
ATOM     22  C   UNL d   1       0.199   5.063  -0.039  0.00  0.00     0.011 A 
ATOM     23  C   UNL d   1      -0.391   4.375   1.014  0.00  0.00     0.021 A 
ATOM     24 BR   UNL d   1       0.279   6.951  -0.007  0.00  0.00    -0.051 Br
ATOM     25  C   UNL d   1      -0.458   2.979   0.978  0.00  0.00     0.032 A 
ENDBRANCH   1  18
TORSDOF 4
