REMARK  3 active torsions:
REMARK  status: ('A' for Active; 'I' for Inactive)
REMARK    1  A    between atoms: C_14  and  C_4 
REMARK    2  A    between atoms: C_9  and  O_15 
REMARK    3  A    between atoms: O_15  and  C_22 
ROOT
ATOM      1  N   UNL d   1       0.702   0.207  -0.901  0.00  0.00    -0.317 N 
ATOM      2  HN  UNL d   1       1.311   0.397  -1.697  1.00  0.00     0.169 HD
ATOM      3  C   UNL d   1       0.171  -0.943  -0.529  0.00  0.00     0.208 A 
ATOM      4  C   UNL d   1       0.234   1.087   0.049  0.00  0.00     0.138 A 
ATOM      5  C   UNL d   1       0.363  -2.174  -1.220  0.00  0.00     0.153 A 
ATOM      6  N   UNL d   1      -0.547   0.517   0.980  0.00  0.00    -0.242 N 
ATOM      7  HN  UNL d   1      -1.002   0.959   1.779  1.00  0.00     0.196 HD
ATOM      8  O   UNL d   1      -0.592  -0.822   0.598  0.00  0.00    -0.215 OA
ATOM      9  N   UNL d   1       0.132  -4.367  -1.693  0.00  0.00    -0.272 N 
ATOM     10  HN  UNL d   1      -0.163  -5.342  -1.653  1.00  0.00     0.194 HD
ATOM     11  O   UNL d   1      -0.240  -3.341  -0.842  0.00  0.00    -0.234 OA
ATOM     12  C   UNL d   1       1.140  -2.438  -2.332  0.00  0.00     0.063 A 
ATOM     13  C   UNL d   1       0.960  -3.808  -2.577  0.00  0.00     0.117 A 
ENDROOT
BRANCH   4  14
ATOM     14  C   UNL d   1       0.549   2.512   0.010  0.00  0.00     0.010 A 
ATOM     15  C   UNL d   1       1.345   3.035  -1.020  0.00  0.00     0.018 A 
ATOM     16  C   UNL d   1       1.623   4.407  -1.092  0.00  0.00     0.038 A 
ATOM     17  C   UNL d   1       1.078   5.280  -0.154  0.00  0.00     0.078 A 
ATOM     18  C   UNL d   1       0.328   4.758   0.904  0.00  0.00     0.038 A 
ATOM     19  C   UNL d   1       0.060   3.388   0.985  0.00  0.00     0.018 A 
BRANCH  17  20
ATOM     20  O   UNL d   1       1.236   6.630  -0.122  0.00  0.00    -0.255 OA
BRANCH  20  21
ATOM     21  C   UNL d   1       1.412   7.348  -1.335  0.00  0.00     0.530 C 
ATOM     22  F   UNL d   1       1.182   6.622  -2.449  0.00  0.00    -0.144 F 
ATOM     23  F   UNL d   1       0.553   8.393  -1.342  0.00  0.00    -0.144 F 
ATOM     24  F   UNL d   1       2.669   7.839  -1.386  0.00  0.00    -0.144 F 
ENDBRANCH  20  21
ENDBRANCH  17  20
ENDBRANCH   4  14
TORSDOF 3
