REMARK  4 active torsions:
REMARK  status: ('A' for Active; 'I' for Inactive)
REMARK    1  A    between atoms: S_9  and  C_1 
REMARK    2  A    between atoms: N_3  and  C_2 
REMARK    3  A    between atoms: C_5  and  S_9 
REMARK    4  A    between atoms: N_6  and  C_11 
ROOT
ATOM      1  C   UNL d   1      -0.693  -4.755  -0.961  0.00  0.00     0.122 A 
ATOM      2  C   UNL d   1      -0.907  -3.822   0.078  0.00  0.00     0.047 A 
ATOM      3  C   UNL d   1       0.390  -5.649  -0.975  0.00  0.00     0.073 A 
ATOM      4  C   UNL d   1       1.299  -5.610   0.079  0.00  0.00     0.105 A 
ATOM      5  C   UNL d   1       0.014  -3.822   1.155  0.00  0.00    -0.040 A 
ATOM      6  C   UNL d   1       1.112  -4.714   1.139  0.00  0.00     0.044 A 
ATOM      7  C   UNL d   1      -0.078  -2.910   2.354  0.00  0.00     0.049 C 
ENDROOT
BRANCH   2   8
ATOM      8  S   UNL d   1      -2.249  -2.628   0.002  0.00  0.00    -0.051 SA
BRANCH   8   9
ATOM      9  C   UNL d   1      -3.447  -3.455   0.951  0.00  0.00     0.156 A 
ATOM     10  N   UNL d   1      -4.687  -2.900   1.216  0.00  0.00    -0.301 N 
ATOM     11  C   UNL d   1      -5.325  -3.795   2.071  0.00  0.00     0.056 A 
ATOM     12  C   UNL d   1      -5.292  -1.710   0.793  0.00  0.00     0.099 A 
ATOM     13  C   UNL d   1      -6.619  -3.457   2.553  0.00  0.00     0.031 A 
ATOM     14  C   UNL d   1      -4.454  -4.849   2.221  0.00  0.00     0.120 A 
ATOM     15  C   UNL d   1      -7.192  -2.305   2.155  0.00  0.00     0.004 A 
ATOM     16  C   UNL d   1      -6.522  -1.398   1.235  0.00  0.00     0.018 A 
ATOM     17  N   UNL d   1      -3.289  -4.629   1.526  0.00  0.00    -0.344 N 
ATOM     18  HN  UNL d   1      -2.477  -5.243   1.468  1.00  0.00     0.167 HD
ENDBRANCH   8   9
ENDBRANCH   2   8
BRANCH   1  19
ATOM     19  N   UNL d   1      -1.588  -4.824  -2.101  0.00  0.00    -0.114 N 
ATOM     20  O   UNL d   1      -1.602  -3.856  -2.871  0.00  0.00    -0.532 OA
ATOM     21  O   UNL d   1      -2.209  -5.883  -2.260  0.00  0.00    -0.532 OA
ENDBRANCH   1  19
BRANCH   4  22
ATOM     22  N   UNL d   1       2.470  -6.496   0.068  0.00  0.00    -0.116 N 
ATOM     23  O   UNL d   1       2.627  -7.224  -0.921  0.00  0.00    -0.532 OA
ATOM     24  O   UNL d   1       3.237  -6.450   1.040  0.00  0.00    -0.532 OA
ENDBRANCH   4  22
TORSDOF 4
