REMARK  6 active torsions:
REMARK  status: ('A' for Active; 'I' for Inactive)
REMARK    1  A    between atoms: N_7  and  C_1 
REMARK    2  A    between atoms: N_6  and  C_2 
REMARK    3  A    between atoms: S_8  and  C_3 
REMARK    4  A    between atoms: S_9  and  C_4 
REMARK    5  A    between atoms: C_14  and  S_8 
REMARK    6  A    between atoms: C_15  and  S_9 
ROOT
ATOM      1  C   UNL d   1       1.583   0.669   0.040  0.00  0.00     0.161 A 
ATOM      2  C   UNL d   1       1.576  -0.754  -0.057  0.00  0.00     0.161 A 
ATOM      3  C   UNL d   1       0.314   1.211   0.009  0.00  0.00     0.083 A 
ATOM      4  C   UNL d   1       0.299  -1.279  -0.031  0.00  0.00     0.083 A 
ATOM      5  S   UNL d   1      -0.875  -0.026  -0.013  0.00  0.00    -0.070 SA
ENDROOT
BRANCH   3   6
ATOM      6  S   UNL d   1      -0.153   2.908   0.076  0.00  0.00    -0.081 SA
BRANCH   6   7
ATOM      7  C   UNL d   1      -0.300   3.270  -1.668  0.00  0.00     0.006 A 
ATOM      8  C   UNL d   1      -1.504   3.037  -2.341  0.00  0.00     0.019 A 
ATOM      9  C   UNL d   1      -1.677   3.473  -3.661  0.00  0.00     0.008 A 
ATOM     10  C   UNL d   1      -0.653   4.158  -4.324  0.00  0.00    -0.062 A 
ATOM     11  C   UNL d   1       0.562   4.362  -3.661  0.00  0.00     0.008 A 
ATOM     12  C   UNL d   1      -0.879   4.688  -5.710  0.00  0.00     0.048 C 
ATOM     13  C   UNL d   1       0.736   3.925  -2.342  0.00  0.00     0.019 A 
ENDBRANCH   6   7
ENDBRANCH   3   6
BRANCH   1  14
ATOM     14  N   UNL d   1       2.772   1.457   0.121  0.00  0.00    -0.111 N 
ATOM     15  O   UNL d   1       3.530   1.394  -0.851  0.00  0.00    -0.532 OA
ATOM     16  O   UNL d   1       2.940   2.111   1.154  0.00  0.00    -0.532 OA
ENDBRANCH   1  14
BRANCH   2  17
ATOM     17  N   UNL d   1       2.757  -1.555  -0.135  0.00  0.00    -0.111 N 
ATOM     18  O   UNL d   1       3.549  -1.446   0.807  0.00  0.00    -0.532 OA
ATOM     19  O   UNL d   1       2.889  -2.264  -1.135  0.00  0.00    -0.532 OA
ENDBRANCH   2  17
BRANCH   4  20
ATOM     20  S   UNL d   1      -0.194  -2.969  -0.095  0.00  0.00    -0.081 SA
BRANCH  20  21
ATOM     21  C   UNL d   1      -0.312  -3.334   1.651  0.00  0.00     0.006 A 
ATOM     22  C   UNL d   1      -1.501  -3.088   2.347  0.00  0.00     0.019 A 
ATOM     23  C   UNL d   1      -1.657  -3.530   3.666  0.00  0.00     0.008 A 
ATOM     24  C   UNL d   1      -0.631  -4.234   4.306  0.00  0.00    -0.062 A 
ATOM     25  C   UNL d   1       0.571  -4.449   3.623  0.00  0.00     0.008 A 
ATOM     26  C   UNL d   1      -0.842  -4.775   5.691  0.00  0.00     0.048 C 
ATOM     27  C   UNL d   1       0.728  -4.005   2.302  0.00  0.00     0.019 A 
ENDBRANCH  20  21
ENDBRANCH   4  20
TORSDOF 6
