REMARK  5 active torsions:
REMARK  status: ('A' for Active; 'I' for Inactive)
REMARK    1  A    between atoms: C_5  and  C_1 
REMARK    2  A    between atoms: S_9  and  C_4 
REMARK    3  A    between atoms: C_8  and  C_11 
REMARK    4  A    between atoms: C_10  and  C_8 
REMARK    5  A    between atoms: C_11  and  S_9 
ROOT
ATOM      1  N   UNL d   1      -3.720   2.761  -4.329  0.00  0.00    -0.333 N 
ATOM      2  HN  UNL d   1      -3.503   2.214  -5.162  1.00  0.00     0.168 HD
ATOM      3  C   UNL d   1      -2.752   3.189  -3.502  0.00  0.00     0.144 A 
ATOM      4  C   UNL d   1      -5.001   3.086  -4.011  0.00  0.00     0.119 A 
ATOM      5  N   UNL d   1      -2.967   3.895  -2.383  0.00  0.00    -0.347 N 
ATOM      6  HN  UNL d   1      -2.200   4.179  -1.774  1.00  0.00     0.167 HD
ATOM      7  C   UNL d   1      -5.306   3.828  -2.883  0.00  0.00     0.051 A 
ATOM      8  C   UNL d   1      -4.243   4.211  -2.102  0.00  0.00     0.092 A 
ENDROOT
BRANCH   3   9
ATOM      9  S   UNL d   1      -1.081   2.711  -3.856  0.00  0.00    -0.086 SA
BRANCH   9  10
ATOM     10  C   UNL d   1      -1.188   2.547  -5.667  0.00  0.00     0.166 C 
BRANCH  10  11
ATOM     11  C   UNL d   1      -1.537   3.866  -6.337  0.00  0.00     0.169 C 
ATOM     12  O   UNL d   1      -1.283   4.967  -5.850  0.00  0.00    -0.291 OA
BRANCH  11  13
ATOM     13  C   UNL d   1      -2.200   3.830  -7.671  0.00  0.00     0.011 A 
ATOM     14  C   UNL d   1      -2.963   4.943  -8.055  0.00  0.00     0.016 A 
ATOM     15  C   UNL d   1      -3.587   4.976  -9.304  0.00  0.00     0.020 A 
ATOM     16  C   UNL d   1      -3.440   3.899 -10.174  0.00  0.00     0.011 A 
ATOM     17  C   UNL d   1      -2.681   2.789  -9.805  0.00  0.00     0.020 A 
ATOM     18 BR   UNL d   1      -4.265   3.951 -11.874  0.00  0.00    -0.051 Br
ATOM     19  C   UNL d   1      -2.059   2.751  -8.552  0.00  0.00     0.016 A 
ENDBRANCH  11  13
ENDBRANCH  10  11
ENDBRANCH   9  10
ENDBRANCH   3   9
BRANCH   4  20
ATOM     20  C   UNL d   1      -6.130   2.602  -4.903  0.00  0.00     0.432 C 
ATOM     21  F   UNL d   1      -5.711   1.940  -6.018  0.00  0.00    -0.165 F 
ATOM     22  F   UNL d   1      -6.918   3.623  -5.349  0.00  0.00    -0.165 F 
ATOM     23  F   UNL d   1      -6.973   1.745  -4.255  0.00  0.00    -0.165 F 
ENDBRANCH   4  20
TORSDOF 5
