REMARK  4 active torsions:
REMARK  status: ('A' for Active; 'I' for Inactive)
REMARK    1  A    between atoms: C_7  and  C_1 
REMARK    2  A    between atoms: O_14  and  C_7 
REMARK    3  A    between atoms: O_15  and  C_9 
REMARK    4  A    between atoms: O_16  and  C_11 
ROOT
ATOM      1  C   UNL d   1      -1.790  -1.290  -0.082  0.00  0.00     0.114 A 
ATOM      2  C   UNL d   1      -2.101   0.149  -0.070  0.00  0.00     0.305 A 
ATOM      3  C   UNL d   1      -0.513  -1.713  -0.042  0.00  0.00     0.039 A 
ATOM      4  O   UNL d   1      -1.045   1.047  -0.070  0.00  0.00    -0.274 OA
ATOM      5  C   UNL d   1       0.287   0.599  -0.033  0.00  0.00     0.092 A 
ATOM      6  C   UNL d   1       0.580  -0.755  -0.002  0.00  0.00     0.002 A 
ATOM      7  C   UNL d   1       1.287   1.570  -0.027  0.00  0.00     0.077 A 
ATOM      8  C   UNL d   1       2.635   1.190   0.019  0.00  0.00     0.104 A 
ATOM      9  C   UNL d   1       1.917  -1.141   0.056  0.00  0.00     0.054 A 
ATOM     10  C   UNL d   1       2.951  -0.184   0.071  0.00  0.00     0.102 A 
ATOM     11  O   UNL d   1      -3.270   0.532  -0.070  0.00  0.00    -0.259 OA
ENDROOT
BRANCH   1  12
ATOM     12  C   UNL d   1      -2.852  -2.322  -0.141  0.00  0.00     0.182 C 
ATOM     13  O   UNL d   1      -2.616  -3.522  -0.167  0.00  0.00    -0.646 OA
BRANCH  12  14
ATOM     14  O   UNL d   1      -4.118  -1.852  -0.172  0.00  0.00    -0.772 OA
ATOM     15  H   UNL d   1      -4.208  -0.869  -0.141  0.00  0.00     0.167 HD
ENDBRANCH  12  14
ENDBRANCH   1  12
BRANCH  10  16
ATOM     16  O   UNL d   1       4.188  -0.774   0.136  0.00  0.00    -0.353 OA
ATOM     17  C   UNL d   1       5.345   0.047   0.173  0.00  0.00     0.210 C 
ENDBRANCH  10  16
BRANCH   8  18
ATOM     18  O   UNL d   1       3.659   2.096   0.017  0.00  0.00    -0.353 OA
ATOM     19  C   UNL d   1       3.341   3.480  -0.061  0.00  0.00     0.210 C 
ENDBRANCH   8  18
TORSDOF 4
