REMARK  4 active torsions:
REMARK  status: ('A' for Active; 'I' for Inactive)
REMARK    1  A    between atoms: C_7  and  N_1 
REMARK    2  A    between atoms: C_10  and  C_4 
REMARK    3  A    between atoms: C_6  and  O_11 
REMARK    4  A    between atoms: O_11  and  C_17 
ROOT
ATOM      1  N   UNL d   1       0.008   0.887  -0.017  0.00  0.00    -0.245 N 
ATOM      2  C   UNL d   1      -1.105   0.094   0.107  0.00  0.00     0.266 A 
ATOM      3  C   UNL d   1       1.110   0.090  -0.172  0.00  0.00     0.256 A 
ATOM      4  C   UNL d   1      -0.664  -1.320  -0.002  0.00  0.00     0.048 A 
ATOM      5  C   UNL d   1       0.663  -1.299  -0.143  0.00  0.00     0.093 A 
ATOM      6  O   UNL d   1      -2.276   0.418   0.232  0.00  0.00    -0.267 OA
ATOM      7  O   UNL d   1       2.290   0.367  -0.287  0.00  0.00    -0.268 OA
ENDROOT
BRANCH   1   8
ATOM      8  C   UNL d   1       0.018   2.308   0.014  0.00  0.00     0.046 A 
ATOM      9  C   UNL d   1      -1.045   3.041   0.564  0.00  0.00     0.033 A 
ATOM     10  C   UNL d   1      -1.015   4.444   0.634  0.00  0.00     0.039 A 
ATOM     11  C   UNL d   1       0.091   5.142   0.167  0.00  0.00     0.078 A 
ATOM     12  C   UNL d   1       1.124   4.434  -0.442  0.00  0.00     0.039 A 
ATOM     13  C   UNL d   1       1.096   3.036  -0.507  0.00  0.00     0.033 A 
BRANCH  11  14
ATOM     14  O   UNL d   1       0.267   6.490   0.203  0.00  0.00    -0.255 OA
BRANCH  14  15
ATOM     15  C   UNL d   1      -0.308   7.234   1.267  0.00  0.00     0.530 C 
ATOM     16  F   UNL d   1      -0.729   6.480   2.304  0.00  0.00    -0.144 F 
ATOM     17  F   UNL d   1       0.624   8.094   1.738  0.00  0.00    -0.144 F 
ATOM     18  F   UNL d   1      -1.348   7.957   0.799  0.00  0.00    -0.144 F 
ENDBRANCH  14  15
ENDBRANCH  11  14
ENDBRANCH   1   8
BRANCH   4  19
ATOM     19  C   UNL d   1      -1.521  -2.511   0.011  0.00  0.00    -0.020 A 
ATOM     20  C   UNL d   1      -2.716  -2.539   0.744  0.00  0.00     0.012 A 
ATOM     21  C   UNL d   1      -3.557  -3.654   0.702  0.00  0.00     0.001 A 
ATOM     22  C   UNL d   1      -3.213  -4.760  -0.069  0.00  0.00     0.000 A 
ATOM     23  C   UNL d   1      -2.027  -4.755  -0.797  0.00  0.00     0.001 A 
ATOM     24  C   UNL d   1      -1.188  -3.639  -0.757  0.00  0.00     0.012 A 
ENDBRANCH   4  19
TORSDOF 4
