REMARK  5 active torsions:
REMARK  status: ('A' for Active; 'I' for Inactive)
REMARK    1  A    between atoms: S_2  and  C_1 
REMARK    2  A    between atoms: C_8  and  S_2 
REMARK    3  A    between atoms: C_7  and  C_3 
REMARK    4  A    between atoms: N_11  and  C_4 
REMARK    5  A    between atoms: O_13  and  C_7 
ROOT
ATOM      1  C   UNL d   1      -0.644  -1.250  -0.017  0.00  0.00     0.094 A 
ATOM      2  C   UNL d   1      -0.294   1.071  -0.046  0.00  0.00     0.107 A 
ATOM      3  C   UNL d   1      -1.236   0.052  -0.085  0.00  0.00     0.071 A 
ATOM      4  S   UNL d   1       1.300   0.423   0.033  0.00  0.00    -0.092 SA
ATOM      5  C   UNL d   1       0.731  -1.183   0.061  0.00  0.00     0.076 A 
ENDROOT
BRANCH   1   6
ATOM      6  S   UNL d   1      -1.510  -2.760   0.033  0.00  0.00     0.185 S 
ATOM      7  O   UNL d   1      -0.584  -3.675   0.674  0.00  0.00    -0.222 OA
ATOM      8  O   UNL d   1      -2.781  -2.428   0.652  0.00  0.00    -0.222 OA
BRANCH   6   9
ATOM      9  C   UNL d   1      -1.790  -3.293  -1.682  0.00  0.00     0.058 C 
ATOM     10  C   UNL d   1      -0.460  -3.489  -2.420  0.00  0.00     0.031 C 
ATOM     11  C   UNL d   1      -2.533  -4.642  -1.633  0.00  0.00     0.031 C 
ATOM     12  C   UNL d   1      -2.661  -2.282  -2.438  0.00  0.00     0.031 C 
ENDBRANCH   6   9
ENDBRANCH   1   6
BRANCH   3  13
ATOM     13  N   UNL d   1      -2.572   0.264  -0.162  0.00  0.00    -0.397 N 
ATOM     14  H   UNL d   1      -2.943   1.200   0.011  0.00  0.00     0.156 HD
ATOM     15  H   UNL d   1      -3.213  -0.461   0.179  0.00  0.00     0.156 HD
ENDBRANCH   3  13
BRANCH   2  16
ATOM     16  C   UNL d   1      -0.436   2.521  -0.043  0.00  0.00     0.302 C 
ATOM     17  O   UNL d   1       0.475   3.341  -0.038  0.00  0.00    -0.259 OA
BRANCH  16  18
ATOM     18  O   UNL d   1      -1.760   2.871  -0.030  0.00  0.00    -0.322 OA
ATOM     19  C   UNL d   1      -1.999   4.280  -0.024  0.00  0.00     0.213 C 
ENDBRANCH  16  18
ENDBRANCH   2  16
TORSDOF 5
