REMARK  1 active torsions:
REMARK  status: ('A' for Active; 'I' for Inactive)
REMARK    1  A    between atoms: O_11  and  C_9 
ROOT
ATOM      1  C   UNL d   1      -0.991  -0.963  -0.035  0.00  0.00     0.147 A 
ATOM      2  N   UNL d   1      -0.657   0.365  -0.022  0.00  0.00    -0.323 N 
ATOM      3  N   UNL d   1       0.066  -1.736  -0.062  0.00  0.00    -0.335 N 
ATOM      4  HN  UNL d   1       0.088  -2.755  -0.096  1.00  0.00     0.168 HD
ATOM      5  C   UNL d   1       0.717   0.449  -0.001  0.00  0.00     0.063 A 
ATOM      6  S   UNL d   1      -2.621  -1.540  -0.043  0.00  0.00    -0.091 SA
ATOM      7  C   UNL d   1       1.137  -0.879  -0.036  0.00  0.00     0.061 A 
ATOM      8  C   UNL d   1      -1.563   1.489   0.021  0.00  0.00     0.164 C 
ATOM      9  C   UNL d   1      -3.003   1.163  -0.375  0.00  0.00     0.146 C 
ATOM     10  C   UNL d   1      -3.528  -0.042   0.402  0.00  0.00     0.115 C 
ATOM     11  C   UNL d   1       1.612   1.524   0.047  0.00  0.00     0.032 A 
ATOM     12  C   UNL d   1       2.509  -1.169  -0.034  0.00  0.00     0.032 A 
ATOM     13  C   UNL d   1       2.978   1.214   0.052  0.00  0.00     0.002 A 
ATOM     14  C   UNL d   1       3.422  -0.109   0.010  0.00  0.00     0.002 A 
ENDROOT
BRANCH   9  15
ATOM     15  O   UNL d   1      -3.833   2.306  -0.135  0.00  0.00    -0.393 OA
ATOM     16  H   UNL d   1      -3.938   2.430   0.825  0.00  0.00     0.210 HD
ENDBRANCH   9  15
TORSDOF 1
