REMARK  0 active torsions:
REMARK  status: ('A' for Active; 'I' for Inactive)
ROOT
ATOM      1  C   UNL d   1      -2.563  -0.026   0.841  0.00  0.00    -0.040 A 
ATOM      2  C   UNL d   1      -2.592  -0.488  -0.516  0.00  0.00    -0.040 A 
ATOM      3  C   UNL d   1      -0.177  -0.627   0.953  0.00  0.00    -0.017 C 
ATOM      4  C   UNL d   1      -0.864   1.619   0.205  0.00  0.00    -0.017 C 
ATOM      5  C   UNL d   1      -0.206  -1.064  -0.330  0.00  0.00    -0.017 C 
ATOM      6  C   UNL d   1      -0.892   1.182  -1.080  0.00  0.00    -0.017 C 
ATOM      7  C   UNL d   1      -1.175   0.515   1.241  0.00  0.00     0.064 C 
ATOM      8  C   UNL d   1      -1.229  -0.321  -1.216  0.00  0.00     0.064 C 
ATOM      9  C   UNL d   1      -3.709  -0.042   1.619  0.00  0.00     0.009 A 
ATOM     10  C   UNL d   1      -3.764  -0.965  -1.077  0.00  0.00     0.009 A 
ATOM     11  C   UNL d   1      -4.890  -0.515   1.044  0.00  0.00     0.001 A 
ATOM     12  C   UNL d   1      -4.919  -0.970  -0.287  0.00  0.00     0.001 A 
ENDROOT
TORSDOF 0
