REMARK  6 active torsions:
REMARK  status: ('A' for Active; 'I' for Inactive)
REMARK    1  A    between atoms: S_3  and  C_1 
REMARK    2  A    between atoms: C_5  and  C_1 
REMARK    3  A    between atoms: C_6  and  C_2 
REMARK    4  A    between atoms: C_4  and  S_3 
REMARK    5  A    between atoms: O_15  and  C_5 
REMARK    6  A    between atoms: O_16  and  C_6 
ROOT
ATOM      1  C   UNL d   1       0.928  -0.204  -0.084  0.00  0.00     0.086 C 
ATOM      2  C   UNL d   1       1.435   0.116  -1.285  0.00  0.00     0.107 C 
ENDROOT
BRANCH   1   3
ATOM      3  S   UNL d   1       0.195   1.039   0.901  0.00  0.00    -0.084 SA
BRANCH   3   4
ATOM      4  C   UNL d   1      -1.531   0.791   0.491  0.00  0.00     0.012 A 
ATOM      5  C   UNL d   1      -2.239  -0.189   1.213  0.00  0.00     0.027 A 
ATOM      6  C   UNL d   1      -3.616  -0.400   1.018  0.00  0.00    -0.039 A 
ATOM      7  C   UNL d   1      -4.327  -1.460   1.811  0.00  0.00     0.050 C 
ATOM      8  C   UNL d   1      -4.285   0.394   0.082  0.00  0.00     0.040 A 
ATOM      9  C   UNL d   1      -3.594   1.374  -0.636  0.00  0.00     0.032 A 
ATOM     10 CL   UNL d   1      -5.977   0.218  -0.215  0.00  0.00    -0.084 Cl
ATOM     11  C   UNL d   1      -2.216   1.588  -0.444  0.00  0.00    -0.043 A 
ATOM     12  C   UNL d   1      -1.584   2.697  -1.242  0.00  0.00     0.049 C 
ENDBRANCH   3   4
ENDBRANCH   1   3
BRANCH   1  13
ATOM     13  C   UNL d   1       0.996  -1.586   0.477  0.00  0.00     0.300 C 
ATOM     14  O   UNL d   1       0.816  -2.599  -0.183  0.00  0.00    -0.259 OA
BRANCH  13  15
ATOM     15  O   UNL d   1       1.234  -1.543   1.814  0.00  0.00    -0.322 OA
ATOM     16  C   UNL d   1       1.299  -2.808   2.472  0.00  0.00     0.213 C 
ENDBRANCH  13  15
ENDBRANCH   1  13
BRANCH   2  17
ATOM     17  C   UNL d   1       2.233  -0.784  -2.137  0.00  0.00     0.283 C 
ATOM     18  O   UNL d   1       2.995  -1.647  -1.735  0.00  0.00    -0.260 OA
BRANCH  17  19
ATOM     19  O   UNL d   1       2.047  -0.391  -3.421  0.00  0.00    -0.323 OA
ATOM     20  C   UNL d   1       2.836  -1.088  -4.388  0.00  0.00     0.213 C 
ENDBRANCH  17  19
ENDBRANCH   2  17
TORSDOF 6
