REMARK  3 active torsions:
REMARK  status: ('A' for Active; 'I' for Inactive)
REMARK    1  A    between atoms: C_10  and  N_1 
REMARK    2  A    between atoms: C_11  and  C_2 
REMARK    3  A    between atoms: C_9  and  C_10 
ROOT
ATOM      1  N   UNL d   1      -0.047  -1.231  -0.068  0.00  0.00    -0.255 N 
ATOM      2  C   UNL d   1       1.137  -0.532  -0.225  0.00  0.00     0.149 A 
ATOM      3  N   UNL d   1      -0.493   0.840   0.166  0.00  0.00    -0.226 N 
ATOM      4  HN  UNL d   1      -1.005   1.713   0.288  1.00  0.00     0.210 HD
ATOM      5  N   UNL d   1      -1.027  -0.361   0.264  0.00  0.00    -0.224 N 
ATOM      6  HN  UNL d   1      -1.984  -0.588   0.535  1.00  0.00     0.210 HD
ATOM      7  N   UNL d   1       0.835   0.754  -0.119  0.00  0.00    -0.268 N 
ATOM      8  HN  UNL d   1       1.479   1.537  -0.231  1.00  0.00     0.190 HD
ENDROOT
BRANCH   1   9
ATOM      9  C   UNL d   1      -0.332  -2.657   0.069  0.00  0.00     0.194 C 
BRANCH   9  10
ATOM     10  C   UNL d   1      -0.550  -3.400  -1.240  0.00  0.00     0.005 C 
ATOM     11  C   UNL d   1       0.185  -4.569  -1.538  0.00  0.00     0.043 C 
ATOM     12 CL   UNL d   1       1.264  -5.306  -0.401  0.00  0.00    -0.084 Cl
ATOM     13  C   UNL d   1       0.069  -5.215  -2.777  0.00  0.00     0.024 C 
ATOM     14  C   UNL d   1      -0.824  -4.747  -3.732  0.00  0.00     0.003 C 
ATOM     15  C   UNL d   1      -1.637  -3.666  -3.425  0.00  0.00     0.024 C 
ATOM     16  C   UNL d   1      -1.520  -3.014  -2.187  0.00  0.00     0.043 C 
ATOM     17 CL   UNL d   1      -2.701  -1.791  -1.888  0.00  0.00    -0.084 Cl
ENDBRANCH   9  10
ENDBRANCH   1   9
BRANCH   2  18
ATOM     18  C   UNL d   1       2.513  -1.016  -0.384  0.00  0.00     0.011 A 
ATOM     19  C   UNL d   1       2.857  -2.170  -1.089  0.00  0.00     0.017 A 
ATOM     20  C   UNL d   1       4.193  -2.578  -1.204  0.00  0.00     0.025 A 
ATOM     21  C   UNL d   1       5.208  -1.802  -0.654  0.00  0.00     0.034 A 
ATOM     22  C   UNL d   1       4.898  -0.624   0.013  0.00  0.00     0.025 A 
ATOM     23 CL   UNL d   1       6.848  -2.289  -0.825  0.00  0.00    -0.084 Cl
ATOM     24  C   UNL d   1       3.559  -0.240   0.149  0.00  0.00     0.017 A 
ENDBRANCH   2  18
TORSDOF 3
