REMARK  4 active torsions:
REMARK  status: ('A' for Active; 'I' for Inactive)
REMARK    1  A    between atoms: C_4  and  C_1 
REMARK    2  A    between atoms: N_2  and  C_3 
REMARK    3  A    between atoms: O_15  and  C_4 
REMARK       I    between atoms: C_8  and  N_10 
REMARK    4  A    between atoms: N_10  and  C_11 
ROOT
ATOM      1  C   UNL d   1       1.349  -0.323   0.066  0.00  0.00     0.072 A 
ATOM      2  C   UNL d   1       0.467  -1.405  -0.056  0.00  0.00     0.119 A 
ATOM      3  C   UNL d   1       0.828   0.985   0.144  0.00  0.00     0.050 A 
ATOM      4  C   UNL d   1      -0.922  -1.171  -0.058  0.00  0.00     0.039 A 
ATOM      5  C   UNL d   1      -0.549   1.221   0.127  0.00  0.00     0.035 A 
ATOM      6  C   UNL d   1      -1.422   0.133   0.041  0.00  0.00     0.032 A 
ENDROOT
BRANCH   5   7
ATOM      7  N   UNL d   1      -1.125   2.506   0.216  0.00  0.00    -0.327 N 
ATOM      8  C   UNL d   1      -0.459   3.716   0.147  0.00  0.00     0.218 C 
ATOM      9  O   UNL d   1       0.730   3.881  -0.098  0.00  0.00    -0.274 OA
ATOM     10  C   UNL d   1      -1.355   4.905   0.388  0.00  0.00     0.117 C 
ATOM     11  H   UNL d   1      -2.134   2.542   0.281  0.00  0.00     0.169 HD
ENDBRANCH   5   7
BRANCH   1  12
ATOM     12  C   UNL d   1       2.823  -0.405   0.127  0.00  0.00     0.178 C 
ATOM     13  O   UNL d   1       3.575   0.301  -0.513  0.00  0.00    -0.646 OA
BRANCH  12  14
ATOM     14  O   UNL d   1       3.210  -1.222   1.125  0.00  0.00    -0.773 OA
ATOM     15  H   UNL d   1       3.298  -2.131   0.749  0.00  0.00     0.167 HD
ENDBRANCH  12  14
ENDBRANCH   1  12
BRANCH   2  16
ATOM     16  N   UNL d   1       0.925  -2.794  -0.224  0.00  0.00    -0.115 N 
ATOM     17  O   UNL d   1       2.143  -3.025  -0.227  0.00  0.00    -0.532 OA
ATOM     18  O   UNL d   1       0.060  -3.671  -0.350  0.00  0.00    -0.532 OA
ENDBRANCH   2  16
TORSDOF 4
