REMARK  8 active torsions:
REMARK  status: ('A' for Active; 'I' for Inactive)
REMARK    1  A    between atoms: N_2  and  C_1 
REMARK    2  A    between atoms: N_3  and  C_1 
REMARK    3  A    between atoms: C_6  and  N_2 
REMARK    4  A    between atoms: N_5  and  N_3 
REMARK    5  A    between atoms: C_7  and  N_3 
REMARK    6  A    between atoms: C_9  and  C_6 
REMARK    7  A    between atoms: C_16  and  C_7 
REMARK    8  A    between atoms: O_15  and  C_16 
ROOT
ATOM      1  C   UNL d   1       1.000   0.121   0.101  0.00  0.00     0.184 C 
ATOM      2  S   UNL d   1       2.433  -0.303  -0.680  0.00  0.00    -0.040 SA
ENDROOT
BRANCH   1   3
ATOM      3  N   UNL d   1       0.399  -0.652   1.074  0.00  0.00    -0.362 N 
ATOM      4  H   UNL d   1      -0.613  -0.535   1.140  0.00  0.00     0.162 HD
BRANCH   3   5
ATOM      5  C   UNL d   1       0.945  -1.878   1.635  0.00  0.00     0.160 C 
BRANCH   5   6
ATOM      6  C   UNL d   1      -0.046  -2.662   2.461  0.00  0.00    -0.040 A 
ATOM      7  C   UNL d   1      -0.134  -4.055   2.297  0.00  0.00     0.010 A 
ATOM      8  C   UNL d   1      -1.004  -4.815   3.081  0.00  0.00     0.024 A 
ATOM      9  C   UNL d   1      -1.792  -4.189   4.042  0.00  0.00     0.034 A 
ATOM     10  C   UNL d   1      -1.713  -2.811   4.225  0.00  0.00     0.024 A 
ATOM     11 CL   UNL d   1      -2.859  -5.125   5.014  0.00  0.00    -0.084 Cl
ATOM     12  C   UNL d   1      -0.838  -2.050   3.445  0.00  0.00     0.010 A 
ENDBRANCH   5   6
ENDBRANCH   3   5
ENDBRANCH   1   3
BRANCH   1  13
ATOM     13  N   UNL d   1       0.320   1.325  -0.169  0.00  0.00    -0.289 N 
BRANCH  13  14
ATOM     14  N   UNL d   1       0.689   2.112  -1.301  0.00  0.00    -0.245 NA
ATOM     15  H   UNL d   1       0.830   1.457  -2.079  0.00  0.00     0.143 HD
ATOM     16  H   UNL d   1       1.633   2.463  -1.115  0.00  0.00     0.143 HD
ENDBRANCH  13  14
BRANCH  13  17
ATOM     17  C   UNL d   1      -0.661   1.953   0.733  0.00  0.00     0.171 C 
BRANCH  17  18
ATOM     18  C   UNL d   1      -2.094   1.519   0.436  0.00  0.00     0.185 C 
BRANCH  18  19
ATOM     19  O   UNL d   1      -2.304   0.169   0.856  0.00  0.00    -0.399 OA
ATOM     20  H   UNL d   1      -3.204  -0.071   0.566  0.00  0.00     0.209 HD
ENDBRANCH  18  19
ENDBRANCH  17  18
ENDBRANCH  13  17
ENDBRANCH   1  13
TORSDOF 8
