REMARK  6 active torsions:
REMARK  status: ('A' for Active; 'I' for Inactive)
REMARK    1  A    between atoms: C_6  and  C_1 
REMARK    2  A    between atoms: C_9  and  C_2 
REMARK    3  A    between atoms: C_11  and  N_3 
REMARK    4  A    between atoms: N_7  and  C_12 
REMARK       I    between atoms: N_18  and  C_9 
REMARK    5  A    between atoms: N_14  and  N_18 
REMARK    6  A    between atoms: C_29  and  C_27 
ROOT
ATOM      1  N   UNL d   1      -0.503 -12.639   0.597  0.00  0.00    -0.191 NA
ATOM      2  C   UNL d   1      -0.281 -11.505   0.469  0.00  0.00     0.099 C 
ATOM      3  C   UNL d   1      -0.003 -10.109   0.295  0.00  0.00     0.044 A 
ATOM      4  C   UNL d   1       0.530  -7.382  -0.065  0.00  0.00    -0.019 A 
ATOM      5  C   UNL d   1      -0.921  -9.150   0.736  0.00  0.00     0.023 A 
ATOM      6  C   UNL d   1       1.188  -9.698  -0.320  0.00  0.00     0.023 A 
ATOM      7  C   UNL d   1      -0.656  -7.789   0.554  0.00  0.00     0.014 A 
ATOM      8  C   UNL d   1       1.459  -8.335  -0.495  0.00  0.00     0.014 A 
ENDROOT
BRANCH   4   9
ATOM      9  C   UNL d   1       0.815  -5.945  -0.269  0.00  0.00     0.118 C 
ATOM     10  N   UNL d   1      -0.093  -5.043  -0.069  0.00  0.00    -0.308 N 
ATOM     11  HN  UNL d   1      -1.045  -5.285   0.207  1.00  0.00     0.186 HD
BRANCH  10  12
ATOM     12  N   UNL d   1       0.302  -3.744  -0.250  0.00  0.00    -0.266 N 
ATOM     13  C   UNL d   1      -0.605  -2.712  -0.051  0.00  0.00     0.273 C 
ATOM     14  O   UNL d   1      -1.802  -2.903   0.149  0.00  0.00    -0.266 OA
ATOM     15  H   UNL d   1       1.291  -3.569  -0.364  0.00  0.00     0.190 HD
BRANCH  13  16
ATOM     16  C   UNL d   1      -0.087  -1.338  -0.070  0.00  0.00     0.084 A 
ATOM     17  C   UNL d   1       1.185  -0.782  -0.224  0.00  0.00     0.157 A 
ATOM     18  N   UNL d   1       1.039   0.597  -0.109  0.00  0.00    -0.251 N 
ATOM     19  N   UNL d   1      -0.233   0.933   0.205  0.00  0.00    -0.303 N 
ATOM     20  C   UNL d   1      -0.908  -0.210   0.166  0.00  0.00     0.127 A 
ATOM     21  HN  UNL d   1      -0.594   1.861   0.425  1.00  0.00     0.186 HD
BRANCH  17  22
ATOM     22  C   UNL d   1       2.515  -1.392  -0.357  0.00  0.00     0.435 C 
ATOM     23  F   UNL d   1       2.516  -2.707  -0.016  0.00  0.00    -0.165 F 
ATOM     24  F   UNL d   1       2.960  -1.354  -1.635  0.00  0.00    -0.165 F 
ATOM     25  F   UNL d   1       3.454  -0.815   0.429  0.00  0.00    -0.165 F 
ENDBRANCH  17  22
BRANCH  18  26
ATOM     26  C   UNL d   1       2.022   1.633  -0.171  0.00  0.00     0.057 A 
ATOM     27  C   UNL d   1       3.133   1.545  -1.018  0.00  0.00     0.034 A 
ATOM     28  C   UNL d   1       4.180   2.464  -0.908  0.00  0.00     0.038 A 
ATOM     29  C   UNL d   1       4.097   3.500   0.029  0.00  0.00     0.103 A 
ATOM     30  C   UNL d   1       2.941   3.666   0.801  0.00  0.00     0.038 A 
ATOM     31  C   UNL d   1       1.896   2.740   0.687  0.00  0.00     0.034 A 
BRANCH  29  32
ATOM     32  N   UNL d   1       5.246   4.395   0.218  0.00  0.00    -0.116 N 
ATOM     33  O   UNL d   1       5.128   5.321   1.033  0.00  0.00    -0.532 OA
ATOM     34  O   UNL d   1       6.272   4.160  -0.436  0.00  0.00    -0.532 OA
ENDBRANCH  29  32
ENDBRANCH  18  26
ENDBRANCH  13  16
ENDBRANCH  10  12
ENDBRANCH   4   9
TORSDOF 6
