REMARK  3 active torsions:
REMARK  status: ('A' for Active; 'I' for Inactive)
REMARK    1  A    between atoms: C_4  and  C_1 
REMARK    2  A    between atoms: C_5  and  N_2 
REMARK    3  A    between atoms: C_11  and  C_17 
ROOT
ATOM      1  N   UNL d   1       0.060  -6.476  -0.838  0.00  0.00    -0.365 N 
ATOM      2  HN  UNL d   1       1.064  -6.297  -0.860  1.00  0.00     0.165 HD
ATOM      3  C   UNL d   1      -0.762  -5.506  -0.595  0.00  0.00     0.099 C 
ENDROOT
BRANCH   3   4
ATOM      4  C   UNL d   1      -0.281  -4.124  -0.390  0.00  0.00    -0.021 A 
ATOM      5  C   UNL d   1       1.088  -3.849  -0.321  0.00  0.00     0.013 A 
ATOM      6  C   UNL d   1       1.526  -2.534  -0.143  0.00  0.00     0.017 A 
ATOM      7  C   UNL d   1       0.603  -1.482  -0.035  0.00  0.00     0.048 A 
ATOM      8  C   UNL d   1      -0.770  -1.773  -0.108  0.00  0.00     0.017 A 
ATOM      9  C   UNL d   1      -1.212  -3.088  -0.281  0.00  0.00     0.013 A 
BRANCH   7  10
ATOM     10  C   UNL d   1       1.096  -0.067   0.152  0.00  0.00     0.417 C 
ATOM     11  F   UNL d   1       0.094   0.854   0.223  0.00  0.00    -0.166 F 
ATOM     12  F   UNL d   1       1.905   0.341  -0.864  0.00  0.00    -0.166 F 
ATOM     13  F   UNL d   1       1.822   0.084   1.294  0.00  0.00    -0.166 F 
ENDBRANCH   7  10
ENDBRANCH   3   4
BRANCH   1  14
ATOM     14  C   UNL d   1      -0.425  -7.772  -1.069  0.00  0.00     0.035 A 
ATOM     15  C   UNL d   1      -1.566  -8.044  -1.833  0.00  0.00     0.053 A 
ATOM     16  C   UNL d   1      -1.943  -9.364  -2.090  0.00  0.00     0.037 A 
ATOM     17 CL   UNL d   1      -3.354  -9.676  -3.026  0.00  0.00    -0.084 Cl
ATOM     18  C   UNL d   1      -1.185 -10.428  -1.612  0.00  0.00     0.048 A 
ATOM     19  C   UNL d   1      -0.043 -10.159  -0.865  0.00  0.00     0.037 A 
ATOM     20  C   UNL d   1       0.335  -8.844  -0.593  0.00  0.00     0.053 A 
ATOM     21 CL   UNL d   1       0.923 -11.463  -0.290  0.00  0.00    -0.084 Cl
ENDBRANCH   1  14
TORSDOF 3
