REMARK  7 active torsions:
REMARK  status: ('A' for Active; 'I' for Inactive)
REMARK    1  A    between atoms: C_11  and  C_1 
REMARK    2  A    between atoms: S_2  and  N_10 
REMARK    3  A    between atoms: C_15  and  S_2 
REMARK    4  A    between atoms: C_13  and  N_5 
REMARK    5  A    between atoms: C_9  and  C_12 
REMARK    6  A    between atoms: N_10  and  N_16 
REMARK    7  A    between atoms: C_14  and  C_13 
REMARK       I    between atoms: N_16  and  C_14 
ROOT
ATOM      1  C   UNL d   1      -0.597  -1.059   0.350  0.00  0.00     0.145 A 
ATOM      2  N   UNL d   1       0.722  -0.888   0.094  0.00  0.00    -0.268 N 
ATOM      3  HN  UNL d   1       1.474  -1.576   0.047  1.00  0.00     0.190 HD
ATOM      4  N   UNL d   1       0.760   0.448  -0.082  0.00  0.00    -0.207 N 
ATOM      5  N   UNL d   1      -1.291   0.119   0.315  0.00  0.00    -0.266 N 
ATOM      6  HN  UNL d   1      -2.287   0.242   0.497  1.00  0.00     0.186 HD
ATOM      7  N   UNL d   1      -0.428   1.069  -0.000  0.00  0.00    -0.002 NA
ENDROOT
BRANCH   4   8
ATOM      8  C   UNL d   1       1.960   1.255  -0.083  0.00  0.00     0.271 C 
BRANCH   8   9
ATOM      9  C   UNL d   1       3.317   0.614  -0.075  0.00  0.00     0.257 C 
ATOM     10  N   UNL d   1       3.472  -0.753  -0.074  0.00  0.00    -0.259 N 
ATOM     11  H   UNL d   1       2.691  -1.413  -0.011  0.00  0.00     0.190 HD
ATOM     12  O   UNL d   1       4.319   1.342  -0.077  0.00  0.00    -0.270 OA
BRANCH  10  13
ATOM     13  N   UNL d   1       4.843  -1.231  -0.074  0.00  0.00    -0.220 N 
ATOM     14  H   UNL d   1       5.599  -0.535  -0.060  0.00  0.00     0.200 HD
BRANCH  13  15
ATOM     15  S   UNL d   1       5.296  -2.841   0.033  0.00  0.00     0.276 S 
ATOM     16  O   UNL d   1       6.737  -2.887   0.059  0.00  0.00    -0.199 OA
ATOM     17  O   UNL d   1       4.479  -3.452   1.060  0.00  0.00    -0.199 OA
BRANCH  15  18
ATOM     18  C   UNL d   1       4.776  -3.480  -1.537  0.00  0.00     0.082 A 
ATOM     19  C   UNL d   1       3.906  -4.572  -1.573  0.00  0.00     0.049 A 
ATOM     20  C   UNL d   1       3.425  -5.009  -2.802  0.00  0.00     0.035 A 
ATOM     21 CL   UNL d   1       2.326  -6.331  -2.861  0.00  0.00    -0.084 Cl
ATOM     22  C   UNL d   1       3.813  -4.376  -3.983  0.00  0.00     0.024 A 
ATOM     23  C   UNL d   1       4.711  -3.307  -3.942  0.00  0.00     0.003 A 
ATOM     24  C   UNL d   1       5.202  -2.857  -2.716  0.00  0.00     0.025 A 
ENDBRANCH  15  18
ENDBRANCH  13  15
ENDBRANCH  10  13
ENDBRANCH   8   9
ENDBRANCH   4   8
BRANCH   1  25
ATOM     25  C   UNL d   1      -1.174  -2.300   0.862  0.00  0.00     0.025 A 
ATOM     26  C   UNL d   1      -2.516  -2.704   0.702  0.00  0.00     0.061 A 
ATOM     27  C   UNL d   1      -2.943  -3.892   1.350  0.00  0.00     0.017 A 
ATOM     28  C   UNL d   1      -2.081  -4.653   2.138  0.00  0.00     0.001 A 
ATOM     29  C   UNL d   1      -0.762  -4.257   2.284  0.00  0.00     0.001 A 
ATOM     30  C   UNL d   1      -0.315  -3.102   1.647  0.00  0.00     0.016 A 
BRANCH  26  31
ATOM     31  C   UNL d   1      -3.579  -2.004  -0.118  0.00  0.00     0.418 C 
ATOM     32  F   UNL d   1      -3.222  -0.866  -0.756  0.00  0.00    -0.166 F 
ATOM     33  F   UNL d   1      -4.062  -2.820  -1.103  0.00  0.00    -0.166 F 
ATOM     34  F   UNL d   1      -4.669  -1.682   0.640  0.00  0.00    -0.166 F 
ENDBRANCH  26  31
ENDBRANCH   1  25
TORSDOF 7
