REMARK  1 active torsions:
REMARK  status: ('A' for Active; 'I' for Inactive)
REMARK    1  A    between atoms: C_8  and  C_5 
ROOT
ATOM      1  N   UNL d   1       1.193   1.366  -0.070  0.00  0.00    -0.353 N 
ATOM      2  HN  UNL d   1       1.193   2.386  -0.099  1.00  0.00     0.166 HD
ATOM      3  N   UNL d   1       1.179  -1.447   0.010  0.00  0.00    -0.362 N 
ATOM      4  HN  UNL d   1       1.186  -2.467   0.043  1.00  0.00     0.165 HD
ATOM      5  C   UNL d   1       2.355   0.664  -0.057  0.00  0.00     0.058 A 
ATOM      6  C   UNL d   1       0.031  -0.746  -0.006  0.00  0.00     0.062 A 
ATOM      7  C   UNL d   1       0.040   0.671  -0.043  0.00  0.00     0.059 A 
ATOM      8  C   UNL d   1      -1.181  -1.419   0.007  0.00  0.00     0.074 A 
ATOM      9  C   UNL d   1       2.325  -0.725  -0.019  0.00  0.00     0.118 A 
ATOM     10  C   UNL d   1      -1.170   1.355  -0.060  0.00  0.00     0.035 A 
ATOM     11  C   UNL d   1      -2.377  -0.713  -0.018  0.00  0.00     0.118 A 
ATOM     12  C   UNL d   1      -2.385   0.672  -0.049  0.00  0.00     0.044 A 
ATOM     13  F   UNL d   1      -3.538  -1.380  -0.013  0.00  0.00    -0.206 F 
ENDROOT
BRANCH   5  14
ATOM     14  C   UNL d   1       3.595   1.462  -0.110  0.00  0.00    -0.006 A 
ATOM     15  C   UNL d   1       3.608   2.717  -0.754  0.00  0.00     0.039 A 
ATOM     16  C   UNL d   1       4.770   3.495  -0.827  0.00  0.00     0.056 A 
ATOM     17 CL   UNL d   1       4.672   5.011  -1.650  0.00  0.00    -0.083 Cl
ATOM     18  C   UNL d   1       5.953   3.034  -0.247  0.00  0.00     0.055 A 
ATOM     19  C   UNL d   1       5.963   1.799   0.403  0.00  0.00     0.026 A 
ATOM     20 CL   UNL d   1       7.427   3.933  -0.295  0.00  0.00    -0.083 Cl
ATOM     21  C   UNL d   1       4.798   1.025   0.472  0.00  0.00     0.015 A 
ENDBRANCH   5  14
TORSDOF 1
