REMARK  4 active torsions:
REMARK  status: ('A' for Active; 'I' for Inactive)
REMARK    1  A    between atoms: C_4  and  C_2 
REMARK    2  A    between atoms: C_3  and  C_4 
REMARK    3  A    between atoms: O_17  and  C_4 
REMARK    4  A    between atoms: C_14  and  C_9 
ROOT
ATOM      1  C   UNL d   1       1.283   2.453   0.733  0.00  0.00     0.185 C 
ENDROOT
BRANCH   1   2
ATOM      2  C   UNL d   1       2.795   2.612   0.632  0.00  0.00    -0.014 A 
ATOM      3  C   UNL d   1       3.684   2.426   1.731  0.00  0.00    -0.001 A 
ATOM      4  C   UNL d   1       5.064   2.649   1.493  0.00  0.00     0.042 A 
ATOM      5  C   UNL d   1       3.297   2.039   3.040  0.00  0.00     0.014 A 
ATOM      6  C   UNL d   1       5.972   2.491   2.532  0.00  0.00     0.030 A 
ATOM      7  N   UNL d   1       5.558   3.019   0.301  0.00  0.00    -0.365 N 
ATOM      8  C   UNL d   1       5.573   2.112   3.813  0.00  0.00     0.002 A 
ATOM      9  C   UNL d   1       4.229   1.881   4.067  0.00  0.00     0.001 A 
ATOM     10  C   UNL d   1       4.698   3.173  -0.720  0.00  0.00     0.089 A 
ATOM     11  HN  UNL d   1       6.557   3.179   0.174  1.00  0.00     0.165 HD
ATOM     12  C   UNL d   1       3.338   2.986  -0.608  0.00  0.00     0.027 A 
ENDBRANCH   1   2
BRANCH   1  13
ATOM     13  C   UNL d   1       0.693   1.333  -0.189  0.00  0.00     0.256 C 
ATOM     14  N   UNL d   1       1.210  -0.045   0.074  0.00  0.00     0.096 N 
ATOM     15  C   UNL d   1       0.734  -0.933  -1.019  0.00  0.00     0.282 C 
ATOM     16  C   UNL d   1       0.679  -0.568   1.349  0.00  0.00     0.273 C 
ATOM     17  C   UNL d   1      -0.815  -1.003  -1.081  0.00  0.00     0.040 C 
ATOM     18  C   UNL d   1      -1.392  -0.075   0.017  0.00  0.00    -0.001 C 
ATOM     19  C   UNL d   1      -0.856  -0.560   1.377  0.00  0.00     0.035 C 
ATOM     20  C   UNL d   1      -0.859   1.355  -0.164  0.00  0.00     0.044 C 
BRANCH  17  21
ATOM     21  C   UNL d   1      -1.335  -0.654  -2.456  0.00  0.00    -0.030 C 
ATOM     22  C   UNL d   1      -2.081  -1.474  -3.204  0.00  0.00     0.007 C 
ENDBRANCH  17  21
ENDBRANCH   1  13
BRANCH   1  23
ATOM     23  O   UNL d   1       0.647   3.699   0.397  0.00  0.00    -0.389 OA
ATOM     24  H   UNL d   1       1.335   4.354   0.193  0.00  0.00     0.210 HD
ENDBRANCH   1  23
TORSDOF 4
