REMARK  3 active torsions:
REMARK  status: ('A' for Active; 'I' for Inactive)
REMARK    1  A    between atoms: C_2  and  C_1 
REMARK       I    between atoms: N_8  and  C_2 
REMARK    2  A    between atoms: C_10  and  N_8 
REMARK    3  A    between atoms: O_16  and  C_11 
ROOT
ATOM      1  C   UNL d   1      -0.054   2.394   0.136  0.00  0.00     0.260 C 
ATOM      2  N   UNL d   1      -1.179   3.190  -0.019  0.00  0.00    -0.323 N 
ATOM      3  O   UNL d   1      -0.100   1.224   0.513  0.00  0.00    -0.267 OA
ATOM      4  H   UNL d   1      -1.060   4.112  -0.406  0.00  0.00     0.169 HD
ENDROOT
BRANCH   1   5
ATOM      5  C   UNL d   1       1.247   2.972  -0.197  0.00  0.00     0.087 A 
ATOM      6  C   UNL d   1       2.404   2.204  -0.205  0.00  0.00     0.090 A 
ATOM      7  O   UNL d   1       3.467   2.961  -0.561  0.00  0.00    -0.242 OA
ATOM      8  C   UNL d   1       2.695   0.781   0.084  0.00  0.00     0.080 C 
ATOM      9  N   UNL d   1       3.054   4.250  -0.780  0.00  0.00    -0.265 N 
ATOM     10  C   UNL d   1       1.734   4.270  -0.544  0.00  0.00     0.047 A 
ATOM     11  HN  UNL d   1       3.636   5.038  -1.065  1.00  0.00     0.194 HD
ATOM     12  C   UNL d   1       1.057   5.579  -0.675  0.00  0.00     0.071 C 
ENDBRANCH   1   5
BRANCH   2  13
ATOM     13  C   UNL d   1      -2.528   2.770   0.172  0.00  0.00     0.035 A 
ATOM     14  C   UNL d   1      -2.890   1.502   0.636  0.00  0.00     0.032 A 
ATOM     15  C   UNL d   1      -4.230   1.101   0.701  0.00  0.00     0.039 A 
ATOM     16  C   UNL d   1      -5.239   1.969   0.303  0.00  0.00     0.068 A 
ATOM     17  C   UNL d   1      -4.897   3.266  -0.085  0.00  0.00     0.039 A 
ATOM     18  C   UNL d   1      -3.553   3.666  -0.152  0.00  0.00     0.032 A 
BRANCH  16  19
ATOM     19  O   UNL d   1      -6.572   1.666   0.254  0.00  0.00    -0.356 OA
ATOM     20  C   UNL d   1      -6.913   0.290   0.387  0.00  0.00     0.210 C 
ENDBRANCH  16  19
ENDBRANCH   2  13
TORSDOF 3
