REMARK  0 active torsions:
REMARK  status: ('A' for Active; 'I' for Inactive)
ROOT
ATOM      1  C   UNL d   1      -0.058   1.356  -0.426  0.00  0.00    -0.019 C 
ATOM      2  C   UNL d   1      -0.029   0.413   0.844  0.00  0.00    -0.019 C 
ATOM      3  C   UNL d   1       2.200   0.546  -0.096  0.00  0.00     0.128 C 
ATOM      4  C   UNL d   1      -0.066   2.729   1.500  0.00  0.00     0.128 C 
ATOM      5  C   UNL d   1       1.403  -0.173   0.938  0.00  0.00     0.089 C 
ATOM      6  C   UNL d   1      -0.314   1.352   2.047  0.00  0.00     0.089 C 
ATOM      7  C   UNL d   1       1.373   1.381  -1.020  0.00  0.00     0.089 C 
ATOM      8  C   UNL d   1      -0.385   2.797   0.055  0.00  0.00     0.089 C 
ATOM      9  O   UNL d   1       3.417   0.418  -0.207  0.00  0.00    -0.298 OA
ATOM     10  O   UNL d   1       0.246   3.695   2.188  0.00  0.00    -0.298 OA
ATOM     11  C   UNL d   1      -1.127   0.950  -1.454  0.00  0.00     0.011 C 
ATOM     12  C   UNL d   1      -1.021  -0.790   0.898  0.00  0.00     0.011 C 
ATOM     13  C   UNL d   1      -2.421   0.534  -0.755  0.00  0.00     0.001 C 
ATOM     14  C   UNL d   1      -2.203  -0.793  -0.065  0.00  0.00     0.001 C 
ENDROOT
TORSDOF 0
