REMARK  2 active torsions:
REMARK  status: ('A' for Active; 'I' for Inactive)
REMARK    1  A    between atoms: C_5  and  N_1 
REMARK    2  A    between atoms: C_4  and  C_5 
ROOT
ATOM      1  N   UNL d   1       1.877   0.106  -0.094  0.00  0.00    -0.276 N 
ATOM      2  C   UNL d   1       1.196   0.063   1.091  0.00  0.00     0.262 A 
ATOM      3  C   UNL d   1       1.029   0.106  -1.167  0.00  0.00     0.262 A 
ATOM      4  C   UNL d   1      -0.226   0.107   0.756  0.00  0.00     0.048 A 
ATOM      5  C   UNL d   1      -0.328   0.150  -0.623  0.00  0.00     0.048 A 
ATOM      6  O   UNL d   1       1.284   0.023  -2.353  0.00  0.00    -0.267 OA
ATOM      7  O   UNL d   1       1.628  -0.034   2.224  0.00  0.00    -0.267 OA
ATOM      8  C   UNL d   1      -1.339   0.086   1.573  0.00  0.00     0.018 A 
ATOM      9  C   UNL d   1      -1.552   0.191  -1.262  0.00  0.00     0.018 A 
ATOM     10  C   UNL d   1      -2.694   0.188  -0.457  0.00  0.00     0.001 A 
ATOM     11  C   UNL d   1      -2.590   0.130   0.949  0.00  0.00     0.001 A 
ENDROOT
BRANCH   1  12
ATOM     12  C   UNL d   1       3.313  -0.011  -0.194  0.00  0.00     0.175 C 
BRANCH  12  13
ATOM     13  C   UNL d   1       3.961   1.344  -0.145  0.00  0.00    -0.022 A 
ATOM     14  C   UNL d   1       4.296   1.994   1.029  0.00  0.00     0.060 A 
ATOM     15  S   UNL d   1       5.124   3.457   0.768  0.00  0.00    -0.101 SA
ATOM     16  C   UNL d   1       5.068   3.269  -0.941  0.00  0.00     0.015 A 
ATOM     17  C   UNL d   1       4.376   2.110  -1.306  0.00  0.00    -0.011 A 
ATOM     18  C   UNL d   1       5.629   4.134  -1.903  0.00  0.00     0.019 A 
ATOM     19  C   UNL d   1       4.220   1.850  -2.692  0.00  0.00     0.013 A 
ATOM     20  C   UNL d   1       4.770   2.707  -3.650  0.00  0.00     0.001 A 
ATOM     21  C   UNL d   1       5.478   3.832  -3.258  0.00  0.00     0.001 A 
ENDBRANCH  12  13
ENDBRANCH   1  12
TORSDOF 2
