REMARK  5 active torsions:
REMARK  status: ('A' for Active; 'I' for Inactive)
REMARK    1  A    between atoms: C_2  and  C_1 
REMARK       I    between atoms: N_5  and  C_1 
REMARK    2  A    between atoms: C_4  and  C_3 
REMARK    3  A    between atoms: O_13  and  C_4 
REMARK    4  A    between atoms: C_9  and  N_5 
REMARK    5  A    between atoms: C_10  and  C_7 
ROOT
ATOM      1  C   UNL d   1       0.971   1.844   1.340  0.00  0.00     0.257 C 
ATOM      2  N   UNL d   1       0.097   0.873   0.894  0.00  0.00    -0.323 N 
ATOM      3  O   UNL d   1       0.678   2.781   2.079  0.00  0.00    -0.267 OA
ATOM      4  H   UNL d   1       0.456   0.056   0.414  0.00  0.00     0.169 HD
ENDROOT
BRANCH   2   5
ATOM      5  C   UNL d   1      -1.300   0.866   1.094  0.00  0.00     0.035 A 
ATOM      6  C   UNL d   1      -2.022   1.994   1.472  0.00  0.00     0.030 A 
ATOM      7  C   UNL d   1      -3.414   1.938   1.588  0.00  0.00     0.014 A 
ATOM      8  C   UNL d   1      -4.133   0.760   1.326  0.00  0.00    -0.026 A 
ATOM      9  C   UNL d   1      -3.386  -0.378   0.979  0.00  0.00     0.014 A 
ATOM     10  C   UNL d   1      -1.990  -0.325   0.857  0.00  0.00     0.030 A 
BRANCH   8  11
ATOM     11  C   UNL d   1      -5.612   0.747   1.395  0.00  0.00    -0.026 A 
ATOM     12  C   UNL d   1      -6.328  -0.374   1.849  0.00  0.00     0.012 A 
ATOM     13  C   UNL d   1      -7.726  -0.366   1.918  0.00  0.00     0.001 A 
ATOM     14  C   UNL d   1      -8.439   0.769   1.541  0.00  0.00     0.000 A 
ATOM     15  C   UNL d   1      -7.757   1.891   1.084  0.00  0.00     0.001 A 
ATOM     16  C   UNL d   1      -6.363   1.873   1.004  0.00  0.00     0.012 A 
ENDBRANCH   8  11
ENDBRANCH   2   5
BRANCH   1  17
ATOM     17  C   UNL d   1       2.397   1.741   0.932  0.00  0.00     0.049 A 
ATOM     18  C   UNL d   1       3.132   0.558   0.760  0.00  0.00     0.053 A 
ATOM     19  C   UNL d   1       4.478   0.638   0.352  0.00  0.00     0.019 A 
ATOM     20  C   UNL d   1       5.099   1.871   0.149  0.00  0.00     0.001 A 
ATOM     21  C   UNL d   1       4.383   3.044   0.348  0.00  0.00     0.001 A 
ATOM     22  C   UNL d   1       3.046   2.978   0.735  0.00  0.00     0.018 A 
BRANCH  18  23
ATOM     23  C   UNL d   1       2.615  -0.819   0.938  0.00  0.00     0.177 C 
ATOM     24  O   UNL d   1       2.926  -1.722   0.184  0.00  0.00    -0.646 OA
BRANCH  23  25
ATOM     25  O   UNL d   1       1.774  -1.000   1.974  0.00  0.00    -0.773 OA
ATOM     26  H   UNL d   1       1.617  -0.246   2.577  0.00  0.00     0.167 HD
ENDBRANCH  23  25
ENDBRANCH  18  23
ENDBRANCH   1  17
TORSDOF 5
