REMARK  8 active torsions:
REMARK  status: ('A' for Active; 'I' for Inactive)
REMARK    1  A    between atoms: N_10  and  C_1 
REMARK    2  A    between atoms: N_5  and  C_2 
REMARK    3  A    between atoms: N_4  and  C_3 
REMARK    4  A    between atoms: C_6  and  C_7 
REMARK    5  A    between atoms: N_12  and  N_10 
REMARK    6  A    between atoms: C_11  and  N_12 
REMARK    7  A    between atoms: N_15  and  C_11 
REMARK    8  A    between atoms: C_22  and  N_15 
ROOT
ATOM      1  C   UNL d   1       1.289  -0.555  -0.177  0.00  0.00     0.109 A 
ATOM      2  C   UNL d   1       0.427  -1.105   0.796  0.00  0.00     0.133 A 
ATOM      3  C   UNL d   1       0.619   0.249  -1.139  0.00  0.00     0.133 A 
ATOM      4  C   UNL d   1      -1.569  -0.013  -0.093  0.00  0.00     0.052 A 
ATOM      5  C   UNL d   1      -0.957  -0.829   0.858  0.00  0.00     0.054 A 
ATOM      6  C   UNL d   1      -0.766   0.535  -1.097  0.00  0.00     0.054 A 
ENDROOT
BRANCH   1   7
ATOM      7  N   UNL d   1       2.663  -0.861  -0.361  0.00  0.00    -0.310 N 
ATOM      8  H   UNL d   1       3.228  -0.077  -0.726  0.00  0.00     0.181 HD
BRANCH   7   9
ATOM      9  N   UNL d   1       3.353  -1.631   0.604  0.00  0.00    -0.180 NA
ATOM     10  H   UNL d   1       2.908  -2.537   0.775  0.00  0.00     0.155 HD
BRANCH   9  11
ATOM     11  C   UNL d   1       4.704  -1.837   0.464  0.00  0.00     0.169 C 
ATOM     12  S   UNL d   1       5.635  -2.151   1.812  0.00  0.00    -0.045 SA
BRANCH  11  13
ATOM     13  N   UNL d   1       5.290  -1.792  -0.764  0.00  0.00    -0.337 N 
ATOM     14  H   UNL d   1       6.294  -1.643  -0.749  0.00  0.00     0.168 HD
BRANCH  13  15
ATOM     15  C   UNL d   1       4.728  -2.116  -2.014  0.00  0.00     0.034 A 
ATOM     16  C   UNL d   1       5.305  -1.551  -3.154  0.00  0.00     0.032 A 
ATOM     17  C   UNL d   1       4.695  -1.729  -4.397  0.00  0.00     0.044 A 
ATOM     18  C   UNL d   1       3.546  -2.506  -4.497  0.00  0.00     0.116 A 
ATOM     19  C   UNL d   1       3.017  -3.150  -3.388  0.00  0.00     0.044 A 
ATOM     20  F   UNL d   1       2.938  -2.635  -5.684  0.00  0.00    -0.206 F 
ATOM     21  C   UNL d   1       3.622  -2.968  -2.146  0.00  0.00     0.032 A 
ENDBRANCH  13  15
ENDBRANCH  11  13
ENDBRANCH   9  11
ENDBRANCH   7   9
ENDBRANCH   1   7
BRANCH   2  22
ATOM     22  N   UNL d   1       0.883  -2.055   1.786  0.00  0.00    -0.113 N 
ATOM     23  O   UNL d   1       1.258  -3.162   1.369  0.00  0.00    -0.532 OA
ATOM     24  O   UNL d   1       0.811  -1.711   2.973  0.00  0.00    -0.532 OA
ENDBRANCH   2  22
BRANCH   3  25
ATOM     25  N   UNL d   1       1.348   0.787  -2.285  0.00  0.00    -0.113 N 
ATOM     26  O   UNL d   1       2.425   1.357  -2.052  0.00  0.00    -0.532 OA
ATOM     27  O   UNL d   1       0.828   0.659  -3.397  0.00  0.00    -0.532 OA
ENDBRANCH   3  25
BRANCH   4  28
ATOM     28  C   UNL d   1      -3.061   0.232  -0.065  0.00  0.00     0.417 C 
ATOM     29  F   UNL d   1      -3.700  -0.489   0.895  0.00  0.00    -0.166 F 
ATOM     30  F   UNL d   1      -3.367   1.534   0.168  0.00  0.00    -0.166 F 
ATOM     31  F   UNL d   1      -3.654  -0.098  -1.242  0.00  0.00    -0.166 F 
ENDBRANCH   4  28
TORSDOF 8
