REMARK  8 active torsions:
REMARK  status: ('A' for Active; 'I' for Inactive)
REMARK    1  A    between atoms: C_3  and  S_1 
REMARK    2  A    between atoms: C_4  and  S_1 
REMARK    3  A    between atoms: C_2  and  O_11 
REMARK       I    between atoms: N_8  and  C_2 
REMARK    4  A    between atoms: C_17  and  C_4 
REMARK    5  A    between atoms: O_11  and  C_20 
REMARK    6  A    between atoms: S_15  and  C_17 
REMARK    7  A    between atoms: C_19  and  S_15 
REMARK    8  A    between atoms: C_20  and  C_19 
ROOT
ATOM      1  C   UNL d   1       0.293  -0.975   1.284  0.00  0.00     0.156 C 
ENDROOT
BRANCH   1   2
ATOM      2  S   UNL d   1       0.823  -0.138  -0.193  0.00  0.00     0.176 S 
ATOM      3  O   UNL d   1       2.268  -0.015  -0.159  0.00  0.00    -0.223 OA
ATOM      4  O   UNL d   1       0.152  -0.748  -1.325  0.00  0.00    -0.223 OA
BRANCH   2   5
ATOM      5  C   UNL d   1       0.144   1.500  -0.001  0.00  0.00     0.059 A 
ATOM      6  C   UNL d   1       0.927   2.512   0.561  0.00  0.00     0.025 A 
ATOM      7  C   UNL d   1       0.410   3.806   0.664  0.00  0.00     0.025 A 
ATOM      8  C   UNL d   1      -0.881   4.078   0.209  0.00  0.00     0.034 A 
ATOM      9  C   UNL d   1      -1.661   3.067  -0.355  0.00  0.00     0.025 A 
ATOM     10 CL   UNL d   1      -1.512   5.674   0.334  0.00  0.00    -0.084 Cl
ATOM     11  C   UNL d   1      -1.146   1.773  -0.470  0.00  0.00     0.025 A 
ENDBRANCH   2   5
ENDBRANCH   1   2
BRANCH   1  12
ATOM     12  C   UNL d   1       0.736  -2.427   1.270  0.00  0.00     0.089 C 
BRANCH  12  13
ATOM     13  S   UNL d   1       0.232  -3.317   2.791  0.00  0.00    -0.166 SA
BRANCH  13  14
ATOM     14  C   UNL d   1      -1.584  -3.229   2.632  0.00  0.00     0.101 C 
BRANCH  14  15
ATOM     15  C   UNL d   1      -2.272  -3.897   3.822  0.00  0.00     0.191 C 
BRANCH  15  16
ATOM     16  O   UNL d   1      -3.703  -3.757   3.724  0.00  0.00    -0.303 OA
BRANCH  16  17
ATOM     17  C   UNL d   1      -4.182  -2.552   4.123  0.00  0.00     0.360 C 
ATOM     18  O   UNL d   1      -3.494  -1.614   4.488  0.00  0.00    -0.239 OA
ATOM     19  N   UNL d   1      -5.540  -2.544   4.040  0.00  0.00    -0.341 N 
ATOM     20  C   UNL d   1      -6.329  -1.399   4.413  0.00  0.00     0.151 C 
ATOM     21  H   UNL d   1      -5.986  -3.397   3.729  0.00  0.00     0.164 HD
ENDBRANCH  16  17
ENDBRANCH  15  16
ENDBRANCH  14  15
ENDBRANCH  13  14
ENDBRANCH  12  13
ENDBRANCH   1  12
TORSDOF 8
