REMARK  5 active torsions:
REMARK  status: ('A' for Active; 'I' for Inactive)
REMARK    1  A    between atoms: C_3  and  C_1 
REMARK    2  A    between atoms: C_2  and  C_3 
REMARK    3  A    between atoms: C_12  and  C_4 
REMARK    4  A    between atoms: N_11  and  C_9 
REMARK    5  A    between atoms: O_21  and  C_16 
ROOT
ATOM      1  C   UNL d   1       0.989  -0.040   0.022  0.00  0.00     0.096 C 
ATOM      2  C   UNL d   1       0.231   0.660   0.898  0.00  0.00     0.038 C 
ATOM      3  C   UNL d   1       0.404  -0.756  -1.077  0.00  0.00     0.103 C 
ATOM      4  N   UNL d   1      -0.120  -1.332  -1.938  0.00  0.00    -0.191 NA
ENDROOT
BRANCH   1   5
ATOM      5  C   UNL d   1       2.492  -0.126   0.115  0.00  0.00     0.204 C 
ATOM      6  O   UNL d   1       3.123  -0.612  -0.823  0.00  0.00    -0.286 OA
BRANCH   5   7
ATOM      7  C   UNL d   1       3.239   0.267   1.348  0.00  0.00     0.035 A 
ATOM      8  C   UNL d   1       4.502   0.882   1.293  0.00  0.00     0.025 A 
ATOM      9  C   UNL d   1       5.178   1.202   2.478  0.00  0.00     0.023 A 
ATOM     10 BR   UNL d   1       5.379   1.379  -0.319  0.00  0.00    -0.050 Br
ATOM     11  C   UNL d   1       4.587   0.955   3.717  0.00  0.00     0.038 A 
ATOM     12  C   UNL d   1       3.334   0.353   3.788  0.00  0.00     0.069 A 
ATOM     13  C   UNL d   1       2.698  -0.048   2.611  0.00  0.00     0.053 A 
BRANCH  12  14
ATOM     14  O   UNL d   1       2.831   0.202   5.050  0.00  0.00    -0.356 OA
ATOM     15  C   UNL d   1       1.438  -0.077   5.152  0.00  0.00     0.210 C 
ENDBRANCH  12  14
ENDBRANCH   5   7
ENDBRANCH   1   5
BRANCH   2  16
ATOM     16  C   UNL d   1      -1.238   0.620   1.026  0.00  0.00    -0.035 A 
ATOM     17  C   UNL d   1      -1.952  -0.572   0.893  0.00  0.00     0.013 A 
ATOM     18  C   UNL d   1      -3.346  -0.605   1.035  0.00  0.00     0.030 A 
ATOM     19  C   UNL d   1      -4.090   0.527   1.387  0.00  0.00     0.029 A 
ATOM     20  C   UNL d   1      -3.342   1.702   1.591  0.00  0.00     0.030 A 
ATOM     21  C   UNL d   1      -1.947   1.756   1.410  0.00  0.00     0.013 A 
BRANCH  19  22
ATOM     22  N   UNL d   1      -5.463   0.481   1.613  0.00  0.00    -0.390 N 
ATOM     23  C   UNL d   1      -6.296   1.635   1.270  0.00  0.00     0.149 C 
ATOM     24  C   UNL d   1      -6.186  -0.792   1.577  0.00  0.00     0.149 C 
ENDBRANCH  19  22
ENDBRANCH   2  16
TORSDOF 5
