REMARK  3 active torsions:
REMARK  status: ('A' for Active; 'I' for Inactive)
REMARK    1  A    between atoms: C_7  and  C_3 
REMARK    2  A    between atoms: N_19  and  C_4 
REMARK    3  A    between atoms: C_9  and  C_6 
ROOT
ATOM      1  C   UNL d   1      -0.440   1.361  -0.116  0.00  0.00     0.072 A 
ATOM      2  C   UNL d   1      -0.859  -1.138  -0.077  0.00  0.00     0.081 A 
ATOM      3  C   UNL d   1       0.871   1.053  -0.123  0.00  0.00     0.112 A 
ATOM      4  C   UNL d   1       0.477  -1.316  -0.058  0.00  0.00     0.138 A 
ATOM      5  O   UNL d   1       1.353  -0.238  -0.058  0.00  0.00    -0.295 OA
ATOM      6  C   UNL d   1      -1.482   0.255  -0.067  0.00  0.00     0.120 A 
ATOM      7  C   UNL d   1      -0.894   2.712  -0.185  0.00  0.00     0.099 C 
ATOM      8  C   UNL d   1      -1.736  -2.259  -0.108  0.00  0.00     0.100 C 
ATOM      9  N   UNL d   1      -1.283   3.803  -0.243  0.00  0.00    -0.192 NA
ATOM     10  N   UNL d   1      -2.441  -3.178  -0.169  0.00  0.00    -0.191 NA
ENDROOT
BRANCH   3  11
ATOM     11  C   UNL d   1       1.887   2.033  -0.283  0.00  0.00     0.040 A 
ATOM     12  S   UNL d   1       2.532   2.880   1.067  0.00  0.00    -0.099 SA
ATOM     13  C   UNL d   1       3.556   3.823   0.073  0.00  0.00     0.050 A 
ATOM     14  C   UNL d   1       3.445   3.482  -1.255  0.00  0.00     0.008 A 
ATOM     15  C   UNL d   1       2.494   2.443  -1.457  0.00  0.00     0.022 A 
ENDBRANCH   3  11
BRANCH   6  16
ATOM     16  C   UNL d   1      -2.590   0.434  -1.104  0.00  0.00    -0.003 A 
ATOM     17  S   UNL d   1      -2.253   0.330  -2.785  0.00  0.00    -0.105 SA
ATOM     18  C   UNL d   1      -3.883   0.638  -3.194  0.00  0.00     0.050 A 
ATOM     19  C   UNL d   1      -4.672   0.821  -2.080  0.00  0.00     0.008 A 
ATOM     20  C   UNL d   1      -3.926   0.704  -0.873  0.00  0.00     0.016 A 
ENDBRANCH   6  16
BRANCH   4  21
ATOM     21  N   UNL d   1       1.127  -2.527  -0.042  0.00  0.00    -0.282 NA
ATOM     22  H   UNL d   1       0.617  -3.313  -0.440  0.00  0.00     0.126 HD
ATOM     23  H   UNL d   1       2.086  -2.461  -0.375  0.00  0.00     0.126 HD
ENDBRANCH   4  21
TORSDOF 3
