REMARK  2 active torsions:
REMARK  status: ('A' for Active; 'I' for Inactive)
REMARK    1  A    between atoms: C_7  and  C_1 
REMARK    2  A    between atoms: C_9  and  C_7 
ROOT
ATOM      1  C   UNL d   1       0.032  -1.043   0.094  0.00  0.00     0.130 C 
ATOM      2  N   UNL d   1      -0.504   1.260  -0.044  0.00  0.00    -0.306 N 
ATOM      3  HN  UNL d   1      -1.015   2.143  -0.036  1.00  0.00     0.186 HD
ATOM      4  N   UNL d   1       0.840   1.090  -0.199  0.00  0.00    -0.270 N 
ATOM      5  C   UNL d   1       1.260  -0.228  -0.239  0.00  0.00     0.246 C 
ATOM      6  C   UNL d   1      -1.001   0.067   0.091  0.00  0.00     0.013 C 
ATOM      7  O   UNL d   1       2.383  -0.623  -0.491  0.00  0.00    -0.271 OA
ATOM      8  C   UNL d   1      -2.463  -0.193   0.224  0.00  0.00     0.066 C 
ATOM      9  H   UNL d   1       1.446   1.877  -0.405  0.00  0.00     0.190 HD
ENDROOT
BRANCH   1  10
ATOM     10  C   UNL d   1       0.097  -1.675   1.483  0.00  0.00     0.058 C 
BRANCH  10  11
ATOM     11  C   UNL d   1       1.186  -2.707   1.664  0.00  0.00    -0.057 A 
ATOM     12  C   UNL d   1       2.442  -2.316   2.158  0.00  0.00     0.010 A 
ATOM     13  C   UNL d   1       3.460  -3.252   2.333  0.00  0.00     0.043 A 
ATOM     14  C   UNL d   1       3.220  -4.584   2.021  0.00  0.00     0.116 A 
ATOM     15  C   UNL d   1       1.984  -4.994   1.533  0.00  0.00     0.043 A 
ATOM     16  F   UNL d   1       4.192  -5.488   2.196  0.00  0.00    -0.206 F 
ATOM     17  C   UNL d   1       0.966  -4.055   1.351  0.00  0.00     0.010 A 
ENDBRANCH  10  11
ENDBRANCH   1  10
TORSDOF 2
