REMARK  6 active torsions:
REMARK  status: ('A' for Active; 'I' for Inactive)
REMARK    1  A    between atoms: C_6  and  C_1 
REMARK    2  A    between atoms: C_9  and  C_2 
REMARK    3  A    between atoms: C_10  and  N_3 
REMARK    4  A    between atoms: N_7  and  C_11 
REMARK       I    between atoms: N_16  and  C_9 
REMARK    5  A    between atoms: N_12  and  N_16 
REMARK    6  A    between atoms: C_26  and  C_25 
ROOT
ATOM      1  C   UNL d   1       1.136  -0.765  -0.251  0.00  0.00     0.157 A 
ATOM      2  C   UNL d   1      -0.141  -1.317  -0.112  0.00  0.00     0.084 A 
ATOM      3  N   UNL d   1       0.996   0.610  -0.111  0.00  0.00    -0.251 N 
ATOM      4  N   UNL d   1      -0.270   0.945   0.228  0.00  0.00    -0.303 N 
ATOM      5  HN  UNL d   1      -0.624   1.869   0.473  1.00  0.00     0.186 HD
ATOM      6  C   UNL d   1      -0.952  -0.194   0.171  0.00  0.00     0.127 A 
ENDROOT
BRANCH   2   7
ATOM      7  C   UNL d   1      -0.664  -2.689  -0.127  0.00  0.00     0.273 C 
ATOM      8  N   UNL d   1       0.237  -3.709  -0.398  0.00  0.00    -0.266 N 
ATOM      9  H   UNL d   1       1.222  -3.522  -0.518  0.00  0.00     0.190 HD
ATOM     10  O   UNL d   1      -1.853  -2.883   0.111  0.00  0.00    -0.266 OA
BRANCH   8  11
ATOM     11  N   UNL d   1      -0.122  -5.008  -0.155  0.00  0.00    -0.308 N 
ATOM     12  C   UNL d   1       0.818  -5.885  -0.312  0.00  0.00     0.118 C 
ATOM     13  HN  UNL d   1      -1.066  -5.267   0.131  1.00  0.00     0.186 HD
BRANCH  12  14
ATOM     14  C   UNL d   1       0.619  -7.305   0.043  0.00  0.00    -0.019 A 
ATOM     15  C   UNL d   1      -0.597  -7.738   0.579  0.00  0.00     0.013 A 
ATOM     16  C   UNL d   1      -0.739  -9.062   0.996  0.00  0.00     0.001 A 
ATOM     17  C   UNL d   1       0.330  -9.950   0.873  0.00  0.00     0.000 A 
ATOM     18  C   UNL d   1       1.539  -9.521   0.322  0.00  0.00     0.001 A 
ATOM     19  C   UNL d   1       1.687  -8.197  -0.096  0.00  0.00     0.013 A 
ENDBRANCH  12  14
ENDBRANCH   8  11
ENDBRANCH   2   7
BRANCH   1  20
ATOM     20  C   UNL d   1       2.463  -1.381  -0.387  0.00  0.00     0.435 C 
ATOM     21  F   UNL d   1       2.456  -2.696  -0.043  0.00  0.00    -0.165 F 
ATOM     22  F   UNL d   1       2.901  -1.348  -1.669  0.00  0.00    -0.165 F 
ATOM     23  F   UNL d   1       3.409  -0.808   0.391  0.00  0.00    -0.165 F 
ENDBRANCH   1  20
BRANCH   3  24
ATOM     24  C   UNL d   1       1.978   1.647  -0.171  0.00  0.00     0.057 A 
ATOM     25  C   UNL d   1       3.087   1.565  -1.021  0.00  0.00     0.034 A 
ATOM     26  C   UNL d   1       4.127   2.493  -0.914  0.00  0.00     0.038 A 
ATOM     27  C   UNL d   1       4.041   3.527   0.024  0.00  0.00     0.103 A 
ATOM     28  C   UNL d   1       2.887   3.683   0.802  0.00  0.00     0.038 A 
ATOM     29  C   UNL d   1       1.849   2.751   0.690  0.00  0.00     0.034 A 
BRANCH  27  30
ATOM     30  N   UNL d   1       5.182   4.431   0.212  0.00  0.00    -0.116 N 
ATOM     31  O   UNL d   1       5.057   5.357   1.024  0.00  0.00    -0.532 OA
ATOM     32  O   UNL d   1       6.210   4.200  -0.441  0.00  0.00    -0.532 OA
ENDBRANCH  27  30
ENDBRANCH   3  24
TORSDOF 6
