REMARK  3 active torsions:
REMARK  status: ('A' for Active; 'I' for Inactive)
REMARK    1  A    between atoms: C_10  and  C_3 
REMARK    2  A    between atoms: N_6  and  C_9 
REMARK    3  A    between atoms: C_14  and  C_8 
ROOT
ATOM      1  N   UNL d   1       1.588  -0.085  -0.029  0.00  0.00    -0.331 N 
ATOM      2  HN  UNL d   1       2.534  -0.463  -0.083  1.00  0.00     0.168 HD
ATOM      3  C   UNL d   1       1.215   1.153   0.011  0.00  0.00     0.162 A 
ATOM      4  C   UNL d   1       0.395  -0.761   0.019  0.00  0.00     0.111 A 
ATOM      5  O   UNL d   1      -0.109   1.412   0.095  0.00  0.00    -0.256 OA
ATOM      6  C   UNL d   1      -0.741   0.207   0.104  0.00  0.00     0.316 A 
ATOM      7  C   UNL d   1       0.295  -2.095  -0.029  0.00  0.00     0.047 C 
ATOM      8  O   UNL d   1      -1.938   0.019   0.166  0.00  0.00    -0.257 OA
ENDROOT
BRANCH   7   9
ATOM      9  C   UNL d   1      -0.973  -2.823  -0.020  0.00  0.00    -0.032 A 
ATOM     10  C   UNL d   1      -1.607  -3.122  -1.230  0.00  0.00     0.047 A 
ATOM     11  C   UNL d   1      -2.860  -3.746  -1.214  0.00  0.00     0.103 A 
ATOM     12  C   UNL d   1      -3.473  -4.092  -0.003  0.00  0.00     0.036 A 
ATOM     13  C   UNL d   1      -2.828  -3.803   1.200  0.00  0.00     0.003 A 
ATOM     14  C   UNL d   1      -1.583  -3.167   1.192  0.00  0.00     0.011 A 
BRANCH  11  15
ATOM     15  N   UNL d   1      -3.545  -4.024  -2.482  0.00  0.00    -0.116 N 
ATOM     16  O   UNL d   1      -2.971  -3.699  -3.532  0.00  0.00    -0.532 OA
ATOM     17  O   UNL d   1      -4.656  -4.572  -2.431  0.00  0.00    -0.532 OA
ENDBRANCH  11  15
ENDBRANCH   7   9
BRANCH   3  18
ATOM     18  C   UNL d   1       2.077   2.344  -0.050  0.00  0.00     0.015 A 
ATOM     19  C   UNL d   1       3.461   2.175  -0.189  0.00  0.00     0.017 A 
ATOM     20  C   UNL d   1       4.294   3.292  -0.297  0.00  0.00     0.025 A 
ATOM     21  C   UNL d   1       3.745   4.574  -0.264  0.00  0.00     0.034 A 
ATOM     22  C   UNL d   1       2.370   4.749  -0.110  0.00  0.00     0.025 A 
ATOM     23 CL   UNL d   1       4.766   5.947  -0.426  0.00  0.00    -0.084 Cl
ATOM     24  C   UNL d   1       1.535   3.635  -0.001  0.00  0.00     0.017 A 
ENDBRANCH   3  18
TORSDOF 3
