REMARK  2 active torsions:
REMARK  status: ('A' for Active; 'I' for Inactive)
REMARK       I    between atoms: N_2  and  C_1 
REMARK    1  A    between atoms: C_3  and  C_1 
REMARK       I    between atoms: C_4  and  N_2 
REMARK       I    between atoms: N_5  and  C_4 
REMARK    2  A    between atoms: C_10  and  N_5 
ROOT
ATOM      1  C   UNL d   1       0.624  -0.031   0.123  0.00  0.00     0.264 C 
ATOM      2  N   UNL d   1       0.179   0.820   1.126  0.00  0.00    -0.275 N 
ATOM      3  C   UNL d   1       0.871   1.584   2.028  0.00  0.00     0.323 C 
ATOM      4  N   UNL d   1       2.224   1.608   1.901  0.00  0.00    -0.335 N 
ATOM      5  O   UNL d   1       1.802  -0.183  -0.180  0.00  0.00    -0.267 OA
ATOM      6  O   UNL d   1       0.233   2.183   2.889  0.00  0.00    -0.247 OA
ATOM      7  H   UNL d   1      -0.812   0.894   1.295  0.00  0.00     0.173 HD
ATOM      8  H   UNL d   1       2.614   0.972   1.206  0.00  0.00     0.165 HD
ENDROOT
BRANCH   1   9
ATOM      9  C   UNL d   1      -0.462  -0.769  -0.576  0.00  0.00     0.092 A 
ATOM     10  C   UNL d   1      -1.642  -0.087  -0.899  0.00  0.00     0.133 A 
ATOM     11  F   UNL d   1      -1.768   1.220  -0.627  0.00  0.00    -0.205 F 
ATOM     12  C   UNL d   1      -2.729  -0.735  -1.480  0.00  0.00     0.043 A 
ATOM     13  C   UNL d   1      -2.646  -2.094  -1.761  0.00  0.00     0.005 A 
ATOM     14  C   UNL d   1      -1.470  -2.788  -1.470  0.00  0.00     0.025 A 
ATOM     15  C   UNL d   1      -0.376  -2.132  -0.882  0.00  0.00     0.052 A 
ATOM     16 CL   UNL d   1       1.000  -3.103  -0.501  0.00  0.00    -0.083 Cl
ENDBRANCH   1   9
BRANCH   4  17
ATOM     17  C   UNL d   1       3.132   2.286   2.836  0.00  0.00     0.023 C 
ATOM     18  C   UNL d   1       3.015   1.667   4.239  0.00  0.00     0.037 C 
ATOM     19  C   UNL d   1       4.578   2.106   2.342  0.00  0.00     0.037 C 
ATOM     20  C   UNL d   1       2.835   3.795   2.902  0.00  0.00     0.037 C 
ENDBRANCH   4  17
TORSDOF 2
