REMARK  6 active torsions:
REMARK  status: ('A' for Active; 'I' for Inactive)
REMARK    1  A    between atoms: C_2  and  C_1 
REMARK       I    between atoms: N_3  and  C_1 
REMARK    2  A    between atoms: C_10  and  N_3 
REMARK    3  A    between atoms: O_18  and  C_13 
REMARK    4  A    between atoms: C_20  and  O_18 
REMARK    5  A    between atoms: O_19  and  C_21 
REMARK    6  A    between atoms: C_21  and  C_20 
ROOT
ATOM      1  C   UNL d   1       1.157  -0.340   0.516  0.00  0.00     0.256 C 
ATOM      2  N   UNL d   1       0.329   0.670   0.962  0.00  0.00    -0.323 N 
ATOM      3  O   UNL d   1       0.820  -1.470   0.180  0.00  0.00    -0.267 OA
ATOM      4  H   UNL d   1       0.757   1.536   1.259  0.00  0.00     0.169 HD
ENDROOT
BRANCH   2   5
ATOM      5  C   UNL d   1      -1.077   0.608   1.090  0.00  0.00     0.035 A 
ATOM      6  C   UNL d   1      -1.849  -0.520   0.803  0.00  0.00     0.032 A 
ATOM      7  C   UNL d   1      -3.245  -0.485   0.933  0.00  0.00     0.039 A 
ATOM      8  C   UNL d   1      -3.887   0.677   1.355  0.00  0.00     0.069 A 
ATOM      9  C   UNL d   1      -3.114   1.796   1.666  0.00  0.00     0.039 A 
ATOM     10  C   UNL d   1      -1.722   1.764   1.532  0.00  0.00     0.032 A 
BRANCH   8  11
ATOM     11  O   UNL d   1      -5.256   0.614   1.423  0.00  0.00    -0.349 OA
BRANCH  11  12
ATOM     12  C   UNL d   1      -5.890   1.832   1.815  0.00  0.00     0.201 C 
BRANCH  12  13
ATOM     13  C   UNL d   1      -7.405   1.693   1.805  0.00  0.00     0.193 C 
BRANCH  13  14
ATOM     14  O   UNL d   1      -7.955   2.942   2.232  0.00  0.00    -0.394 OA
ATOM     15  C   UNL d   1      -9.373   2.912   2.266  0.00  0.00     0.201 C 
ENDBRANCH  13  14
ENDBRANCH  12  13
ENDBRANCH  11  12
ENDBRANCH   8  11
ENDBRANCH   2   5
BRANCH   1  16
ATOM     16  C   UNL d   1       2.612  -0.033   0.457  0.00  0.00     0.034 A 
ATOM     17  C   UNL d   1       3.502  -1.102   0.638  0.00  0.00     0.042 A 
ATOM     18  C   UNL d   1       4.880  -0.900   0.553  0.00  0.00     0.056 A 
ATOM     19 CL   UNL d   1       5.906  -2.271   0.780  0.00  0.00    -0.083 Cl
ATOM     20  C   UNL d   1       5.379   0.378   0.283  0.00  0.00     0.055 A 
ATOM     21  C   UNL d   1       4.493   1.445   0.091  0.00  0.00     0.026 A 
ATOM     22 CL   UNL d   1       7.070   0.703   0.161  0.00  0.00    -0.083 Cl
ATOM     23  C   UNL d   1       3.110   1.243   0.174  0.00  0.00     0.019 A 
ENDBRANCH   1  16
TORSDOF 6
