REMARK  3 active torsions:
REMARK  status: ('A' for Active; 'I' for Inactive)
REMARK    1  A    between atoms: C_6  and  C_1 
REMARK    2  A    between atoms: C_8  and  C_3 
REMARK    3  A    between atoms: O_14  and  C_6 
ROOT
ATOM      1  C   UNL d   1      -3.721  -1.314  -0.741  0.00  0.00     0.125 C 
ATOM      2  C   UNL d   1      -2.537  -1.544  -0.132  0.00  0.00     0.046 C 
ATOM      3  N   UNL d   1      -4.266   0.856  -2.033  0.00  0.00    -0.191 NA
ATOM      4  N   UNL d   1      -5.546  -3.141  -0.655  0.00  0.00    -0.191 NA
ATOM      5  C   UNL d   1      -4.017  -0.120  -1.454  0.00  0.00     0.111 C 
ATOM      6  C   UNL d   1      -4.728  -2.317  -0.700  0.00  0.00     0.111 C 
ENDROOT
BRANCH   2   7
ATOM      7  C   UNL d   1      -1.422  -0.656  -0.051  0.00  0.00    -0.016 A 
ATOM      8  C   UNL d   1      -1.420   0.751   0.025  0.00  0.00     0.049 A 
ATOM      9  C   UNL d   1      -0.106   1.208   0.030  0.00  0.00     0.110 A 
ATOM     10  N   UNL d   1       0.687   0.076   0.011  0.00  0.00    -0.355 N 
ATOM     11  C   UNL d   1      -0.107  -1.053  -0.004  0.00  0.00     0.102 A 
ATOM     12  C   UNL d   1       2.133  -0.003  -0.018  0.00  0.00     0.156 C 
BRANCH   9  13
ATOM     13  C   UNL d   1       0.328   2.593   0.039  0.00  0.00     0.309 C 
ATOM     14  O   UNL d   1       1.483   2.996   0.037  0.00  0.00    -0.258 OA
BRANCH  13  15
ATOM     15  O   UNL d   1      -0.770   3.404   0.042  0.00  0.00    -0.321 OA
ATOM     16  C   UNL d   1      -0.493   4.802   0.017  0.00  0.00     0.213 C 
ENDBRANCH  13  15
ENDBRANCH   9  13
ENDBRANCH   2   7
TORSDOF 3
