REMARK  6 active torsions:
REMARK  status: ('A' for Active; 'I' for Inactive)
REMARK    1  A    between atoms: C_7  and  C_18 
REMARK    2  A    between atoms: C_17  and  C_8 
REMARK    3  A    between atoms: C_22  and  C_17 
REMARK    4  A    between atoms: C_18  and  C_23 
REMARK    5  A    between atoms: O_21  and  C_22 
REMARK    6  A    between atoms: C_23  and  O_21 
ROOT
ATOM      1  O   UNL d   1       4.502   3.005  -0.232  0.00  0.00    -0.391 OA
ENDROOT
BRANCH   1   2
ATOM      2  C   UNL d   1       3.513   1.981  -0.111  0.00  0.00     0.172 C 
BRANCH   2   3
ATOM      3  C   UNL d   1       3.693   1.115   1.141  0.00  0.00     0.069 C 
BRANCH   3   4
ATOM      4  C   UNL d   1       3.608   1.891   2.429  0.00  0.00    -0.002 A 
ATOM      5  C   UNL d   1       4.635   1.991   3.283  0.00  0.00     0.066 A 
ATOM      6  C   UNL d   1       4.550   2.738   4.554  0.00  0.00     0.178 A 
ATOM      7  C   UNL d   1       3.281   3.442   4.853  0.00  0.00    -0.008 A 
ATOM      8  O   UNL d   1       5.509   2.771   5.314  0.00  0.00    -0.288 OA
ATOM      9  C   UNL d   1       2.248   3.342   4.001  0.00  0.00     0.066 A 
ATOM     10  C   UNL d   1       3.230   4.223   6.125  0.00  0.00     0.052 C 
ATOM     11  C   UNL d   1       2.317   2.548   2.758  0.00  0.00     0.179 A 
ATOM     12  O   UNL d   1       1.327   2.435   2.044  0.00  0.00    -0.288 OA
ENDBRANCH   3   4
ENDBRANCH   2   3
ENDBRANCH   1   2
BRANCH   1  13
ATOM     13  C   UNL d   1       5.857   2.552  -0.286  0.00  0.00     0.172 C 
BRANCH  13  14
ATOM     14  C   UNL d   1       6.138   1.618  -1.471  0.00  0.00     0.069 C 
BRANCH  14  15
ATOM     15  C   UNL d   1       5.928   2.295  -2.803  0.00  0.00    -0.002 A 
ATOM     16  C   UNL d   1       5.018   1.911  -3.710  0.00  0.00     0.066 A 
ATOM     17  C   UNL d   1       4.836   2.611  -4.994  0.00  0.00     0.178 A 
ATOM     18  O   UNL d   1       4.012   2.195  -5.805  0.00  0.00    -0.288 OA
ATOM     19  C   UNL d   1       5.673   3.810  -5.245  0.00  0.00    -0.008 A 
ATOM     20  C   UNL d   1       6.583   4.190  -4.341  0.00  0.00     0.066 A 
ATOM     21  C   UNL d   1       5.438   4.530  -6.529  0.00  0.00     0.052 C 
ATOM     22  C   UNL d   1       6.812   3.449  -3.095  0.00  0.00     0.179 A 
ATOM     23  O   UNL d   1       7.729   3.790  -2.348  0.00  0.00    -0.288 OA
ENDBRANCH  14  15
ENDBRANCH  13  14
ENDBRANCH   1  13
TORSDOF 6
