REMARK  3 active torsions:
REMARK  status: ('A' for Active; 'I' for Inactive)
REMARK    1  A    between atoms: C_14  and  C_1 
REMARK    2  A    between atoms: C_15  and  C_5 
REMARK    3  A    between atoms: C_16  and  C_6 
ROOT
ATOM      1  C   UNL d   1      -1.804   0.811  -0.777  0.00  0.00     0.231 C 
ATOM      2  C   UNL d   1      -0.236   0.272   0.810  0.00  0.00     0.131 C 
ATOM      3  C   UNL d   1       0.055  -0.915   0.092  0.00  0.00     0.128 C 
ATOM      4  C   UNL d   1      -1.963  -0.642  -1.279  0.00  0.00     0.230 C 
ATOM      5  C   UNL d   1      -0.359   0.322  -2.504  0.00  0.00     0.191 C 
ATOM      6  C   UNL d   1      -1.389  -0.509  -2.682  0.00  0.00    -0.002 C 
ATOM      7  O   UNL d   1      -0.671   1.349  -1.561  0.00  0.00    -0.334 OA
ATOM      8  O   UNL d   1      -1.467   0.842   0.635  0.00  0.00    -0.302 OA
ATOM      9  O   UNL d   1      -1.115  -1.529  -0.439  0.00  0.00    -0.331 OA
ATOM     10  C   UNL d   1       0.732   0.993   1.501  0.00  0.00     0.093 C 
ATOM     11  C   UNL d   1       1.504  -1.345  -0.163  0.00  0.00     0.093 C 
ATOM     12  C   UNL d   1       1.954   0.385   1.698  0.00  0.00     0.082 C 
ATOM     13  C   UNL d   1       2.203  -0.869   1.084  0.00  0.00     0.082 C 
ATOM     14 CL   UNL d   1       0.380   2.578   2.096  0.00  0.00    -0.079 Cl
ATOM     15 CL   UNL d   1       2.598  -1.869  -2.319  0.00  0.00    -0.079 Cl
ATOM     16 CL   UNL d   1       3.214   1.127   2.628  0.00  0.00    -0.081 Cl
ATOM     17 CL   UNL d   1       2.552  -2.091   2.363  0.00  0.00    -0.081 Cl
ENDROOT
BRANCH   1  18
ATOM     18  C   UNL d   1      -3.148   1.547  -0.820  0.00  0.00     0.007 A 
ATOM     19  C   UNL d   1      -4.091   1.268   0.209  0.00  0.00     0.016 A 
ATOM     20  C   UNL d   1      -5.337   1.887   0.256  0.00  0.00     0.043 A 
ATOM     21  C   UNL d   1      -5.670   2.785  -0.741  0.00  0.00     0.116 A 
ATOM     22  C   UNL d   1      -4.779   3.067  -1.775  0.00  0.00     0.043 A 
ATOM     23  F   UNL d   1      -6.867   3.385  -0.707  0.00  0.00    -0.206 F 
ATOM     24  C   UNL d   1      -3.517   2.454  -1.818  0.00  0.00     0.016 A 
ENDBRANCH   1  18
BRANCH   6  25
ATOM     25  C   UNL d   1      -1.488  -1.326  -3.909  0.00  0.00    -0.028 A 
ATOM     26  C   UNL d   1      -0.581  -1.075  -4.973  0.00  0.00     0.012 A 
ATOM     27  C   UNL d   1      -0.541  -1.859  -6.124  0.00  0.00     0.001 A 
ATOM     28  C   UNL d   1      -1.447  -2.896  -6.265  0.00  0.00     0.000 A 
ATOM     29  C   UNL d   1      -2.387  -3.133  -5.259  0.00  0.00     0.001 A 
ATOM     30  C   UNL d   1      -2.411  -2.357  -4.088  0.00  0.00     0.012 A 
ENDBRANCH   6  25
BRANCH   5  31
ATOM     31  C   UNL d   1       0.841  -0.561  -2.110  0.00  0.00    -0.025 A 
ATOM     32  C   UNL d   1       2.374   0.186  -1.501  0.00  0.00     0.010 A 
ATOM     33  C   UNL d   1       3.649  -0.836  -0.693  0.00  0.00     0.001 A 
ATOM     34  C   UNL d   1       3.328  -2.603  -0.366  0.00  0.00     0.000 A 
ATOM     35  C   UNL d   1       1.773  -3.365  -0.881  0.00  0.00     0.001 A 
ATOM     36  C   UNL d   1       0.567  -2.386  -1.817  0.00  0.00     0.010 A 
ENDBRANCH   5  31
TORSDOF 3
